#	Name: ASD04880212
#	Creating user name:	WinNT
#	Creation time:	15. 06. 2019 20:53

#	Modifying user name:	WinNT
#	Modification time:	15. 06. 2019 20:53

#	Program:	/corina/corina34_cracker 3.40 0067  02.08.2006

@<TRIPOS>MOLECULE
ASD04880212
  36   38    0    0    0
SMALL
NO_CHARGES


@<TRIPOS>ATOM
   1 C1            -0.0144     1.2116     0.0087 C.2     
   2 O2             0.0626    -0.0015    -0.0141 O.2     
   3 C3             1.2154     2.0308    -0.0205 C.ar    
   4 C4             2.4670     1.4194     0.0710 C.ar    
   5 C5             3.6125     2.1914     0.0426 C.ar    
   6 C6             3.5193     3.5691    -0.0766 C.ar    
   7 C7             2.2813     4.1790    -0.1671 C.ar    
   8 C8             1.1302     3.4184    -0.1456 C.ar    
   9 F9             4.8251     1.6025     0.1315 F       
  10 N10           -1.2214     1.8095     0.0551 N.am    
  11 N11           -1.4432     3.1777     0.1977 N.2     
  12 C12           -2.6879     3.5102     0.2147 C.2     
  13 C13           -3.5435     2.2720     0.0701 C.3     
  14 C14           -2.5202     1.1247    -0.0430 C.3     
  15 C15           -5.0095     6.4537     0.4948 C.ar    
  16 C16           -4.5738     5.1448     0.3617 C.ar    
  17 C17           -3.1991     4.8861     0.3539 C.ar    
  18 C18           -2.3194     5.9731     0.4827 C.ar    
  19 C19           -2.8397     7.2446     0.6111 C.ar    
  20 N20           -4.1445     7.4475     0.6135 N.ar    
  21 O21           -6.3405     6.7198     0.4983 O.3     
  22 C22           -6.7282     8.0880     0.6387 C.3     
  23 F23           -0.9828     5.7767     0.4815 F       
  24 H24            2.5397     0.3459     0.1642 H       
  25 H25            4.4172     4.1689    -0.0984 H       
  26 H26            2.2155     5.2530    -0.2594 H       
  27 H27            0.1647     3.8964    -0.2213 H       
  28 H28           -4.1760     2.1397     0.9479 H       
  29 H29           -4.1497     2.3296    -0.8339 H       
  30 H30           -2.6147     0.6173    -1.0031 H       
  31 H31           -2.6450     0.4194     0.7786 H       
  32 H32           -5.2845     4.3372     0.2656 H       
  33 H33           -2.1701     8.0861     0.7106 H       
  34 H34           -6.3491     8.4780     1.5834 H       
  35 H35           -6.3155     8.6691    -0.1860 H       
  36 H36           -7.8157     8.1607     0.6260 H       
@<TRIPOS>BOND
   1    1    2 2
   2    1    3 1
   3    1   10 am
   4    3    4 ar
   5    3    8 ar
   6    4    5 ar
   7    4   24 1
   8    5    6 ar
   9    5    9 1
  10    6    7 ar
  11    6   25 1
  12    7    8 ar
  13    7   26 1
  14    8   27 1
  15   10   11 1
  16   10   14 1
  17   11   12 2
  18   12   13 1
  19   12   17 1
  20   13   14 1
  21   13   28 1
  22   13   29 1
  23   14   30 1
  24   14   31 1
  25   15   16 ar
  26   15   20 ar
  27   15   21 1
  28   16   17 ar
  29   16   32 1
  30   17   18 ar
  31   18   19 ar
  32   18   23 1
  33   19   20 ar
  34   19   33 1
  35   21   22 1
  36   22   34 1
  37   22   35 1
  38   22   36 1

#	End of record

