#	Name: ASD01880920
#	Creating user name:	WinNT
#	Creation time:	15. 06. 2019 19:41

#	Modifying user name:	WinNT
#	Modification time:	15. 06. 2019 19:41

#	Program:	/corina/corina34_cracker 3.40 0067  02.08.2006

@<TRIPOS>MOLECULE
ASD01880920
  38   40    0    0    0
SMALL
NO_CHARGES


@<TRIPOS>ATOM
   1 N1            -0.0158     1.3136     0.0093 N.ar    
   2 C2             0.0021    -0.0041     0.0020 C.ar    
   3 N3             1.1321    -0.6824    -0.0120 N.ar    
   4 C4             2.2981    -0.0570    -0.0197 C.ar    
   5 C5             2.3199     1.3290    -0.0130 C.ar    
   6 C6             1.1114     2.0071     0.0022 C.ar    
   7 C7             3.6262     2.0803    -0.0209 C.3     
   8 O8             4.7107     1.1499    -0.0353 O.3     
   9 C9             1.0812     3.5137     0.0096 C.3     
  10 C10            5.9656     1.6665    -0.0440 C.ar    
  11 C11            7.0673     0.8159    -0.0582 C.ar    
  12 C12            8.3363     1.3385    -0.0674 C.ar    
  13 C13            8.5316     2.7240    -0.0626 C.ar    
  14 C14            7.4213     3.5749    -0.0484 C.ar    
  15 C15            6.1489     3.0434    -0.0445 C.ar    
  16 C16            9.7099     0.7153    -0.0835 C.3     
  17 N17           10.6649     1.8294    -0.0873 N.am    
  18 C18            9.9804     2.9860    -0.0752 C.2     
  19 O19           10.4859     4.0919    -0.0751 O.2     
  20 Cl20           7.6448     5.2964    -0.0417 Cl      
  21 C21           12.6181     1.6648    -1.5499 C.3     
  22 C22           12.1243     1.7019    -0.1023 C.3     
  23 H23           -0.9341    -0.5425     0.0081 H       
  24 H24            3.2205    -0.6188    -0.0309 H       
  25 H25            3.6771     2.7113    -0.9082 H       
  26 H26            3.6930     2.7024     0.8717 H       
  27 H27            1.0637     3.8818    -1.0162 H       
  28 H28            0.1893     3.8567     0.5340 H       
  29 H29            1.9688     3.8925     0.5165 H       
  30 H30            6.9237    -0.2545    -0.0616 H       
  31 H31            5.2916     3.7002    -0.0339 H       
  32 H32            9.8535     0.1017     0.8059 H       
  33 H33            9.8364     0.1103    -0.9813 H       
  34 H34           13.7040     1.5699    -1.5610 H       
  35 H35           12.1737     0.8124    -2.0636 H       
  36 H36           12.3286     2.5856    -2.0563 H       
  37 H37           12.5687     2.5543     0.4115 H       
  38 H38           12.4138     0.7811     0.4041 H       
@<TRIPOS>BOND
   1    1    2 ar
   2    1    6 ar
   3    2    3 ar
   4    2   23 1
   5    3    4 ar
   6    4    5 ar
   7    4   24 1
   8    5    6 ar
   9    5    7 1
  10    6    9 1
  11    7    8 1
  12    7   25 1
  13    7   26 1
  14    8   10 1
  15    9   27 1
  16    9   28 1
  17    9   29 1
  18   10   11 ar
  19   10   15 ar
  20   11   12 ar
  21   11   30 1
  22   12   13 ar
  23   12   16 1
  24   13   14 ar
  25   13   18 1
  26   14   15 ar
  27   14   20 1
  28   15   31 1
  29   16   17 1
  30   16   32 1
  31   16   33 1
  32   17   18 am
  33   17   22 1
  34   18   19 2
  35   21   22 1
  36   21   34 1
  37   21   35 1
  38   21   36 1
  39   22   37 1
  40   22   38 1

#	End of record

