#	Name: ASD03240512
#	Creating user name:	WinNT
#	Creation time:	15. 06. 2019 20:35

#	Modifying user name:	WinNT
#	Modification time:	15. 06. 2019 20:35

#	Program:	/corina/corina34_cracker 3.40 0067  02.08.2006

@<TRIPOS>MOLECULE
ASD03240512
  39   41    0    0    0
SMALL
NO_CHARGES


@<TRIPOS>ATOM
   1 C1             1.1231    -0.1742    -0.2335 C.ar    
   2 C2            -0.1906     0.2447    -0.1249 C.ar    
   3 C3             2.1378     0.7534    -0.3576 C.ar    
   4 C4             1.8367     2.1134    -0.3734 C.ar    
   5 C5             0.5119     2.5297    -0.2637 C.ar    
   6 C6            -0.4951     1.5938    -0.1405 C.ar    
   7 C7             2.9241     3.1156    -0.5062 C.2     
   8 C8             2.7719     4.4711    -0.5357 C.2     
   9 N9             3.9980     5.0165    -0.6662 N.pl3   
  10 N10            4.9355     3.9779    -0.7193 N.2     
  11 C11            4.3007     2.8401    -0.6186 C.2     
  12 C12           -1.2942    -0.7726     0.0103 C.3     
  13 C13           -1.4325    -1.5383    -1.2802 C.ar    
  14 C14           -2.5574    -1.3707    -2.0660 C.ar    
  15 C15           -2.6848    -2.0727    -3.2498 C.ar    
  16 C16           -1.6862    -2.9434    -3.6482 C.ar    
  17 C17           -0.5606    -3.1108    -2.8614 C.ar    
  18 C18           -0.4317    -2.4039    -1.6806 C.ar    
  19 Cl19          -1.8457    -3.8260    -5.1346 Cl      
  20 C20           -0.9579    -1.7421     1.1451 C.3     
  21 C21           -0.9405    -0.9963     2.4545 C.2     
  22 N22           -0.6653    -1.6515     3.5997 N.am    
  23 O23           -1.1741     0.1936     2.4777 O.2     
  24 H24            1.3559    -1.2286    -0.2166 H       
  25 H25            3.1633     0.4253    -0.4420 H       
  26 H26            0.2731     3.5829    -0.2755 H       
  27 H27           -1.5226     1.9155    -0.0558 H       
  28 H28            1.8383     5.0098    -0.4669 H       
  29 H29            4.1964     5.9647    -0.7152 H       
  30 H30            4.7524     1.8591    -0.6273 H       
  31 H31           -2.2321    -0.2638     0.2331 H       
  32 H32           -3.3371    -0.6912    -1.7547 H       
  33 H33           -3.5639    -1.9419    -3.8634 H       
  34 H34            0.2193    -3.7903    -3.1719 H       
  35 H35            0.4469    -2.5345    -1.0663 H       
  36 H36           -1.7106    -2.5295     1.1854 H       
  37 H37            0.0219    -2.1850     0.9662 H       
  38 H38           -0.4785    -2.6032     3.5811 H       
  39 H39           -0.6541    -1.1714     4.4424 H       
@<TRIPOS>BOND
   1    1    2 ar
   2    1    3 ar
   3    1   24 1
   4    2   12 1
   5    2    6 ar
   6    3    4 ar
   7    3   25 1
   8    4    5 ar
   9    4    7 1
  10    5    6 ar
  11    5   26 1
  12    6   27 1
  13    7    8 2
  14    7   11 1
  15    8    9 1
  16    8   28 1
  17    9   10 1
  18    9   29 1
  19   10   11 2
  20   11   30 1
  21   12   13 1
  22   12   20 1
  23   12   31 1
  24   13   14 ar
  25   13   18 ar
  26   14   15 ar
  27   14   32 1
  28   15   16 ar
  29   15   33 1
  30   16   17 ar
  31   16   19 1
  32   17   18 ar
  33   17   34 1
  34   18   35 1
  35   20   21 1
  36   20   36 1
  37   20   37 1
  38   21   22 am
  39   21   23 2
  40   22   38 1
  41   22   39 1

#	End of record

