#	Name: ASD01410273
#	Creating user name:	WinNT
#	Creation time:	15. 06. 2019 19:17

#	Modifying user name:	WinNT
#	Modification time:	15. 06. 2019 19:17

#	Program:	/corina/corina34_cracker 3.40 0067  02.08.2006

@<TRIPOS>MOLECULE
ASD01410273
  35   37    0    0    0
SMALL
NO_CHARGES


@<TRIPOS>ATOM
   1 C1            -0.0168     1.3907     0.0097 C.ar    
   2 C2             0.0021    -0.0041     0.0020 C.ar    
   3 C3             1.2074    -0.6933    -0.0128 C.ar    
   4 C4             2.4085     0.0094    -0.0205 C.ar    
   5 C5             2.3813     1.4205    -0.0131 C.ar    
   6 C6             1.1473     2.0973     0.0024 C.ar    
   7 O7             3.5786    -0.6655    -0.0344 O.3     
   8 C8             4.7607    -0.0158    -0.0419 C.2     
   9 C9             4.7914     1.4478    -0.0353 C.2     
  10 C10            3.5869     2.1521    -0.0212 C.2     
  11 C11            5.9541    -0.7093    -0.0553 C.2     
  12 C12            7.1663    -0.0026    -0.0624 C.2     
  13 C13            7.1852     1.4055    -0.0556 C.2     
  14 C14            6.0334     2.1197    -0.0429 C.2     
  15 O15            8.2248    -0.6203    -0.0742 O.2     
  16 O16            5.9550    -2.0714    -0.0611 O.3     
  17 O17            1.2141    -2.0542    -0.0193 O.3     
  18 O18           -1.1673    -0.6932     0.0095 O.3     
  19 C19            3.5746     3.6591    -0.0147 C.3     
  20 C20            3.4314     4.1741    -1.4483 C.3     
  21 C21            3.4191     5.6810    -1.4418 C.2     
  22 O22            3.5151     6.2815    -0.3977 O.2     
  23 O23            3.3016     6.3562    -2.5960 O.3     
  24 H24           -0.9616     1.9140     0.0170 H       
  25 H25            1.1236     3.1770     0.0080 H       
  26 H26            8.1323     1.9244    -0.0610 H       
  27 H27            6.0653     3.1992    -0.0382 H       
  28 H28            6.8386    -2.4641    -0.0705 H       
  29 H29            1.2076    -2.4434    -0.9045 H       
  30 H30           -1.5146    -0.8881    -0.8716 H       
  31 H31            2.7353     4.0130     0.5840 H       
  32 H32            4.5070     4.0282     0.4125 H       
  33 H33            4.2707     3.8201    -2.0470 H       
  34 H34            2.4990     3.8050    -1.8755 H       
  35 H35            3.2986     7.3216    -2.5414 H       
@<TRIPOS>BOND
   1    1    2 ar
   2    1    6 ar
   3    1   24 1
   4    2    3 ar
   5    2   18 1
   6    3    4 ar
   7    3   17 1
   8    4    5 ar
   9    4    7 1
  10    5    6 ar
  11    5   10 1
  12    6   25 1
  13    7    8 1
  14    8    9 1
  15    8   11 2
  16    9   10 2
  17    9   14 1
  18   10   19 1
  19   11   12 1
  20   11   16 1
  21   12   13 1
  22   12   15 2
  23   13   14 2
  24   13   26 1
  25   14   27 1
  26   16   28 1
  27   17   29 1
  28   18   30 1
  29   19   20 1
  30   19   31 1
  31   19   32 1
  32   20   21 1
  33   20   33 1
  34   20   34 1
  35   21   22 2
  36   21   23 1
  37   23   35 1

#	End of record

