#	Name: ASD08150312
#	Creating user name:	WinNT
#	Creation time:	15. 06. 2019 21:15

#	Modifying user name:	WinNT
#	Modification time:	15. 06. 2019 21:15

#	Program:	/corina/corina34_cracker 3.40 0067  02.08.2006

@<TRIPOS>MOLECULE
ASD08150312
  80   86    0    0    0
SMALL
NO_CHARGES


@<TRIPOS>ATOM
   1 N1            -0.3806    -1.9924     1.9798 N.am    
   2 C2             0.9526    -1.5704     2.4354 C.3     
   3 C3             2.0027    -2.1870     1.5051 C.3     
   4 N4             1.6832    -1.8407     0.1137 N.3     
   5 C5             0.3921    -2.4104    -0.2943 C.3     
   6 C6            -0.7239    -1.8029     0.5623 C.3     
   7 C7            -1.2623    -2.5433     2.8375 C.2     
   8 O8            -0.9600    -2.6971     4.0043 O.2     
   9 O9            -2.4781    -2.9234     2.4013 O.3     
  10 C10            2.7054    -2.2457    -0.7510 C.ar    
  11 C11            3.4698    -1.2955    -1.4163 C.ar    
  12 C12            4.4788    -1.6954    -2.2691 C.ar    
  13 C13            4.7295    -3.0475    -2.4625 C.ar    
  14 C14            3.9655    -3.9973    -1.7982 C.ar    
  15 C15            2.9601    -3.5977    -0.9402 C.ar    
  16 C16            3.1971     0.1718    -1.2072 C.3     
  17 F17            4.1563     0.9265    -1.8911 F       
  18 F18            1.9236     0.4836    -1.6953 F       
  19 F19            3.2583     0.4675     0.1588 F       
  20 N20            4.9228    -5.3359    -6.9315 N.ar    
  21 C21            6.1363    -5.3689    -6.4281 C.ar    
  22 C22            6.4379    -4.7485    -5.2258 C.ar    
  23 C23            5.4468    -4.0754    -4.5316 C.ar    
  24 C24            4.1473    -4.0455    -5.0801 C.ar    
  25 C25            3.0945    -3.3848    -4.4375 C.ar    
  26 C26            1.8370    -3.3835    -5.0160 C.ar    
  27 C27            1.6169    -4.0391    -6.2372 C.ar    
  28 C28            2.6276    -4.6855    -6.8745 C.ar    
  29 C29            3.9173    -4.7049    -6.3143 C.ar    
  30 O30            8.0349    -3.5978    -3.8404 O.3     
  31 C31            7.0459    -3.2416    -3.0003 C.2     
  32 N32            5.7546    -3.4536    -3.3296 N.am    
  33 C33            7.8292    -4.7897    -4.6479 C.3     
  34 N34           -0.0298    -0.8383    -3.0604 N.ar    
  35 C35            0.9404    -1.4759    -3.6642 C.ar    
  36 C36            0.7157    -2.6857    -4.3412 C.ar    
  37 C37           -0.5626    -3.2229    -4.3746 C.ar    
  38 C38           -1.5901    -2.5216    -3.7195 C.ar    
  39 C39           -2.9096    -3.0037    -3.7098 C.ar    
  40 C40           -3.8792    -2.2981    -3.0647 C.ar    
  41 C41           -3.5796    -1.1032    -2.4141 C.ar    
  42 C42           -2.3119    -0.6072    -2.4036 C.ar    
  43 C43           -1.2829    -1.3061    -3.0577 C.ar    
  44 O44            7.3182    -2.7246    -1.9350 O.2     
  45 C45           -3.3762    -3.5092     3.3804 C.3     
  46 C46           -3.6380    -2.5003     4.5003 C.3     
  47 C47           -4.6989    -3.8754     2.7042 C.3     
  48 C48           -2.7379    -4.7694     3.9681 C.3     
  49 H49            1.0247    -0.4833     2.3994 H       
  50 H50            1.1180    -1.9175     3.4553 H       
  51 H51            2.9882    -1.7971     1.7598 H       
  52 H52            1.9990    -3.2709     1.6202 H       
  53 H53            0.2096    -2.1826    -1.3444 H       
  54 H54            0.4108    -3.4912    -0.1541 H       
  55 H55           -1.6670    -2.3039     0.3438 H       
  56 H56           -0.8130    -0.7383     0.3462 H       
  57 H57            5.0731    -0.9566    -2.7864 H       
  58 H58            4.1602    -5.0488    -1.9493 H       
  59 H59            2.3689    -4.3366    -0.4197 H       
  60 H60            6.9158    -5.8911    -6.9629 H       
  61 H61            3.2616    -2.8802    -3.4974 H       
  62 H62            0.6302    -4.0299    -6.6762 H       
  63 H63            2.4402    -5.1855    -7.8132 H       
  64 H64            7.9400    -5.6769    -4.0245 H       
  65 H65            8.5602    -4.8145    -5.4561 H       
  66 H66            1.9377    -1.0620    -3.6413 H       
  67 H67           -0.7627    -4.1515    -4.8884 H       
  68 H68           -3.1537    -3.9284    -4.2115 H       
  69 H69           -4.8934    -2.6693    -3.0577 H       
  70 H70           -4.3661    -0.5614    -1.9100 H       
  71 H71           -2.0976     0.3207    -1.8942 H       
  72 H72           -4.0928    -1.6025     4.0816 H       
  73 H73           -4.3122    -2.9401     5.2353 H       
  74 H74           -2.6957    -2.2394     4.9820 H       
  75 H75           -4.5124    -4.5942     1.9064 H       
  76 H76           -5.3731    -4.3152     3.4392 H       
  77 H77           -5.1537    -2.9776     2.2855 H       
  78 H78           -1.7955    -4.5085     4.4498 H       
  79 H79           -3.4121    -5.2092     4.7031 H       
  80 H80           -2.5513    -5.4882     3.1703 H       
@<TRIPOS>BOND
   1    1    2 1
   2    1    6 1
   3    1    7 am
   4    2    3 1
   5    2   49 1
   6    2   50 1
   7    3    4 1
   8    3   51 1
   9    3   52 1
  10    4    5 1
  11    4   10 1
  12    5    6 1
  13    5   53 1
  14    5   54 1
  15    6   55 1
  16    6   56 1
  17    7    8 2
  18    7    9 1
  19    9   45 1
  20   10   11 ar
  21   10   15 ar
  22   11   12 ar
  23   11   16 1
  24   12   13 ar
  25   12   57 1
  26   13   14 ar
  27   13   32 1
  28   14   15 ar
  29   14   58 1
  30   15   59 1
  31   16   17 1
  32   16   18 1
  33   16   19 1
  34   20   21 ar
  35   20   29 ar
  36   21   22 ar
  37   21   60 1
  38   22   23 ar
  39   22   33 1
  40   23   24 ar
  41   23   32 1
  42   24   25 ar
  43   24   29 ar
  44   25   26 ar
  45   25   61 1
  46   26   27 ar
  47   26   36 1
  48   27   28 ar
  49   27   62 1
  50   28   29 ar
  51   28   63 1
  52   30   31 1
  53   30   33 1
  54   31   32 am
  55   31   44 2
  56   33   64 1
  57   33   65 1
  58   34   35 ar
  59   34   43 ar
  60   35   36 ar
  61   35   66 1
  62   36   37 ar
  63   37   38 ar
  64   37   67 1
  65   38   39 ar
  66   38   43 ar
  67   39   40 ar
  68   39   68 1
  69   40   41 ar
  70   40   69 1
  71   41   42 ar
  72   41   70 1
  73   42   43 ar
  74   42   71 1
  75   45   46 1
  76   45   48 1
  77   45   47 1
  78   46   72 1
  79   46   73 1
  80   46   74 1
  81   47   75 1
  82   47   76 1
  83   47   77 1
  84   48   78 1
  85   48   79 1
  86   48   80 1

#	End of record

