#	Name: ASD08150926
#	Creating user name:	WinNT
#	Creation time:	15. 06. 2019 21:16

#	Modifying user name:	WinNT
#	Modification time:	15. 06. 2019 21:16

#	Program:	/corina/corina34_cracker 3.40 0067  02.08.2006

@<TRIPOS>MOLECULE
ASD08150926
  47   51    0    0    0
SMALL
NO_CHARGES


@<TRIPOS>ATOM
   1 N1            -0.7964     1.8553    -0.1809 N.ar    
   2 C2            -1.0227     0.5666    -0.0884 C.ar    
   3 C3            -0.0257    -0.3260     0.2967 C.ar    
   4 C4             1.2270     0.1383     0.5892 C.ar    
   5 C5             1.4610     1.5183     0.4879 C.ar    
   6 C6             2.7706     2.0937     0.7824 C.ar    
   7 C7             2.9442     3.4685     0.6643 C.ar    
   8 C8             1.8937     4.2813     0.2739 C.ar    
   9 C9             0.6427     3.7628    -0.0107 C.ar    
  10 C10            0.4043     2.3702     0.0911 C.ar    
  11 C11            3.8589     1.2555     1.1869 C.1     
  12 N12            4.7222     0.5905     1.5078 N.1     
  13 C13            2.1179     5.7669     0.1565 C.3     
  14 C14            3.4101     6.1466     0.8823 C.3     
  15 N15            2.2260     6.1341    -1.2576 N.pl3   
  16 N16            2.3660     7.1484    -4.1562 N.2     
  17 C17            2.2686     7.9681    -5.1624 C.2     
  18 N18            1.8219     9.1821    -4.7325 N.pl3   
  19 C19            1.6354     9.0950    -3.3761 C.ar    
  20 N20            1.2244     9.9325    -2.4296 N.ar    
  21 C21            1.1483     9.5417    -1.1748 C.ar    
  22 N22            1.4704     8.3196    -0.7922 N.ar    
  23 C23            1.8915     7.4128    -1.6679 C.ar    
  24 C24            1.9891     7.7825    -3.0200 C.ar    
  25 C25           -0.4525     4.6686    -0.4243 C.ar    
  26 C26           -0.9640     4.6026    -1.7207 C.ar    
  27 C27           -1.9867     5.4507    -2.1001 C.ar    
  28 C28           -2.5032     6.3647    -1.1952 C.ar    
  29 C29           -1.9990     6.4333     0.0907 C.ar    
  30 C30           -0.9813     5.5877     0.4826 C.ar    
  31 F31           -2.4835     5.3892    -3.3549 F       
  32 H32           -2.0081     0.1880    -0.3165 H       
  33 H33           -0.2412    -1.3821     0.3645 H       
  34 H34            2.0137    -0.5377     0.8901 H       
  35 H35            3.9077     3.9064     0.8796 H       
  36 H36            1.2789     6.2976     0.6066 H       
  37 H37            3.5112     7.2317     0.9006 H       
  38 H38            3.3781     5.7673     1.9037 H       
  39 H39            4.2618     5.7111     0.3597 H       
  40 H40            2.5321     5.4811    -1.9062 H       
  41 H41            2.5072     7.7228    -6.1868 H       
  42 H42            1.6650     9.9643    -5.2844 H       
  43 H43            0.8104    10.2473    -0.4302 H       
  44 H44           -0.5613     3.8906    -2.4259 H       
  45 H45           -3.3024     7.0261    -1.4957 H       
  46 H46           -2.4054     7.1478     0.7912 H       
  47 H47           -0.5920     5.6399     1.4886 H       
@<TRIPOS>BOND
   1    1    2 ar
   2    1   10 ar
   3    2    3 ar
   4    2   32 1
   5    3    4 ar
   6    3   33 1
   7    4    5 ar
   8    4   34 1
   9    5    6 ar
  10    5   10 ar
  11    6    7 ar
  12    6   11 1
  13    7    8 ar
  14    7   35 1
  15    8    9 ar
  16    8   13 1
  17    9   10 ar
  18    9   25 1
  19   11   12 3
  20   13   14 1
  21   13   15 1
  22   13   36 1
  23   14   37 1
  24   14   38 1
  25   14   39 1
  26   15   23 1
  27   15   40 1
  28   16   17 2
  29   16   24 1
  30   17   18 1
  31   17   41 1
  32   18   19 1
  33   18   42 1
  34   19   20 ar
  35   19   24 ar
  36   20   21 ar
  37   21   22 ar
  38   21   43 1
  39   22   23 ar
  40   23   24 ar
  41   25   26 ar
  42   25   30 ar
  43   26   27 ar
  44   26   44 1
  45   27   28 ar
  46   27   31 1
  47   28   29 ar
  48   28   45 1
  49   29   30 ar
  50   29   46 1
  51   30   47 1

#	End of record

