#	Name: ASD01884867
#	Creating user name:	WinNT
#	Creation time:	15. 06. 2019 19:49

#	Modifying user name:	WinNT
#	Modification time:	15. 06. 2019 19:49

#	Program:	/corina/corina34_cracker 3.40 0067  02.08.2006

@<TRIPOS>MOLECULE
ASD01884867
  38   42    0    0    0
SMALL
NO_CHARGES


@<TRIPOS>ATOM
   1 C1            -1.0774     1.4359    -0.6922 C.ar    
   2 C2            -0.9140     0.0827    -0.7727 C.ar    
   3 C3            -1.4768    -0.7632     0.1903 C.ar    
   4 C4            -2.2106    -0.2300     1.2422 C.ar    
   5 C5            -2.3796     1.1518     1.3286 C.ar    
   6 C6            -1.8045     1.9928     0.3580 C.ar    
   7 C7            -3.0707     2.0347     2.2720 C.2     
   8 C8            -2.8880     3.2916     1.8380 C.2     
   9 N9            -2.1336     3.2864     0.6967 N.pl3   
  10 C10           -1.2898    -2.2296     0.0871 C.2     
  11 C11           -0.5292    -2.9037     1.0236 C.2     
  12 C12           -1.8936    -2.9547    -0.9689 C.2     
  13 C13           -1.7225    -4.2868    -1.0609 C.2     
  14 N14           -0.9686    -4.9601    -0.1433 N.pl3   
  15 C15           -0.3701    -4.2943     0.8991 C.2     
  16 C16           -0.6316    -6.2705     0.0106 C.2     
  17 N17            0.1220    -6.3611     1.0758 N.2     
  18 N18            0.2829    -5.2014     1.6093 N.2     
  19 C19           -1.0512    -7.4090    -0.8832 C.3     
  20 C20            0.0547    -8.2085    -1.5750 C.3     
  21 C21           -0.7279    -8.8297    -0.4163 C.3     
  22 Cl22          -0.3711     2.4661    -1.8979 Cl      
  23 C23            0.1202    -2.1584     2.1611 C.3     
  24 F24           -0.8143    -1.9611     3.1833 F       
  25 F25            1.1978    -2.9036     2.6519 F       
  26 F26            0.5802    -0.9188     1.7041 F       
  27 H27           -0.3450    -0.3394    -1.5879 H       
  28 H28           -2.6467    -0.8798     1.9865 H       
  29 H29           -3.6226     1.7316     3.1495 H       
  30 H30           -3.2765     4.1765     2.3202 H       
  31 H31           -1.8704     4.0765     0.1994 H       
  32 H32           -2.4937    -2.4373    -1.7027 H       
  33 H33           -2.1877    -4.8296    -1.8705 H       
  34 H34           -1.9814    -7.2583    -1.4310 H       
  35 H35           -0.1481    -8.5842    -2.5780 H       
  36 H36            1.0857    -7.9111    -1.3838 H       
  37 H37           -0.2117    -8.9409     0.5372 H       
  38 H38           -1.4455    -9.6141    -0.6569 H       
@<TRIPOS>BOND
   1    1    2 ar
   2    1   22 1
   3    1    6 ar
   4    2    3 ar
   5    2   27 1
   6    3    4 ar
   7    3   10 1
   8    4    5 ar
   9    4   28 1
  10    5    6 ar
  11    5    7 1
  12    6    9 1
  13    7    8 2
  14    7   29 1
  15    8    9 1
  16    8   30 1
  17    9   31 1
  18   10   11 2
  19   10   12 1
  20   11   23 1
  21   11   15 1
  22   12   13 2
  23   12   32 1
  24   13   14 1
  25   13   33 1
  26   14   15 1
  27   14   16 1
  28   15   18 2
  29   16   17 2
  30   16   19 1
  31   17   18 1
  32   19   20 1
  33   19   21 1
  34   19   34 1
  35   20   21 1
  36   20   35 1
  37   20   36 1
  38   21   37 1
  39   21   38 1
  40   23   24 1
  41   23   25 1
  42   23   26 1

#	End of record

