#	Name: ASD02260001
#	Creating user name:	WinNT
#	Creation time:	15. 06. 2019 20:20

#	Modifying user name:	WinNT
#	Modification time:	15. 06. 2019 20:20

#	Program:	/corina/corina34_cracker 3.40 0067  02.08.2006

@<TRIPOS>MOLECULE
ASD02260001
   9    8    0    0    0
SMALL
NO_CHARGES


@<TRIPOS>ATOM
   1 P1            -0.0180     1.4758     0.0102 P.3     
   2 O2             0.0021    -0.0041     0.0020 O.2     
   3 O3             1.4924     2.0330    -0.0013 O.3     
   4 O4            -0.7967     2.0091    -1.2942 O.3     
   5 N5            -0.8057     2.0185     1.3948 N.3     
   6 H6             1.5557     2.9980     0.0033 H       
   7 H7            -0.3973     1.7338    -2.1307 H       
   8 H8            -1.7744     1.7359     1.3941 H       
   9 H9            -0.3359     1.6968     2.2278 H       
@<TRIPOS>BOND
   1    1    2 2
   2    1    3 1
   3    1    4 1
   4    1    5 1
   5    3    6 1
   6    4    7 1
   7    5    8 1
   8    5    9 1

#	End of record

