#	Name: ASD01231339
#	Creating user name:	WinNT
#	Creation time:	15. 06. 2019 19:15

#	Modifying user name:	WinNT
#	Modification time:	15. 06. 2019 19:15

#	Program:	/corina/corina34_cracker 3.40 0067  02.08.2006

@<TRIPOS>MOLECULE
ASD01231339
  55   57    0    0    0
SMALL
NO_CHARGES


@<TRIPOS>ATOM
   1 C1            -3.1132     0.8136     3.3206 C.3     
   2 C2            -2.6235    -0.6162     3.0823 C.3     
   3 C3            -3.8227    -1.5655     3.0390 C.3     
   4 S4            -1.7327    -0.6951     1.5040 S.o2    
   5 O5            -2.6213    -0.4707     0.4181 O.2     
   6 O6            -0.4961    -0.0009     1.5942 O.2     
   7 N7            -1.2979    -2.2859     1.3540 N.am    
   8 C8            -0.3949    -2.8941     2.3343 C.3     
   9 C9            -0.8297    -4.3440     2.6357 C.3     
  10 C10            0.0072    -5.1577     1.6259 C.3     
  11 C11            1.2324    -4.3113     1.3539 C.ar    
  12 C12            2.4514    -4.6533     0.7947 C.ar    
  13 C13            3.4414    -3.6950     0.6422 C.ar    
  14 C14            3.2071    -2.3899     1.0516 C.ar    
  15 C15            1.9905    -2.0520     1.6083 C.ar    
  16 C16            1.0015    -3.0102     1.7609 C.ar    
  17 O17            4.6379    -4.0328     0.0938 O.3     
  18 C18            4.8576    -5.3407    -0.2022 C.ar    
  19 C19            4.2773    -5.9052    -1.3293 C.ar    
  20 C20            4.5026    -7.2347    -1.6282 C.ar    
  21 C21            5.3056    -8.0032    -0.8053 C.ar    
  22 C22            5.8849    -7.4432     0.3182 C.ar    
  23 C23            5.6670    -6.1125     0.6188 C.ar    
  24 C24            3.8724    -7.8485    -2.8517 C.3     
  25 S25            4.5268    -8.5797    -5.3720 S.o2    
  26 O26            5.5864    -8.1902    -6.2351 O.2     
  27 O27            4.4130    -9.9185    -4.9096 O.2     
  28 N28            4.7737    -7.6920    -3.9959 N.am    
  29 C29            2.9352    -7.9897    -6.0117 C.3     
  30 H30           -3.6485     0.8609     4.2689 H       
  31 H31           -2.2589     1.4898     3.3514 H       
  32 H32           -3.7811     1.1085     2.5112 H       
  33 H33           -1.9556    -0.9112     3.8916 H       
  34 H34           -3.4823    -2.5695     2.7856 H       
  35 H35           -4.3084    -1.5819     4.0146 H       
  36 H36           -4.5315    -1.2213     2.2859 H       
  37 H37           -1.6411    -2.8151     0.6171 H       
  38 H38           -0.3810    -2.3050     3.2513 H       
  39 H39           -0.5768    -4.6194     3.6595 H       
  40 H40           -1.8958    -4.4752     2.4501 H       
  41 H41            0.2973    -6.1147     2.0595 H       
  42 H42           -0.5566    -5.3136     0.7062 H       
  43 H43            2.6319    -5.6695     0.4767 H       
  44 H44            3.9757    -1.6401     0.9350 H       
  45 H45            1.8087    -1.0363     1.9272 H       
  46 H46            3.6498    -5.3056    -1.9721 H       
  47 H47            5.4802    -9.0427    -1.0406 H       
  48 H48            6.5116    -8.0456     0.9591 H       
  49 H49            6.1231    -5.6744     1.4943 H       
  50 H50            3.6913    -8.9086    -2.6741 H       
  51 H51            2.9270    -7.3489    -3.0629 H       
  52 H52            5.5152    -7.0685    -3.9475 H       
  53 H53            2.6905    -8.5264    -6.9282 H       
  54 H54            2.1572    -8.1657    -5.2688 H       
  55 H55            3.0015    -6.9223    -6.2224 H       
@<TRIPOS>BOND
   1    1    2 1
   2    1   30 1
   3    1   31 1
   4    1   32 1
   5    2    3 1
   6    2    4 1
   7    2   33 1
   8    3   34 1
   9    3   35 1
  10    3   36 1
  11    4    5 2
  12    4    6 2
  13    4    7 am
  14    7    8 1
  15    7   37 1
  16    8    9 1
  17    8   16 1
  18    8   38 1
  19    9   10 1
  20    9   39 1
  21    9   40 1
  22   10   11 1
  23   10   41 1
  24   10   42 1
  25   11   12 ar
  26   11   16 ar
  27   12   13 ar
  28   12   43 1
  29   13   14 ar
  30   13   17 1
  31   14   15 ar
  32   14   44 1
  33   15   16 ar
  34   15   45 1
  35   17   18 1
  36   18   19 ar
  37   18   23 ar
  38   19   20 ar
  39   19   46 1
  40   20   21 ar
  41   20   24 1
  42   21   22 ar
  43   21   47 1
  44   22   23 ar
  45   22   48 1
  46   23   49 1
  47   24   28 1
  48   24   50 1
  49   24   51 1
  50   25   26 2
  51   25   27 2
  52   25   28 am
  53   25   29 1
  54   28   52 1
  55   29   53 1
  56   29   54 1
  57   29   55 1

#	End of record

