#	Name: ASD01410294
#	Creating user name:	WinNT
#	Creation time:	15. 06. 2019 19:17

#	Modifying user name:	WinNT
#	Modification time:	15. 06. 2019 19:17

#	Program:	/corina/corina34_cracker 3.40 0067  02.08.2006

@<TRIPOS>MOLECULE
ASD01410294
  49   52    0    0    0
SMALL
NO_CHARGES


@<TRIPOS>ATOM
   1 O1            -0.0161     1.3361     0.0094 O.3     
   2 C2             0.0021    -0.0041     0.0020 C.2     
   3 C3             1.2992    -0.4163    -0.0126 C.2     
   4 C4             2.1063     0.8107    -0.0137 C.2     
   5 C5             1.2316     1.8296     0.0001 C.2     
   6 N6             2.8001    -2.2904    -0.8297 N.pl3   
   7 C7             1.7930    -1.8096    -0.0244 C.2     
   8 C8             1.3240    -2.8158     0.7578 C.2     
   9 C9             2.0554    -3.9868     0.4450 C.ar    
  10 C10            2.9815    -3.6345    -0.5586 C.ar    
  11 C11            2.0104    -5.3038     0.9250 C.ar    
  12 C12            2.8597    -6.2412     0.4228 C.ar    
  13 C13            3.7848    -5.8996    -0.5756 C.ar    
  14 C14            3.8415    -4.5942    -1.0645 C.ar    
  15 C15           -0.9170    -3.6574     1.4048 C.3     
  16 C16           -2.0371    -3.5452     2.4410 C.3     
  17 C17           -1.4935    -3.9172     3.8219 C.3     
  18 C18           -0.3557    -2.9649     4.1956 C.3     
  19 C19            0.7644    -3.0772     3.1594 C.3     
  20 C20            0.2208    -2.7052     1.7784 C.3     
  21 C21            3.5146    -1.5477    -1.7672 C.2     
  22 C22            4.6220    -0.9256    -1.4106 C.2     
  23 C23            3.0224    -1.4548    -3.1885 C.3     
  24 C24            4.6989    -6.9239    -1.1103 C.2     
  25 O25            5.5010    -6.6306    -1.9749 O.2     
  26 O26            4.6456    -8.1860    -0.6406 O.3     
  27 H27           -0.8652    -0.6476     0.0068 H       
  28 H28            3.1841     0.8796    -0.0231 H       
  29 H29            1.4908     2.8781     0.0033 H       
  30 H30            1.3016    -5.5742     1.6937 H       
  31 H31            2.8216    -7.2542     0.7952 H       
  32 H32            4.5539    -4.3333    -1.8331 H       
  33 H33           -0.5423    -4.6808     1.3842 H       
  34 H34           -1.3043    -3.3924     0.4210 H       
  35 H35           -2.4118    -2.5218     2.4616 H       
  36 H36           -2.8476    -4.2236     2.1748 H       
  37 H37           -2.2914    -3.8372     4.5601 H       
  38 H38           -1.1188    -4.9405     3.8013 H       
  39 H39           -0.7304    -1.9415     4.2162 H       
  40 H40            0.0316    -3.2299     5.1794 H       
  41 H41            1.5749    -2.3988     3.4256 H       
  42 H42            1.1391    -4.1005     3.1388 H       
  43 H43           -0.1539    -1.6818     1.7990 H       
  44 H44            4.9747    -0.9922    -0.3920 H       
  45 H45            5.1758    -0.3499    -2.1374 H       
  46 H46            3.4512    -2.2671    -3.7753 H       
  47 H47            1.9351    -1.5313    -3.2022 H       
  48 H48            3.3248    -0.4988    -3.6160 H       
  49 H49            5.2652    -8.8230    -1.0221 H       
@<TRIPOS>BOND
   1    1    2 1
   2    1    5 1
   3    2    3 2
   4    2   27 1
   5    3    4 1
   6    3    7 1
   7    4    5 2
   8    4   28 1
   9    5   29 1
  10    6    7 1
  11    6   10 1
  12    6   21 1
  13    7    8 2
  14    8    9 1
  15    8   20 1
  16    9   10 ar
  17    9   11 ar
  18   10   14 ar
  19   11   12 ar
  20   11   30 1
  21   12   13 ar
  22   12   31 1
  23   13   14 ar
  24   13   24 1
  25   14   32 1
  26   15   16 1
  27   15   20 1
  28   15   33 1
  29   15   34 1
  30   16   17 1
  31   16   35 1
  32   16   36 1
  33   17   18 1
  34   17   37 1
  35   17   38 1
  36   18   19 1
  37   18   39 1
  38   18   40 1
  39   19   20 1
  40   19   41 1
  41   19   42 1
  42   20   43 1
  43   21   22 2
  44   21   23 1
  45   22   44 1
  46   22   45 1
  47   23   46 1
  48   23   47 1
  49   23   48 1
  50   24   25 2
  51   24   26 1
  52   26   49 1

#	End of record

