#	Name: ASD04590265
#	Creating user name:	WinNT
#	Creation time:	15. 06. 2019 20:50

#	Modifying user name:	WinNT
#	Modification time:	15. 06. 2019 20:50

#	Program:	/corina/corina34_cracker 3.40 0067  02.08.2006

@<TRIPOS>MOLECULE
ASD04590265
  36   39    0    0    0
SMALL
NO_CHARGES


@<TRIPOS>ATOM
   1 C1            -0.0157     1.3069     0.0092 C.2     
   2 N2             0.0021    -0.0041     0.0020 N.2     
   3 N3             1.2662     1.7876    -0.0004 N.pl3   
   4 C4             2.1124     0.6949    -0.0144 C.ar    
   5 C5             1.2849    -0.4421    -0.0126 C.ar    
   6 C6             3.4917     0.5471    -0.0283 C.ar    
   7 C7             4.0468    -0.7155    -0.0404 C.ar    
   8 C8             3.2353    -1.8408    -0.0392 C.ar    
   9 C9             1.8649    -1.7144    -0.0254 C.ar    
  10 C10           -1.2358     2.1402     0.0198 C.2     
  11 N11           -1.2742     3.4583     0.0262 N.2     
  12 C12           -2.5674     1.6645     0.0186 C.2     
  13 C13           -3.3909     2.7411     0.0304 C.2     
  14 N14           -2.6165     3.8578     0.0353 N.pl3   
  15 N15           -2.9654     0.3179     0.0064 N.am    
  16 C16           -4.2758     0.0024     0.0067 C.2     
  17 C17           -4.6939    -1.4123    -0.0060 C.ar    
  18 O18           -5.1134     0.8840     0.0175 O.2     
  19 C19           -4.8965    -2.0751    -1.2213 C.ar    
  20 C20           -5.2882    -3.4006    -1.2240 C.ar    
  21 C21           -5.4801    -4.0716    -0.0299 C.ar    
  22 C22           -5.2821    -3.4240     1.1761 C.ar    
  23 C23           -4.8847    -2.1004     1.1972 C.ar    
  24 F24           -4.6919    -1.4696     2.3762 F       
  25 F25           -4.7101    -1.4214    -2.3888 F       
  26 H26            1.5310     2.7207     0.0018 H       
  27 H27            4.1294     1.4187    -0.0301 H       
  28 H28            5.1208    -0.8289    -0.0513 H       
  29 H29            3.6825    -2.8238    -0.0491 H       
  30 H30            1.2395    -2.5950    -0.0244 H       
  31 H31           -4.4706     2.7159     0.0327 H       
  32 H32           -2.9377     4.7731     0.0438 H       
  33 H33           -2.2973    -0.3853    -0.0021 H       
  34 H34           -5.4454    -3.9137    -2.1612 H       
  35 H35           -5.7866    -5.1071    -0.0392 H       
  36 H36           -5.4345    -3.9553     2.1039 H       
@<TRIPOS>BOND
   1    1    2 2
   2    1    3 1
   3    1   10 1
   4    2    5 1
   5    3    4 1
   6    3   26 1
   7    4    5 ar
   8    4    6 ar
   9    5    9 ar
  10    6    7 ar
  11    6   27 1
  12    7    8 ar
  13    7   28 1
  14    8    9 ar
  15    8   29 1
  16    9   30 1
  17   10   11 2
  18   10   12 1
  19   11   14 1
  20   12   13 2
  21   12   15 1
  22   13   14 1
  23   13   31 1
  24   14   32 1
  25   15   16 am
  26   15   33 1
  27   16   17 1
  28   16   18 2
  29   17   19 ar
  30   17   23 ar
  31   19   20 ar
  32   19   25 1
  33   20   21 ar
  34   20   34 1
  35   21   22 ar
  36   21   35 1
  37   22   23 ar
  38   22   36 1
  39   23   24 1

#	End of record

