#	Name: ASD00731052
#	Creating user name:	WinNT
#	Creation time:	15. 06. 2019 18:37

#	Modifying user name:	WinNT
#	Modification time:	15. 06. 2019 18:37

#	Program:	/corina/corina34_cracker 3.40 0067  02.08.2006

@<TRIPOS>MOLECULE
ASD00731052
 251  253    0    0    0
SMALL
NO_CHARGES


@<TRIPOS>ATOM
   1 C1            -1.8617    -0.5885    -5.7293 C.2     
   2 O2            -2.4819    -0.9538    -6.7054 O.2     
   3 N3             0.1152    -1.0711    -7.0515 N.am    
   4 C4            -0.3548    -0.5897    -5.7501 C.3     
   5 C5            -4.4702     0.8467    -3.6082 C.2     
   6 O6            -3.6711     1.5008    -2.9722 O.2     
   7 N7            -2.5201    -0.1762    -4.6279 N.am    
   8 C8            -3.9849    -0.1693    -4.6098 C.3     
   9 C9            -4.4966    -1.5568    -4.2175 C.3     
  10 O10           -4.1033    -1.8475    -2.8748 O.3     
  11 C11           -7.6414     1.6338    -1.9691 C.2     
  12 O12           -8.1764     0.6345    -2.4003 O.2     
  13 N13           -5.7922     1.0287    -3.4193 N.am    
  14 C14           -6.2639     2.0164    -2.4456 C.3     
  15 C15           -6.3170     3.3965    -3.1041 C.3     
  16 C16           -4.9474     3.7313    -3.6980 C.3     
  17 O17           -7.2983     3.3912    -4.1429 O.3     
  18 C18          -10.6077     2.7562    -1.6467 C.2     
  19 O19          -10.1738     3.4222    -2.5627 O.2     
  20 N20           -8.2788     2.4022    -1.0636 N.am    
  21 C21           -9.6589     2.0926    -0.6821 C.3     
  22 C22           -9.9253     2.6103     0.7328 C.3     
  23 C23           -9.0730     1.8487     1.7151 C.2     
  24 O24           -8.2701     1.0384     1.3170 O.2     
  25 O25           -9.2060     2.0707     3.0322 O.3     
  26 C26          -14.1902     3.4753    -1.7546 C.2     
  27 O27          -14.3514     3.1278    -0.6038 O.2     
  28 N28          -11.9385     2.6096    -1.4914 N.am    
  29 C29          -12.8608     3.2547    -2.4291 C.3     
  30 C30          -13.0529     2.3581    -3.6539 C.3     
  31 C31          -11.7279     2.2355    -4.4091 C.3     
  32 C32          -11.9200     1.3389    -5.6338 C.3     
  33 N33          -10.6513     1.2216    -6.3570 N.pl3   
  34 C34          -10.5791     0.4601    -7.4994 C.2     
  35 N35           -9.4503     0.3557    -8.1427 N.2     
  36 N36          -11.6974    -0.1912    -7.9632 N.pl3   
  37 C37          -17.5791     4.3423    -2.8162 C.2     
  38 O38          -17.3013     4.2242    -3.9908 O.2     
  39 N39          -15.2001     4.0587    -2.4301 N.am    
  40 C40          -16.4925     4.2731    -1.7743 C.3     
  41 C41          -16.4544     5.5856    -0.9891 C.3     
  42 C42          -15.4376     5.4702     0.1483 C.3     
  43 C43          -15.3082     6.8207     0.8557 C.3     
  44 C44          -15.9096     4.4135     1.1490 C.3     
  45 C45          -21.0771     5.3988    -2.9181 C.2     
  46 O46          -21.0273     5.8641    -1.7992 O.2     
  47 N47          -18.8595     4.5355    -2.4426 N.am    
  48 C48          -19.9159     4.6028    -3.4555 C.3     
  49 C49          -20.3836     3.1872    -3.7994 C.3     
  50 C50          -19.2378     2.4179    -4.4600 C.3     
  51 C51          -19.7055     1.0024    -4.8040 C.3     
  52 N52          -18.6084     0.2658    -5.4365 N.pl3   
  53 C53          -18.7949    -1.0366    -5.8355 C.2     
  54 N54          -19.9478    -1.6160    -5.6510 N.2     
  55 N55          -17.7654    -1.7278    -6.4291 N.pl3   
  56 C56          -24.5641     5.9520    -3.8658 C.2     
  57 O57          -24.5258     5.0940    -4.7221 O.2     
  58 N58          -22.1711     5.5936    -3.6808 N.am    
  59 C59          -23.3000     6.3675    -3.1584 C.3     
  60 C60          -23.0495     7.8582    -3.3950 C.3     
  61 C61          -21.8374     8.3078    -2.5768 C.3     
  62 C62          -21.5869     9.7985    -2.8134 C.3     
  63 C63          -20.3747    10.2482    -1.9952 C.3     
  64 N64          -20.1342    11.6794    -2.2224 N.3     
  65 C65          -27.9627     7.2594    -4.1872 C.2     
  66 O66          -27.6748     8.2993    -3.6334 O.2     
  67 N67          -25.7372     6.5340    -3.5469 N.am    
  68 C68          -26.9660     6.1301    -4.2347 C.3     
  69 C69          -27.5565     4.8994    -3.5434 C.3     
  70 C70          -26.6122     3.7352    -3.6977 C.2     
  71 C71          -26.6628     2.7863    -4.6458 C.2     
  72 N72          -25.6415     1.8933    -4.4672 N.pl3   
  73 C73          -24.8896     2.2550    -3.3719 C.ar    
  74 C74          -23.7649     1.7111    -2.7606 C.ar    
  75 C75          -23.2286     2.3212    -1.6476 C.ar    
  76 C76          -23.7995     3.4748    -1.1285 C.ar    
  77 C77          -24.9051     4.0259    -1.7131 C.ar    
  78 C78          -25.4611     3.4279    -2.8452 C.ar    
  79 C79          -31.4068     7.7963    -5.4214 C.2     
  80 O80          -31.4902     6.6919    -5.9156 O.2     
  81 N81          -29.1739     7.1139    -4.7601 N.am    
  82 C82          -30.1427     8.2118    -4.7140 C.3     
  83 C83          -34.3977     9.4734    -6.6883 C.2     
  84 O84          -33.9331    10.5754    -6.4869 O.2     
  85 N85          -32.4447     8.6521    -5.5051 N.am    
  86 C86          -33.6735     8.2482    -6.1928 C.3     
  87 C87          -34.5734     7.4820    -5.2213 C.3     
  88 C88          -33.8993     6.1950    -4.8208 C.ar    
  89 C89          -33.0705     6.1639    -3.7149 C.ar    
  90 C90          -32.4521     4.9834    -3.3476 C.ar    
  91 C91          -32.6628     3.8339    -4.0859 C.ar    
  92 C92          -33.4923     3.8648    -5.1913 C.ar    
  93 C93          -34.1141     5.0443    -5.5561 C.ar    
  94 C94          -37.1271    11.0911    -6.7324 C.2     
  95 O95          -37.1505    10.5479    -5.6534 O.2     
  96 N96          -35.5617     9.3445    -7.3554 N.am    
  97 C97          -36.2657    10.5355    -7.8371 C.3     
  98 C98          -37.1464    10.1596    -9.0304 C.3     
  99 C99          -37.7847    11.4229    -9.6113 C.3     
 100 C100         -38.5645    11.0643   -10.8778 C.3     
 101 C101         -38.2446     9.1984    -8.5710 C.3     
 102 O102         -37.8683    12.1894    -6.9471 O.3     
 103 C103           1.4369    -1.1579    -7.3006 C.2     
 104 O104           2.2371    -0.8375    -6.4475 O.2     
 105 C105          16.0654    -5.1810   -18.3011 C.3     
 106 C106          15.5745    -4.6782   -16.9420 C.3     
 107 C107          14.0447    -4.6770   -16.9208 C.3     
 108 C108          13.5538    -4.1743   -15.5617 C.3     
 109 C109          12.0239    -4.1731   -15.5406 C.3     
 110 C110          11.5331    -3.6703   -14.1815 C.3     
 111 C111          10.0032    -3.6691   -14.1603 C.3     
 112 C112           9.5124    -3.1663   -12.8012 C.3     
 113 C113           7.9825    -3.1651   -12.7801 C.3     
 114 C114           7.4916    -2.6623   -11.4210 C.3     
 115 C115           5.9618    -2.6611   -11.3998 C.3     
 116 C116           5.4709    -2.1583   -10.0407 C.3     
 117 C117           3.9411    -2.1571   -10.0196 C.3     
 118 C118           3.4502    -1.6543    -8.6605 C.3     
 119 C119           1.9204    -1.6531    -8.6393 C.3     
 120 H120          -0.5248    -1.3274    -7.7338 H       
 121 H121           0.0116     0.4233    -5.5835 H       
 122 H122           0.0189    -1.2453    -4.9636 H       
 123 H123          -2.0240     0.1160    -3.8473 H       
 124 H124          -4.3594     0.0893    -5.6003 H       
 125 H125          -5.5840    -1.5770    -4.2900 H       
 126 H126          -4.0738    -2.3035    -4.8897 H       
 127 H127          -4.3944    -2.7137    -2.5584 H       
 128 H128          -6.4313     0.5056    -3.9280 H       
 129 H129          -5.5806     2.0449    -1.5968 H       
 130 H130          -6.5822     4.1452    -2.3576 H       
 131 H131          -4.6822     2.9825    -4.4445 H       
 132 H132          -4.9852     4.7144    -4.1671 H       
 133 H133          -4.1989     3.7353    -2.9057 H       
 134 H134          -7.1260     2.7472    -4.8434 H       
 135 H135          -7.8237     3.1603    -0.6646 H       
 136 H136          -9.8098     1.0134    -0.7085 H       
 137 H137          -9.6790     3.6709     0.7840 H       
 138 H138         -10.9777     2.4693     0.9792 H       
 139 H139          -8.6376     1.5582     3.6233 H       
 140 H140         -12.2855     2.0769    -0.7588 H       
 141 H141         -12.4487     4.2140    -2.7422 H       
 142 H142         -13.3807     1.3694    -3.3326 H       
 143 H143         -13.8058     2.7952    -4.3097 H       
 144 H144         -11.4001     3.2242    -4.7304 H       
 145 H145         -10.9750     1.7984    -3.7533 H       
 146 H146         -12.2478     0.3503    -5.3125 H       
 147 H147         -12.6729     1.7760    -6.2897 H       
 148 H148          -9.8622     1.6811    -6.0297 H       
 149 H149          -9.3993    -0.1815    -8.9488 H       
 150 H150         -12.5375    -0.1135    -7.4844 H       
 151 H151         -11.6465    -0.7285    -8.7692 H       
 152 H152         -15.0712     4.3366    -3.3504 H       
 153 H153         -16.6952     3.4474    -1.0922 H       
 154 H154         -16.1645     6.3988    -1.6545 H       
 155 H155         -17.4416     5.7898    -0.5746 H       
 156 H156         -14.4692     5.1788    -0.2583 H       
 157 H157         -16.2766     7.1122     1.2623 H       
 158 H158         -14.5838     6.7385     1.6660 H       
 159 H159         -14.9720     7.5736     0.1428 H       
 160 H160         -16.0017     3.4514     0.6451 H       
 161 H161         -15.1852     4.3312     1.9593 H       
 162 H162         -16.8780     4.7049     1.5556 H       
 163 H163         -19.0817     4.6299    -1.5032 H       
 164 H164         -19.5287     5.0856    -4.3528 H       
 165 H165         -20.6879     2.6735    -2.8875 H       
 166 H166         -21.2287     3.2405    -4.4858 H       
 167 H167         -18.9335     2.9317    -5.3719 H       
 168 H168         -18.3927     2.3646    -3.7737 H       
 169 H169         -20.0099     0.4886    -3.8921 H       
 170 H170         -20.5506     1.0556    -5.4903 H       
 171 H171         -17.7505     0.6970    -5.5739 H       
 172 H172         -20.0794    -2.5349    -5.9324 H       
 173 H173         -16.9074    -1.2967    -6.5664 H       
 174 H174         -17.8970    -2.6467    -6.7106 H       
 175 H175         -22.2109     5.2215    -4.5757 H       
 176 H176         -23.4041     6.1818    -2.0893 H       
 177 H177         -22.8573     8.0307    -4.4539 H       
 178 H178         -23.9268     8.4273    -3.0875 H       
 179 H179         -22.0295     8.1353    -1.5178 H       
 180 H180         -20.9601     7.7387    -2.8843 H       
 181 H181         -21.3947     9.9710    -3.8724 H       
 182 H182         -22.4641    10.3677    -2.5059 H       
 183 H183         -20.5669    10.0756    -0.9363 H       
 184 H184         -19.4974     9.6790    -2.3027 H       
 185 H185         -20.9561    12.2231    -2.0057 H       
 186 H186         -19.3380    12.0009    -1.6926 H       
 187 H187         -25.7678     7.2202    -2.8621 H       
 188 H188         -26.7389     5.8894    -5.2732 H       
 189 H189         -27.7010     5.1121    -2.4842 H       
 190 H190         -28.5155     4.6522    -3.9985 H       
 191 H191         -27.4006     2.7350    -5.4328 H       
 192 H192         -25.4724     1.1205    -5.0286 H       
 193 H193         -23.3136     0.8134    -3.1568 H       
 194 H194         -22.3554     1.8971    -1.1741 H       
 195 H195         -23.3668     3.9406    -0.2555 H       
 196 H196         -25.3441     4.9235    -1.3034 H       
 197 H197         -29.4041     6.2822    -5.2031 H       
 198 H198         -29.7221     9.0885    -5.2065 H       
 199 H199         -30.3699     8.4525    -3.6754 H       
 200 H200         -32.3780     9.5355    -5.1099 H       
 201 H201         -33.4229     7.6075    -7.0382 H       
 202 H202         -34.7515     8.0901    -4.3344 H       
 203 H203         -35.5240     7.2587    -5.7056 H       
 204 H204         -32.9059     7.0620    -3.1380 H       
 205 H205         -31.8040     4.9593    -2.4840 H       
 206 H206         -32.1791     2.9118    -3.7994 H       
 207 H207         -33.6566     2.9668    -5.7684 H       
 208 H208         -34.7651     5.0676    -6.4175 H       
 209 H209         -35.9333     8.4631    -7.5166 H       
 210 H210         -35.5391    11.2876    -8.1445 H       
 211 H211         -36.5368     9.6765    -9.7940 H       
 212 H212         -38.4635    11.8574    -8.8774 H       
 213 H213         -37.0050    12.1440    -9.8566 H       
 214 H214         -39.0192    11.9644   -11.2916 H       
 215 H215         -37.8857    10.6298   -11.6117 H       
 216 H216         -39.3442    10.3432   -10.6325 H       
 217 H217         -38.8542     9.6815    -7.8074 H       
 218 H218         -38.8720     8.9306    -9.4212 H       
 219 H219         -37.7899     8.2983    -8.1572 H       
 220 H220         -38.4046    12.5083    -6.2084 H       
 221 H221          15.6989    -6.1940   -18.4677 H       
 222 H222          15.6916    -4.5254   -19.0876 H       
 223 H223          17.1553    -5.1819   -18.3162 H       
 224 H224          15.9482    -5.3338   -16.1555 H       
 225 H225          15.9410    -3.6653   -16.7753 H       
 226 H226          13.6709    -4.0214   -17.7074 H       
 227 H227          13.6782    -5.6900   -17.0875 H       
 228 H228          13.9275    -4.8298   -14.7752 H       
 229 H229          13.9203    -3.1613   -15.3951 H       
 230 H230          11.6502    -3.5175   -16.3271 H       
 231 H231          11.6575    -5.1860   -15.7072 H       
 232 H232          11.9068    -4.3259   -13.3950 H       
 233 H233          11.8995    -2.6573   -14.0148 H       
 234 H234           9.6295    -3.0135   -14.9469 H       
 235 H235           9.6368    -4.6820   -14.3270 H       
 236 H236           9.8861    -3.8219   -12.0147 H       
 237 H237           9.8788    -2.1534   -12.6346 H       
 238 H238           7.6088    -2.5095   -13.5666 H       
 239 H239           7.6160    -4.1780   -12.9467 H       
 240 H240           7.8654    -3.3179   -10.6344 H       
 241 H241           7.8581    -1.6494   -11.2543 H       
 242 H242           5.5881    -2.0055   -12.1864 H       
 243 H243           5.5953    -3.6740   -11.5665 H       
 244 H244           5.8447    -2.8139    -9.2542 H       
 245 H245           5.8374    -1.1454    -9.8741 H       
 246 H246           3.5673    -1.5015   -10.8061 H       
 247 H247           3.5746    -3.1700   -10.1862 H       
 248 H248           3.8239    -2.3099    -7.8739 H       
 249 H249           3.8167    -0.6414    -8.4938 H       
 250 H250           1.5539    -2.6661    -8.8060 H       
 251 H251           1.5466    -0.9975    -9.4258 H       
@<TRIPOS>BOND
   1    1    2 2
   2    1    4 1
   3    1    7 am
   4    3    4 1
   5    3  103 am
   6    3  120 1
   7    4  121 1
   8    4  122 1
   9    5    6 2
  10    5    8 1
  11    5   13 am
  12    7    8 1
  13    7  123 1
  14    8    9 1
  15    8  124 1
  16    9   10 1
  17    9  125 1
  18    9  126 1
  19   10  127 1
  20   11   12 2
  21   11   14 1
  22   11   20 am
  23   13   14 1
  24   13  128 1
  25   14   15 1
  26   14  129 1
  27   15   16 1
  28   15   17 1
  29   15  130 1
  30   16  131 1
  31   16  132 1
  32   16  133 1
  33   17  134 1
  34   18   19 2
  35   18   21 1
  36   18   28 am
  37   20   21 1
  38   20  135 1
  39   21   22 1
  40   21  136 1
  41   22   23 1
  42   22  137 1
  43   22  138 1
  44   23   24 2
  45   23   25 1
  46   25  139 1
  47   26   27 2
  48   26   29 1
  49   26   39 am
  50   28   29 1
  51   28  140 1
  52   29   30 1
  53   29  141 1
  54   30   31 1
  55   30  142 1
  56   30  143 1
  57   31   32 1
  58   31  144 1
  59   31  145 1
  60   32   33 1
  61   32  146 1
  62   32  147 1
  63   33   34 1
  64   33  148 1
  65   34   35 2
  66   34   36 1
  67   35  149 1
  68   36  150 1
  69   36  151 1
  70   37   38 2
  71   37   40 1
  72   37   47 am
  73   39   40 1
  74   39  152 1
  75   40   41 1
  76   40  153 1
  77   41   42 1
  78   41  154 1
  79   41  155 1
  80   42   43 1
  81   42   44 1
  82   42  156 1
  83   43  157 1
  84   43  158 1
  85   43  159 1
  86   44  160 1
  87   44  161 1
  88   44  162 1
  89   45   46 2
  90   45   48 1
  91   45   58 am
  92   47   48 1
  93   47  163 1
  94   48   49 1
  95   48  164 1
  96   49   50 1
  97   49  165 1
  98   49  166 1
  99   50   51 1
 100   50  167 1
 101   50  168 1
 102   51   52 1
 103   51  169 1
 104   51  170 1
 105   52   53 1
 106   52  171 1
 107   53   54 2
 108   53   55 1
 109   54  172 1
 110   55  173 1
 111   55  174 1
 112   56   57 2
 113   56   59 1
 114   56   67 am
 115   58   59 1
 116   58  175 1
 117   59   60 1
 118   59  176 1
 119   60   61 1
 120   60  177 1
 121   60  178 1
 122   61   62 1
 123   61  179 1
 124   61  180 1
 125   62   63 1
 126   62  181 1
 127   62  182 1
 128   63   64 1
 129   63  183 1
 130   63  184 1
 131   64  185 1
 132   64  186 1
 133   65   66 2
 134   65   68 1
 135   65   81 am
 136   67   68 1
 137   67  187 1
 138   68   69 1
 139   68  188 1
 140   69   70 1
 141   69  189 1
 142   69  190 1
 143   70   71 2
 144   70   78 1
 145   71   72 1
 146   71  191 1
 147   72   73 1
 148   72  192 1
 149   73   74 ar
 150   73   78 ar
 151   74   75 ar
 152   74  193 1
 153   75   76 ar
 154   75  194 1
 155   76   77 ar
 156   76  195 1
 157   77   78 ar
 158   77  196 1
 159   79   80 2
 160   79   82 1
 161   79   85 am
 162   81   82 1
 163   81  197 1
 164   82  198 1
 165   82  199 1
 166   83   84 2
 167   83   86 1
 168   83   96 am
 169   85   86 1
 170   85  200 1
 171   86   87 1
 172   86  201 1
 173   87   88 1
 174   87  202 1
 175   87  203 1
 176   88   89 ar
 177   88   93 ar
 178   89   90 ar
 179   89  204 1
 180   90   91 ar
 181   90  205 1
 182   91   92 ar
 183   91  206 1
 184   92   93 ar
 185   92  207 1
 186   93  208 1
 187   94   95 2
 188   94   97 1
 189   94  102 1
 190   96   97 1
 191   96  209 1
 192   97   98 1
 193   97  210 1
 194   98   99 1
 195   98  101 1
 196   98  211 1
 197   99  100 1
 198   99  212 1
 199   99  213 1
 200  100  214 1
 201  100  215 1
 202  100  216 1
 203  101  217 1
 204  101  218 1
 205  101  219 1
 206  102  220 1
 207  103  104 2
 208  103  119 1
 209  105  106 1
 210  105  221 1
 211  105  222 1
 212  105  223 1
 213  106  107 1
 214  106  224 1
 215  106  225 1
 216  107  108 1
 217  107  226 1
 218  107  227 1
 219  108  109 1
 220  108  228 1
 221  108  229 1
 222  109  110 1
 223  109  230 1
 224  109  231 1
 225  110  111 1
 226  110  232 1
 227  110  233 1
 228  111  112 1
 229  111  234 1
 230  111  235 1
 231  112  113 1
 232  112  236 1
 233  112  237 1
 234  113  114 1
 235  113  238 1
 236  113  239 1
 237  114  115 1
 238  114  240 1
 239  114  241 1
 240  115  116 1
 241  115  242 1
 242  115  243 1
 243  116  117 1
 244  116  244 1
 245  116  245 1
 246  117  118 1
 247  117  246 1
 248  117  247 1
 249  118  119 1
 250  118  248 1
 251  118  249 1
 252  119  250 1
 253  119  251 1

#	End of record

