#	Name: ASD01917831
#	Creating user name:	WinNT
#	Creation time:	15. 06. 2019 20:10

#	Modifying user name:	WinNT
#	Modification time:	15. 06. 2019 20:10

#	Program:	/corina/corina34_cracker 3.40 0067  02.08.2006

@<TRIPOS>MOLECULE
ASD01917831
  50   53    0    0    0
SMALL
NO_CHARGES


@<TRIPOS>ATOM
   1 C1             0.0236     1.2348    -0.1582 C.2     
   2 C2            -0.0102    -0.1115    -0.1325 C.2     
   3 C3            -1.2709    -0.9336    -0.0452 C.3     
   4 C4            -2.4122    -0.0387     0.4540 C.3     
   5 N5            -2.3758     1.2394    -0.2726 N.am    
   6 C6            -1.2017     2.1126    -0.0926 C.3     
   7 C7            -3.3897     1.6029    -1.0828 C.2     
   8 O8            -4.2897     0.8211    -1.3180 O.2     
   9 O9             1.3086     1.6031    -0.2436 O.3     
  10 C10            2.0494     0.4838    -0.2661 C.2     
  11 N11            1.2544    -0.5489    -0.1987 N.2     
  12 C12            3.5528     0.4288    -0.3550 C.3     
  13 O13            3.9475     0.3857    -1.7277 O.3     
  14 C14            5.2809     0.3331    -1.9850 C.ar    
  15 C15            5.7345     0.2893    -3.2953 C.ar    
  16 C16            7.0905     0.2359    -3.5541 C.ar    
  17 C17            7.9952     0.2261    -2.5086 C.ar    
  18 C18            7.5456     0.2693    -1.2018 C.ar    
  19 C19            6.1909     0.3290    -0.9378 C.ar    
  20 C20           -3.4069     2.9560    -1.6866 C.ar    
  21 C21           -4.3642     3.2705    -2.6441 C.ar    
  22 C22           -4.3664     4.5487    -3.2025 C.ar    
  23 C23           -3.4030     5.4598    -2.7732 C.ar    
  24 C24           -2.4840     5.0710    -1.8160 C.ar    
  25 N25           -2.5107     3.8589    -1.3037 N.ar    
  26 N26           -5.3069     4.9053    -4.1646 N.pl3   
  27 C27           -6.3112     3.9329    -4.6029 C.3     
  28 C28           -5.2926     6.2529    -4.7390 C.3     
  29 H29           -1.5196    -1.3267    -1.0310 H       
  30 H30           -1.1217    -1.7581     0.6519 H       
  31 H31           -3.3673    -0.5324     0.2751 H       
  32 H32           -2.2904     0.1455     1.5214 H       
  33 H33           -1.2522     2.6067     0.8777 H       
  34 H34           -1.1679     2.8573    -0.8878 H       
  35 H35            3.9773     1.3146     0.1175 H       
  36 H36            3.9145    -0.4639     0.1553 H       
  37 H37            5.0282     0.2965    -4.1123 H       
  38 H38            7.4441     0.2013    -4.5740 H       
  39 H39            9.0548     0.1843    -2.7130 H       
  40 H40            8.2542     0.2608    -0.3868 H       
  41 H41            5.8402     0.3627     0.0831 H       
  42 H42           -5.0945     2.5365    -2.9512 H       
  43 H43           -3.3744     6.4583    -3.1838 H       
  44 H44           -1.7357     5.7739    -1.4806 H       
  45 H45           -6.9130     3.6220    -3.7489 H       
  46 H46           -6.9554     4.3895    -5.3544 H       
  47 H47           -5.8125     3.0636    -5.0316 H       
  48 H48           -4.6536     6.2648    -5.6220 H       
  49 H49           -6.3061     6.5389    -5.0200 H       
  50 H50           -4.9073     6.9578    -4.0022 H       
@<TRIPOS>BOND
   1    1    2 2
   2    1    9 1
   3    1    6 1
   4    2    3 1
   5    2   11 1
   6    3    4 1
   7    3   29 1
   8    3   30 1
   9    4    5 1
  10    4   31 1
  11    4   32 1
  12    5    6 1
  13    5    7 am
  14    6   33 1
  15    6   34 1
  16    7    8 2
  17    7   20 1
  18    9   10 1
  19   10   11 2
  20   10   12 1
  21   12   13 1
  22   12   35 1
  23   12   36 1
  24   13   14 1
  25   14   15 ar
  26   14   19 ar
  27   15   16 ar
  28   15   37 1
  29   16   17 ar
  30   16   38 1
  31   17   18 ar
  32   17   39 1
  33   18   19 ar
  34   18   40 1
  35   19   41 1
  36   20   21 ar
  37   20   25 ar
  38   21   22 ar
  39   21   42 1
  40   22   23 ar
  41   22   26 1
  42   23   24 ar
  43   23   43 1
  44   24   25 ar
  45   24   44 1
  46   26   27 1
  47   26   28 1
  48   27   45 1
  49   27   46 1
  50   27   47 1
  51   28   48 1
  52   28   49 1
  53   28   50 1

#	End of record

