#	Name: ASD01810577
#	Creating user name:	WinNT
#	Creation time:	15. 06. 2019 19:24

#	Modifying user name:	WinNT
#	Modification time:	15. 06. 2019 19:24

#	Program:	/corina/corina34_cracker 3.40 0067  02.08.2006

@<TRIPOS>MOLECULE
ASD01810577
  38   41    0    0    0
SMALL
NO_CHARGES


@<TRIPOS>ATOM
   1 C1            -0.0167     1.3812     0.0096 C.ar    
   2 C2             0.0021    -0.0041     0.0020 C.ar    
   3 C3             1.1984    -0.6908    -0.0131 C.ar    
   4 C4             2.4015     0.0061    -0.0204 C.ar    
   5 C5             2.3789     1.4106    -0.0127 C.ar    
   6 C6             1.1664     2.0916     0.0022 C.ar    
   7 N7             3.6054    -0.6770    -0.0347 N.pl3   
   8 C8             4.7971    -0.0584    -0.0423 C.2     
   9 C9             4.9001     1.3105    -0.0364 C.2     
  10 C10            3.6673     2.1304    -0.0207 C.2     
  11 C11            5.9972     2.2731    -0.0422 C.2     
  12 N12            5.4244     3.4961    -0.0313 N.am    
  13 N13            4.0322     3.3795    -0.0185 N.2     
  14 C14            6.1581     4.7641    -0.0316 C.3     
  15 C15            5.7784     5.5728    -1.2737 C.3     
  16 O16            7.1917     2.0232    -0.0541 O.2     
  17 C17            6.5448     6.8970    -1.2741 C.3     
  18 C18            6.1869     7.6937    -0.0178 C.3     
  19 C19            6.5666     6.8850     1.2243 C.3     
  20 C20            5.8003     5.5608     1.2246 C.3     
  21 O21            6.1127     4.8287    -2.4471 O.3     
  22 H22           -0.9602     1.9068     0.0170 H       
  23 H23           -0.9288    -0.5516     0.0083 H       
  24 H24            1.2005    -1.7708    -0.0189 H       
  25 H25            1.1508     3.1714     0.0084 H       
  26 H26            3.5873    -1.6468    -0.0391 H       
  27 H27            5.6984    -0.6535    -0.0530 H       
  28 H28            7.2295     4.5639    -0.0420 H       
  29 H29            4.7070     5.7730    -1.2634 H       
  30 H30            7.6162     6.6968    -1.2844 H       
  31 H31            6.2742     7.4731    -2.1589 H       
  32 H32            6.7328     8.6371    -0.0180 H       
  33 H33            5.1155     7.8939    -0.0075 H       
  34 H34            7.6380     6.6848     1.2140 H       
  35 H35            6.3116     7.4526     2.1193 H       
  36 H36            4.7289     5.7610     1.2350 H       
  37 H37            6.0708     4.9847     2.1095 H       
  38 H38            5.8991     5.2818    -3.2742 H       
@<TRIPOS>BOND
   1    1    2 ar
   2    1    6 ar
   3    1   22 1
   4    2    3 ar
   5    2   23 1
   6    3    4 ar
   7    3   24 1
   8    4    5 ar
   9    4    7 1
  10    5    6 ar
  11    5   10 1
  12    6   25 1
  13    7    8 1
  14    7   26 1
  15    8    9 2
  16    8   27 1
  17    9   10 1
  18    9   11 1
  19   10   13 2
  20   11   12 am
  21   11   16 2
  22   12   13 1
  23   12   14 1
  24   14   15 1
  25   14   20 1
  26   14   28 1
  27   15   17 1
  28   15   21 1
  29   15   29 1
  30   17   18 1
  31   17   30 1
  32   17   31 1
  33   18   19 1
  34   18   32 1
  35   18   33 1
  36   19   20 1
  37   19   34 1
  38   19   35 1
  39   20   36 1
  40   20   37 1
  41   21   38 1

#	End of record

