#	Name: ASD09116228
#	Creating user name:	WinNT
#	Creation time:	15. 06. 2019 21:21

#	Modifying user name:	WinNT
#	Modification time:	15. 06. 2019 21:21

#	Program:	/corina/corina34_cracker 3.40 0067  02.08.2006

@<TRIPOS>MOLECULE
ASD09116228
  67   72    0    0    0
SMALL
NO_CHARGES


@<TRIPOS>ATOM
   1 N1            -0.0297     1.4183     0.1452 N.2     
   2 N2            -0.0209     0.0194     0.2663 N.pl3   
   3 C3             1.2223     1.8078     0.1159 C.2     
   4 N4             2.0154     0.7342     0.2116 N.2     
   5 C5             1.2801    -0.3531     0.3032 C.2     
   6 N6             1.6572     3.1285     0.0026 N.pl3   
   7 C7             3.0192     3.4261     0.0967 C.ar    
   8 C8             3.5409     4.5215    -0.5800 C.ar    
   9 C9             5.7164     4.0154     0.2830 C.ar    
  10 C10            5.1993     2.9276     0.9626 C.ar    
  11 C11            3.8537     2.6306     0.8718 C.ar    
  12 C12           -1.1336    -0.8210     0.3358 C.ar    
  13 N13           -1.0321    -2.0870    -0.0404 N.ar    
  14 N14           -2.0277    -2.8994    -0.0051 N.ar    
  15 C15           -3.2231    -2.5141     0.4119 C.ar    
  16 C16           -3.4196    -1.2009     0.8489 C.ar    
  17 C17           -2.3529    -0.3281     0.8077 C.ar    
  18 C18           -4.3849    -3.4330     0.4025 C.ar    
  19 C19           -5.5818    -3.0014    -0.1713 C.ar    
  20 C20           -5.6446    -1.6420    -0.8122 C.3     
  21 C21           -5.7428    -0.5365     0.2355 C.3     
  22 C22           -4.7613    -0.7850     1.3777 C.3     
  23 C23           -4.2981    -4.7053     0.9567 C.ar    
  24 C24           -5.4065    -5.5299     0.9527 C.ar    
  25 C25           -6.5966    -5.0906     0.4018 C.ar    
  26 C26           -6.6847    -3.8279    -0.1585 C.ar    
  27 N27            1.7524    -1.6468     0.4173 N.pl3   
  28 C28            4.8875     4.8127    -0.4848 C.ar    
  29 C29            7.1852     4.3366     0.3849 C.3     
  30 C30            9.3051     4.1042    -0.7628 C.3     
  31 N31            7.9148     3.6352    -0.6798 N.3     
  32 C32           10.0508     3.2957    -1.8270 C.3     
  33 N33            9.3691     3.4465    -3.1201 N.3     
  34 C34            7.9789     2.9774    -3.0371 C.3     
  35 C35            7.2331     3.7860    -1.9729 C.3     
  36 C36           10.0987     2.7451    -4.1848 C.3     
  37 H37            1.0141     3.8402    -0.1415 H       
  38 H38            2.8942     5.1444    -1.1802 H       
  39 H39            5.8487     2.3093     1.5647 H       
  40 H40            3.4505     1.7811     1.4031 H       
  41 H41           -2.4579     0.7000     1.1213 H       
  42 H42           -4.7464    -1.4879    -1.4101 H       
  43 H43           -6.5175    -1.5948    -1.4632 H       
  44 H44           -5.5148     0.4217    -0.2315 H       
  45 H45           -6.7571    -0.5085     0.6337 H       
  46 H46           -5.1527    -1.5727     2.0216 H       
  47 H47           -4.6494     0.1299     1.9595 H       
  48 H48           -3.3688    -5.0473     1.3878 H       
  49 H49           -5.3435    -6.5196     1.3803 H       
  50 H50           -7.4622    -5.7364     0.4088 H       
  51 H51           -7.6173    -3.4907    -0.5863 H       
  52 H52            2.7076    -1.8145     0.4352 H       
  53 H53            1.1287    -2.3871     0.4795 H       
  54 H54            5.2938     5.6639    -1.0110 H       
  55 H55            7.3304     5.4115     0.2775 H       
  56 H56            7.5611     4.0144     1.3560 H       
  57 H57            9.3171     5.1600    -1.0336 H       
  58 H58            9.7922     3.9706     0.2031 H       
  59 H59           11.0742     3.6613    -1.9106 H       
  60 H60           10.0623     2.2435    -1.5425 H       
  61 H61            7.4917     3.1110    -4.0030 H       
  62 H62            7.9668     1.9216    -2.7664 H       
  63 H63            6.2097     3.4203    -1.8893 H       
  64 H64            7.2216     4.8381    -2.2574 H       
  65 H65           10.1610     1.6838    -3.9443 H       
  66 H66            9.5726     2.8729    -5.1309 H       
  67 H67           11.1039     3.1581    -4.2694 H       
@<TRIPOS>BOND
   1    1    2 1
   2    1    3 2
   3    2   12 1
   4    2    5 1
   5    3    4 1
   6    3    6 1
   7    4    5 2
   8    5   27 1
   9    6    7 1
  10    6   37 1
  11    7    8 ar
  12    7   11 ar
  13    8   28 ar
  14    8   38 1
  15    9   10 ar
  16    9   29 1
  17    9   28 ar
  18   10   11 ar
  19   10   39 1
  20   11   40 1
  21   12   13 ar
  22   12   17 ar
  23   13   14 ar
  24   14   15 ar
  25   15   16 ar
  26   15   18 1
  27   16   17 ar
  28   16   22 1
  29   17   41 1
  30   18   19 ar
  31   18   23 ar
  32   19   20 1
  33   19   26 ar
  34   20   21 1
  35   20   42 1
  36   20   43 1
  37   21   22 1
  38   21   44 1
  39   21   45 1
  40   22   46 1
  41   22   47 1
  42   23   24 ar
  43   23   48 1
  44   24   25 ar
  45   24   49 1
  46   25   26 ar
  47   25   50 1
  48   26   51 1
  49   27   52 1
  50   27   53 1
  51   28   54 1
  52   29   31 1
  53   29   55 1
  54   29   56 1
  55   30   31 1
  56   30   32 1
  57   30   57 1
  58   30   58 1
  59   31   35 1
  60   32   33 1
  61   32   59 1
  62   32   60 1
  63   33   34 1
  64   33   36 1
  65   34   35 1
  66   34   61 1
  67   34   62 1
  68   35   63 1
  69   35   64 1
  70   36   65 1
  71   36   66 1
  72   36   67 1

#	End of record

