#	Name: ASD01917815
#	Creating user name:	WinNT
#	Creation time:	15. 06. 2019 20:10

#	Modifying user name:	WinNT
#	Modification time:	15. 06. 2019 20:10

#	Program:	/corina/corina34_cracker 3.40 0067  02.08.2006

@<TRIPOS>MOLECULE
ASD01917815
  42   45    0    0    0
SMALL
NO_CHARGES


@<TRIPOS>ATOM
   1 C1            -0.0148     1.3210    -0.0003 C.2     
   2 C2            -0.0104    -0.0258     0.0085 C.2     
   3 C3            -1.2493    -0.8848     0.0262 C.3     
   4 C4            -2.4386    -0.0293     0.4804 C.3     
   5 N5            -2.4052     1.2584    -0.2292 N.am    
   6 C6            -1.2670     2.1625     0.0165 C.3     
   7 C7            -3.3897     1.6029    -1.0828 C.2     
   8 O8            -4.2635     0.8037    -1.3572 O.2     
   9 O9             1.2615     1.7270    -0.0202 O.3     
  10 C10            2.0349     0.6298    -0.0198 C.2     
  11 N11            1.2681    -0.4260    -0.0021 N.2     
  12 C12            3.5418     0.6190    -0.0374 C.3     
  13 O13            4.0022     0.6046    -1.3901 O.3     
  14 C14            5.3473     0.5935    -1.5839 C.ar    
  15 C15            5.8633     0.5792    -2.8716 C.ar    
  16 C16            7.2311     0.5679    -3.0675 C.ar    
  17 C17            8.0864     0.5708    -1.9819 C.ar    
  18 C18            7.5747     0.5846    -0.6948 C.ar    
  19 C19            6.2059     0.6022    -0.4946 C.ar    
  20 C20           -3.4069     2.9530    -1.6852 C.ar    
  21 F21            8.4124     0.5865     0.3652 F       
  22 C22           -2.9670     4.0632    -0.9554 C.ar    
  23 C23           -3.0037     5.3069    -1.5664 C.ar    
  24 C24           -3.4701     5.4087    -2.8669 C.ar    
  25 N25           -3.8784     4.3429    -3.5287 N.ar    
  26 C26           -3.8566     3.1404    -2.9930 C.ar    
  27 F27           -2.5897     6.4074    -0.9011 F       
  28 H28           -1.4394    -1.2723    -0.9747 H       
  29 H29           -1.1093    -1.7134     0.7203 H       
  30 H30           -3.3694    -0.5479     0.2505 H       
  31 H31           -2.3731     0.1448     1.5544 H       
  32 H32           -1.3778     2.6427     0.9887 H       
  33 H33           -1.2172     2.9179    -0.7678 H       
  34 H34            3.9174     1.5105     0.4647 H       
  35 H35            3.9048    -0.2693     0.4795 H       
  36 H36            5.1961     0.5766    -3.7208 H       
  37 H37            7.6323     0.5564    -4.0702 H       
  38 H38            9.1551     0.5620    -2.1373 H       
  39 H39            5.8063     0.6133     0.5087 H       
  40 H40           -2.6087     3.9539     0.0575 H       
  41 H41           -3.5002     6.3759    -3.3465 H       
  42 H42           -4.1992     2.2925    -3.5675 H       
@<TRIPOS>BOND
   1    1    2 2
   2    1    9 1
   3    1    6 1
   4    2    3 1
   5    2   11 1
   6    3    4 1
   7    3   28 1
   8    3   29 1
   9    4    5 1
  10    4   30 1
  11    4   31 1
  12    5    6 1
  13    5    7 am
  14    6   32 1
  15    6   33 1
  16    7    8 2
  17    7   20 1
  18    9   10 1
  19   10   11 2
  20   10   12 1
  21   12   13 1
  22   12   34 1
  23   12   35 1
  24   13   14 1
  25   14   15 ar
  26   14   19 ar
  27   15   16 ar
  28   15   36 1
  29   16   17 ar
  30   16   37 1
  31   17   18 ar
  32   17   38 1
  33   18   19 ar
  34   18   21 1
  35   19   39 1
  36   20   22 ar
  37   20   26 ar
  38   22   23 ar
  39   22   40 1
  40   23   24 ar
  41   23   27 1
  42   24   25 ar
  43   24   41 1
  44   25   26 ar
  45   26   42 1

#	End of record

