#	Name: ASD01913884
#	Creating user name:	WinNT
#	Creation time:	15. 06. 2019 20:02

#	Modifying user name:	WinNT
#	Modification time:	15. 06. 2019 20:02

#	Program:	/corina/corina34_cracker 3.40 0067  02.08.2006

@<TRIPOS>MOLECULE
ASD01913884
  42   44    0    0    0
SMALL
NO_CHARGES


@<TRIPOS>ATOM
   1 C1            -0.0173     1.4278     0.0109 C.ar    
   2 C2             0.0021    -0.0041     0.0027 C.1     
   3 C3             0.0180    -1.1779    -0.0040 C.1     
   4 C4             0.0374    -2.6098    -0.0122 C.ar    
   5 C5            -1.1618    -3.3381    -0.0105 C.ar    
   6 C6             0.1586    -5.3356    -0.0280 C.ar    
   7 N7             1.2718    -4.6188    -0.0352 N.ar    
   8 C8             1.2500    -3.3019    -0.0277 C.ar    
   9 C9            -1.0909    -4.7183    -0.0186 C.ar    
  10 C10            1.1817     2.1457     0.0092 C.ar    
  11 C11            1.1564     3.5242     0.0166 C.ar    
  12 C12           -1.2354     2.1129     0.0147 C.ar    
  13 C13           -0.0549     4.1980     0.0257 C.ar    
  14 C14           -1.2475     3.4916     0.0221 C.ar    
  15 N15            0.2374    -6.7273    -0.0370 N.am    
  16 C16            1.3662    -7.4400    -0.1468 C.2     
  17 N17            1.1752    -8.7657    -0.1296 N.am    
  18 C18           -0.2619    -9.0450     0.0090 C.3     
  19 C19           -0.9048    -7.6462     0.0790 C.3     
  20 C20            2.2303    -9.7768    -0.2326 C.3     
  21 O21            2.4647    -6.9299    -0.2528 O.2     
  22 F22           -0.0732     5.5488     0.0334 F       
  23 F23           -2.2198    -5.4605    -0.0169 F       
  24 C24           -0.7782    -9.8189    -1.2056 C.3     
  25 C25           -0.5362    -9.8214     1.2986 C.3     
  26 H26           -2.1162    -2.8328    -0.0028 H       
  27 H27            2.1795    -2.7518    -0.0339 H       
  28 H28            2.1261     1.6219     0.0025 H       
  29 H29            2.0823     4.0802     0.0157 H       
  30 H30           -2.1653     1.5636     0.0116 H       
  31 H31           -2.1881     4.0222     0.0289 H       
  32 H32           -1.4189    -7.5085     1.0302 H       
  33 H33           -1.5928    -7.4992    -0.7536 H       
  34 H34            3.1981    -9.2839    -0.3252 H       
  35 H35            2.2243   -10.4005     0.6613 H       
  36 H36            2.0536   -10.3982    -1.1104 H       
  37 H37           -0.2591   -10.7749    -1.2748 H       
  38 H38           -1.8486    -9.9938    -1.0968 H       
  39 H39           -0.5948    -9.2395    -2.1104 H       
  40 H40           -0.1827    -9.2437     2.1527 H       
  41 H41           -1.6076    -9.9962     1.3965 H       
  42 H42           -0.0136   -10.7773     1.2652 H       
@<TRIPOS>BOND
   1    1    2 1
   2    1   10 ar
   3    1   12 ar
   4    2    3 3
   5    3    4 1
   6    4    5 ar
   7    4    8 ar
   8    5    9 ar
   9    5   26 1
  10    6    7 ar
  11    6   15 1
  12    6    9 ar
  13    7    8 ar
  14    8   27 1
  15    9   23 1
  16   10   11 ar
  17   10   28 1
  18   11   13 ar
  19   11   29 1
  20   12   14 ar
  21   12   30 1
  22   13   14 ar
  23   13   22 1
  24   14   31 1
  25   15   16 am
  26   15   19 1
  27   16   17 am
  28   16   21 2
  29   17   18 1
  30   17   20 1
  31   18   19 1
  32   18   24 1
  33   18   25 1
  34   19   32 1
  35   19   33 1
  36   20   34 1
  37   20   35 1
  38   20   36 1
  39   24   37 1
  40   24   38 1
  41   24   39 1
  42   25   40 1
  43   25   41 1
  44   25   42 1

#	End of record

