#	Name: ASD01420104
#	Creating user name:	WinNT
#	Creation time:	15. 06. 2019 19:20

#	Modifying user name:	WinNT
#	Modification time:	15. 06. 2019 19:20

#	Program:	/corina/corina34_cracker 3.40 0067  02.08.2006

@<TRIPOS>MOLECULE
ASD01420104
  68   70    0    0    0
SMALL
NO_CHARGES


@<TRIPOS>ATOM
   1 C1            -0.4689     0.4405    -3.9505 C.2     
   2 N2            -0.3979    -0.8191    -3.4763 N.am    
   3 O3             0.5491     1.0445    -4.2251 O.2     
   4 O4            -1.6679     1.0275    -4.1250 O.3     
   5 C5             0.9066    -1.4600    -3.2920 C.3     
   6 C6             0.7069    -2.8755    -2.7466 C.3     
   7 C7             2.0692    -3.5448    -2.5542 C.3     
   8 O8             1.8827    -4.8668    -2.0448 O.3     
   9 C9             6.3328    -8.1304    -1.0099 C.3     
  10 N10            5.6467    -9.3317    -0.5239 N.am    
  11 C11            4.2088    -9.0474    -0.5661 C.3     
  12 C12            4.0340    -7.6441    -1.0895 C.ar    
  13 C13            2.8946    -6.8943    -1.3219 C.ar    
  14 C14            3.0016    -5.6034    -1.8159 C.ar    
  15 C15            4.2537    -5.0654    -2.0766 C.ar    
  16 C16            5.3879    -5.8169    -1.8433 C.ar    
  17 C17            5.2793    -7.1063    -1.3497 C.ar    
  18 C18            6.2267   -10.4782    -0.1170 C.2     
  19 C19            7.6839   -10.6519    -0.2441 C.ar    
  20 C20            8.4203   -11.2184     0.8076 C.ar    
  21 C21            9.7891   -11.3784     0.6797 C.ar    
  22 C22           10.4289   -10.9797    -0.4848 C.ar    
  23 C23            9.7002   -10.4174    -1.5283 C.ar    
  24 C24            8.3382   -10.2584    -1.4154 C.ar    
  25 O25            5.5470   -11.3693     0.3552 O.2     
  26 C26           10.4044    -9.9864    -2.7890 C.3     
  27 C27            9.8354   -10.7591    -3.9807 C.3     
  28 C28           10.1915    -8.4868    -3.0049 C.3     
  29 O29           11.7712   -11.1382    -0.6066 O.3     
  30 O30            7.7929   -11.6073     1.9458 O.3     
  31 C31           -1.6684     2.3854    -4.6392 C.3     
  32 C32           -0.9943     2.4110    -6.0125 C.3     
  33 C33           -3.1101     2.8808    -4.7695 C.3     
  34 C34           -0.9014     3.2952    -3.6776 C.3     
  35 H35           -1.2104    -1.3013    -3.2570 H       
  36 H36            1.4256    -1.5093    -4.2493 H       
  37 H37            1.5004    -0.8791    -2.5863 H       
  38 H38            0.1878    -2.8261    -1.7894 H       
  39 H39            0.1131    -3.4564    -3.4524 H       
  40 H40            2.5882    -3.5941    -3.5114 H       
  41 H41            2.6630    -2.9639    -1.8484 H       
  42 H42            6.9900    -7.7404    -0.2327 H       
  43 H43            6.9141    -8.3716    -1.8998 H       
  44 H44            3.7119    -9.7541    -1.2307 H       
  45 H45            3.7877    -9.1229     0.4364 H       
  46 H46            1.9211    -7.3152    -1.1183 H       
  47 H47            4.3408    -4.0602    -2.4618 H       
  48 H48            6.3625    -5.3983    -2.0465 H       
  49 H49           10.3594   -11.8137     1.4870 H       
  50 H50            7.7754    -9.8260    -2.2295 H       
  51 H51           11.4709   -10.1926    -2.6981 H       
  52 H52           10.3448   -10.4474    -4.8925 H       
  53 H53            9.9871   -11.8275    -3.8268 H       
  54 H54            8.7689   -10.5530    -4.0716 H       
  55 H55           10.5968    -7.9363    -2.1560 H       
  56 H56           10.7008    -8.1751    -3.9168 H       
  57 H57            9.1250    -8.2806    -3.0959 H       
  58 H58           12.0341   -11.9878    -0.9864 H       
  59 H59            7.4845   -12.5237     1.9315 H       
  60 H60           -1.5408     1.7628    -6.6976 H       
  61 H61           -0.9948     3.4303    -6.3985 H       
  62 H62            0.0327     2.0580    -5.9197 H       
  63 H63           -3.5904     2.8626    -3.7911 H       
  64 H64           -3.1106     3.9002    -5.1555 H       
  65 H65           -3.6566     2.2326    -5.4546 H       
  66 H66            0.1257     2.9422    -3.5848 H       
  67 H67           -0.9018     4.3145    -4.0636 H       
  68 H68           -1.3817     3.2769    -2.6992 H       
@<TRIPOS>BOND
   1    1    2 am
   2    1    3 2
   3    1    4 1
   4    2    5 1
   5    2   35 1
   6    4   31 1
   7    5    6 1
   8    5   36 1
   9    5   37 1
  10    6    7 1
  11    6   38 1
  12    6   39 1
  13    7    8 1
  14    7   40 1
  15    7   41 1
  16    8   14 1
  17    9   10 1
  18    9   17 1
  19    9   42 1
  20    9   43 1
  21   10   11 1
  22   10   18 am
  23   11   12 1
  24   11   44 1
  25   11   45 1
  26   12   13 ar
  27   12   17 ar
  28   13   14 ar
  29   13   46 1
  30   14   15 ar
  31   15   16 ar
  32   15   47 1
  33   16   17 ar
  34   16   48 1
  35   18   19 1
  36   18   25 2
  37   19   20 ar
  38   19   24 ar
  39   20   21 ar
  40   20   30 1
  41   21   22 ar
  42   21   49 1
  43   22   23 ar
  44   22   29 1
  45   23   24 ar
  46   23   26 1
  47   24   50 1
  48   26   27 1
  49   26   28 1
  50   26   51 1
  51   27   52 1
  52   27   53 1
  53   27   54 1
  54   28   55 1
  55   28   56 1
  56   28   57 1
  57   29   58 1
  58   30   59 1
  59   31   32 1
  60   31   34 1
  61   31   33 1
  62   32   60 1
  63   32   61 1
  64   32   62 1
  65   33   63 1
  66   33   64 1
  67   33   65 1
  68   34   66 1
  69   34   67 1
  70   34   68 1

#	End of record

