#	Name: ASD06610046
#	Creating user name:	WinNT
#	Creation time:	15. 06. 2019 21:07

#	Modifying user name:	WinNT
#	Modification time:	15. 06. 2019 21:07

#	Program:	/corina/corina34_cracker 3.40 0067  02.08.2006

@<TRIPOS>MOLECULE
ASD06610046
 255  255    0    0    0
SMALL
NO_CHARGES


@<TRIPOS>ATOM
   1 C1            -0.0144     1.2086     0.0087 C.2     
   2 O2             0.0021    -0.0041     0.0020 O.2     
   3 N3             2.4066     1.0431    -0.0153 N.am    
   4 C4             1.2803     1.9798     0.0005 C.3     
   5 C5             1.3614     2.8537     1.2537 C.3     
   6 C6             2.5958     3.7155     1.1862 C.ar    
   7 C7             2.5347     4.9658     0.5996 C.ar    
   8 C8             3.6670     5.7563     0.5376 C.ar    
   9 C9             4.8603     5.2967     1.0626 C.ar    
  10 C10            4.9212     4.0469     1.6501 C.ar    
  11 C11            3.7879     3.2581     1.7159 C.ar    
  12 C12           -3.5426     1.9694    -0.5709 C.2     
  13 O13           -3.2948     3.0926    -0.9556 O.2     
  14 N14           -1.1906     1.8666     0.0178 N.am    
  15 C15           -2.4492     1.1169     0.0197 C.3     
  16 C16           -2.8163     0.7401     1.4565 C.3     
  17 C17           -1.7689    -0.2260     2.0138 C.3     
  18 C18           -2.1359    -0.6028     3.4505 C.3     
  19 N19           -1.1331    -1.5279     3.9841 N.pl3   
  20 C20           -1.2536    -2.0071     5.2671 C.2     
  21 N21           -0.3613    -2.8301     5.7418 N.2     
  22 N22           -2.3153    -1.6183     6.0492 N.pl3   
  23 C23           -7.1934     1.8552    -0.7166 C.2     
  24 O24           -7.2513     0.9284     0.0635 O.2     
  25 N25           -4.7957     1.4837    -0.6717 N.am    
  26 C26           -5.8586     2.3124    -1.2459 C.3     
  27 C27           -5.8417     2.1796    -2.7700 C.3     
  28 O28           -6.1700     0.8376    -3.1349 O.3     
  29 C29          -10.7041     2.4068    -1.5736 C.2     
  30 O30          -10.4202     2.9881    -2.5995 O.2     
  31 N31           -8.3230     2.4763    -1.1101 N.am    
  32 C32           -9.6207     2.0318    -0.5955 C.3     
  33 C33           -9.8934     2.7057     0.7507 C.3     
  34 O34          -10.0254     4.1157     0.5595 O.3     
  35 C35          -14.2155     1.5311    -2.0893 C.2     
  36 O36          -14.1762     0.6507    -1.2560 O.2     
  37 N37          -11.9884     2.0962    -1.3083 N.am    
  38 C38          -13.0416     2.4607    -2.2592 C.3     
  39 C39          -13.4891     3.9002    -1.9975 C.3     
  40 C40          -12.3306     4.8556    -2.2908 C.3     
  41 C41          -12.7780     6.2952    -2.0291 C.3     
  42 N42          -11.6688     7.2100    -2.3100 N.pl3   
  43 C43          -11.8363     8.5646    -2.1451 C.2     
  44 N44          -12.9821     9.0349    -1.7389 N.2     
  45 N45          -10.7953     9.4231    -2.4086 N.pl3   
  46 C46          -17.2316     0.7114    -3.9852 C.2     
  47 O47          -16.8708     1.3579    -4.9459 O.2     
  48 N48          -15.3090     1.6779    -2.8634 N.am    
  49 C49          -16.4501     0.7742    -2.6982 C.3     
  50 C50          -17.3536     1.2931    -1.5778 C.3     
  51 C51          -16.5990     1.2394    -0.2479 C.3     
  52 C52          -17.4890     1.7505     0.8556 C.2     
  53 O53          -18.6116     2.1198     0.6043 O.2     
  54 O54          -17.0345     1.7955     2.1178 O.3     
  55 C55          -20.5178    -0.5078    -5.0231 C.2     
  56 O56          -20.8659    -0.7102    -3.8791 O.2     
  57 N57          -18.3313    -0.0632    -4.0688 N.am    
  58 C58          -19.0910    -0.1242    -5.3199 C.3     
  59 C59          -18.4644    -1.1681    -6.2466 C.3     
  60 C60          -17.0590    -0.7158    -6.6480 C.3     
  61 C61          -16.4325    -1.7597    -7.5746 C.3     
  62 C62          -15.0271    -1.3074    -7.9760 C.3     
  63 N63          -14.4255    -2.3097    -8.8657 N.3     
  64 C64          -23.6905    -0.4876    -6.8387 C.2     
  65 O65          -23.2174     0.1275    -7.7707 O.2     
  66 N66          -21.4070    -0.6259    -6.0290 N.am    
  67 C67          -22.7941    -0.9988    -5.7404 C.3     
  68 C68          -22.9061    -2.5225    -5.6584 C.3     
  69 C69          -22.0939    -3.0300    -4.4652 C.3     
  70 C70          -22.2059    -4.5537    -4.3831 C.3     
  71 N71          -21.4282    -5.0396    -3.2406 N.pl3   
  72 C72          -21.3792    -6.3857    -2.9650 C.2     
  73 N73          -20.6873    -6.8180    -1.9485 N.2     
  74 N74          -22.0599    -7.2757    -3.7617 N.pl3   
  75 C75          -27.2862    -0.0349    -7.3172 C.2     
  76 O76          -27.5298    -0.2944    -6.1578 O.2     
  77 N77          -25.0181    -0.7142    -6.7852 N.am    
  78 C78          -25.8895    -0.2173    -7.8529 C.3     
  79 C79          -25.9122    -1.2255    -9.0034 C.3     
  80 C80          -24.5187    -1.3177    -9.6283 C.3     
  81 C81          -24.5413    -2.3259   -10.7789 C.3     
  82 N82          -23.2070    -2.4141   -11.3773 N.pl3   
  83 C83          -22.9830    -3.2624   -12.4358 C.2     
  84 N84          -23.9578    -3.9881   -12.9069 N.2     
  85 N85          -21.7308    -3.3451   -12.9973 N.pl3   
  86 C86          -30.6116     0.4980    -8.7388 C.2     
  87 O87          -30.2208     0.3010    -9.8699 O.2     
  88 N88          -28.2648     0.4166    -8.1266 N.am    
  89 C89          -29.6226     0.5939    -7.6058 C.3     
  90 C90          -29.7389     1.9676    -6.9422 C.3     
  91 O91          -29.5761     2.9885    -7.9287 O.3     
  92 C92          -34.1451     1.2927    -9.2347 C.2     
  93 O93          -34.2271     1.8532    -8.1623 O.2     
  94 N94          -31.9305     0.6312    -8.4952 N.am    
  95 C95          -32.8919     0.5380    -9.5966 C.3     
  96 C96          -33.2364    -0.9310    -9.8499 C.3     
  97 C97          -37.3033     1.1849    -8.9481 C.2     
  98 O98          -36.9687     0.0517    -8.6957 O.2     
  99 N99          -35.1748     1.3447   -10.1027 N.am    
 100 C100         -36.3931     2.0783    -9.7508 C.3     
 101 C101         -37.1094     2.5202   -11.0286 C.3     
 102 C102         -36.2483     3.5097   -11.7705 C.2     
 103 O103         -35.1722     3.8288   -11.3232 O.2     
 104 O104         -36.6769     4.0366   -12.9283 O.3     
 105 O105         -38.4858     1.6482    -8.5134 O.3     
 106 C106           3.5964     1.4281    -0.5179 C.2     
 107 O107           3.7346     2.5501    -0.9571 O.2     
 108 C108          21.5442    -1.6074    -4.9732 C.3     
 109 C109          20.3680    -0.6290    -4.9567 C.3     
 110 C110          19.1457    -1.3114    -4.3391 C.3     
 111 C111          17.9695    -0.3331    -4.3226 C.3     
 112 C112          16.7473    -1.0154    -3.7049 C.3     
 113 C113          15.5710    -0.0371    -3.6884 C.3     
 114 C114          14.3488    -0.7194    -3.0708 C.3     
 115 C115          13.1726     0.2589    -3.0543 C.3     
 116 C116          11.9503    -0.4234    -2.4366 C.3     
 117 C117          10.7741     0.5549    -2.4201 C.3     
 118 C118           9.5519    -0.1274    -1.8025 C.3     
 119 C119           8.3756     0.8509    -1.7860 C.3     
 120 C120           7.1534     0.1686    -1.1683 C.3     
 121 C121           5.9772     1.1469    -1.1518 C.3     
 122 C122           4.7549     0.4645    -0.5342 C.3     
 123 H123           2.2960     0.1457     0.3360 H       
 124 H124           1.3211     2.6120    -0.8866 H       
 125 H125           0.4775     3.4889     1.3115 H       
 126 H126           1.4101     2.2178     2.1376 H       
 127 H127           1.6023     5.3248     0.1894 H       
 128 H128           3.6194     6.7327     0.0787 H       
 129 H129           5.7451     5.9140     1.0136 H       
 130 H130           5.8536     3.6877     2.0599 H       
 131 H131           3.8346     2.2832     2.1781 H       
 132 H132          -1.2037     2.8365     0.0232 H       
 133 H133          -2.3335     0.2109    -0.5752 H       
 134 H134          -2.8450     1.6393     2.0719 H       
 135 H135          -3.7951     0.2607     1.4676 H       
 136 H136          -1.7401    -1.1252     1.3984 H       
 137 H137          -0.7900     0.2534     2.0026 H       
 138 H138          -2.1647     0.2964     4.0659 H       
 139 H139          -3.1148    -1.0822     3.4616 H       
 140 H140          -0.3840    -1.8022     3.4323 H       
 141 H141          -0.4464    -3.1683     6.6470 H       
 142 H142          -2.9793    -1.0058     5.6959 H       
 143 H143          -2.4003    -1.9564     6.9544 H       
 144 H144          -4.9939     0.5854    -0.3641 H       
 145 H145          -5.6959     3.3544    -0.9701 H       
 146 H146          -6.5727     2.8629    -3.2024 H       
 147 H147          -4.8483     2.4255    -3.1452 H       
 148 H148          -6.1782     0.6802    -4.0890 H       
 149 H149          -8.2768     3.2176    -1.7340 H       
 150 H150          -9.6082     0.9498    -0.4643 H       
 151 H151         -10.8154     2.3088     1.1755 H       
 152 H152          -9.0651     2.5072     1.4308 H       
 153 H153         -10.1999     4.6083     1.3732 H       
 154 H154         -12.2155     1.6313    -0.4878 H       
 155 H155         -12.6574     2.3787    -3.2759 H       
 156 H156         -14.3321     4.1420    -2.6447 H       
 157 H157         -13.7900     4.0033    -0.9550 H       
 158 H158         -11.4875     4.6139    -1.6436 H       
 159 H159         -12.0296     4.7525    -3.3333 H       
 160 H160         -13.6211     6.5369    -2.6763 H       
 161 H161         -13.0790     6.3983    -0.9866 H       
 162 H162         -10.8161     6.8600    -2.6122 H       
 163 H163         -13.1003     9.9906    -1.6225 H       
 164 H164          -9.9427     9.0731    -2.7109 H       
 165 H165         -10.9135    10.3788    -2.2922 H       
 166 H166         -15.3404     2.3820    -3.5298 H       
 167 H167         -16.0903    -0.2224    -2.4426 H       
 168 H168         -17.6418     2.3226    -1.7907 H       
 169 H169         -18.2468     0.6716    -1.5141 H       
 170 H170         -16.3109     0.2100    -0.0350 H       
 171 H171         -15.7058     1.8609    -0.3117 H       
 172 H172         -17.6418     2.1309     2.7914 H       
 173 H173         -18.6199    -0.5802    -3.3005 H       
 174 H174         -19.0705     0.8515    -5.8054 H       
 175 H175         -18.4039    -2.1248    -5.7277 H       
 176 H176         -19.0799    -1.2774    -7.1395 H       
 177 H177         -17.1196     0.2409    -7.1668 H       
 178 H178         -16.4436    -0.6065    -5.7550 H       
 179 H179         -16.3719    -2.7164    -7.0558 H       
 180 H180         -17.0479    -1.8690    -8.4676 H       
 181 H181         -15.0877    -0.3507    -8.4948 H       
 182 H182         -14.4117    -1.1981    -7.0830 H       
 183 H183         -13.4961    -2.0338    -9.1451 H       
 184 H184         -14.4171    -3.2203    -8.4312 H       
 185 H185         -21.1287    -0.4640    -6.9440 H       
 186 H186         -23.0980    -0.5604    -4.7898 H       
 187 H187         -23.9516    -2.8037    -5.5322 H       
 188 H188         -22.5189    -2.9652    -6.5761 H       
 189 H189         -21.0484    -2.7488    -4.5913 H       
 190 H190         -22.4811    -2.5873    -3.5474 H       
 191 H191         -23.2514    -4.8349    -4.2569 H       
 192 H192         -21.8187    -4.9964    -5.3008 H       
 193 H193         -20.9479    -4.4117    -2.6785 H       
 194 H194         -20.6527    -7.7677    -1.7541 H       
 195 H195         -22.5748    -6.9539    -4.5181 H       
 196 H196         -22.0254    -8.2254    -3.5673 H       
 197 H197         -25.3965    -1.2062    -6.0398 H       
 198 H198         -25.5115     0.7388    -8.2150 H       
 199 H199         -26.2053    -2.2041    -8.6232 H       
 200 H200         -26.6280    -0.8996    -9.7581 H       
 201 H201         -24.2255    -0.3391   -10.0085 H       
 202 H202         -23.8029    -1.6436    -8.8737 H       
 203 H203         -24.8344    -3.3045   -10.3987 H       
 204 H204         -25.2571    -2.0000   -11.5336 H       
 205 H205         -22.4816    -1.8740   -11.0266 H       
 206 H206         -23.7998    -4.5866   -13.6537 H       
 207 H207         -21.0054    -2.8051   -12.6467 H       
 208 H208         -21.5728    -3.9436   -13.7441 H       
 209 H209         -28.0700     0.6242    -9.0539 H       
 210 H210         -29.8346    -0.1834    -6.8717 H       
 211 H211         -30.7201     2.0646    -6.4775 H       
 212 H212         -28.9649     2.0704    -6.1817 H       
 213 H213         -29.6381     3.8876    -7.5782 H       
 214 H214         -32.2430     0.7889    -7.5905 H       
 215 H215         -32.4554     0.9694   -10.4974 H       
 216 H216         -33.6729    -1.3624    -8.9490 H       
 217 H217         -33.9518    -1.0004   -10.6693 H       
 218 H218         -32.3300    -1.4769   -10.1116 H       
 219 H219         -35.1093     0.8964   -10.9604 H       
 220 H220         -36.1310     2.9556    -9.1594 H       
 221 H221         -37.2924     1.6517   -11.6613 H       
 222 H222         -38.0593     2.9877   -10.7695 H       
 223 H223         -36.0898     4.6670   -13.3677 H       
 224 H224         -39.0352     1.0382    -8.0023 H       
 225 H225          22.4149    -1.1213    -5.4133 H       
 226 H226          21.7760    -1.9140    -3.9533 H       
 227 H227          21.2796    -2.4837    -5.5649 H       
 228 H228          20.6326     0.2473    -4.3651 H       
 229 H229          20.1361    -0.3224    -5.9767 H       
 230 H230          18.8812    -2.1877    -4.9307 H       
 231 H231          19.3776    -1.6181    -3.3191 H       
 232 H232          18.2341     0.5433    -3.7309 H       
 233 H233          17.7377    -0.0264    -5.3425 H       
 234 H234          16.4827    -1.8918    -4.2966 H       
 235 H235          16.9791    -1.3221    -2.6850 H       
 236 H236          15.8356     0.8393    -3.0968 H       
 237 H237          15.3392     0.2696    -4.7084 H       
 238 H238          14.0842    -1.5958    -3.6624 H       
 239 H239          14.5806    -1.0261    -2.0508 H       
 240 H240          13.4372     1.1353    -2.4626 H       
 241 H241          12.9407     0.5656    -4.0742 H       
 242 H242          11.6858    -1.2998    -3.0283 H       
 243 H243          12.1822    -0.7301    -1.4167 H       
 244 H244          11.0387     1.4313    -1.8285 H       
 245 H245          10.5423     0.8616    -3.4401 H       
 246 H246           9.2873    -1.0038    -2.3941 H       
 247 H247           9.7837    -0.4341    -0.7825 H       
 248 H248           8.6402     1.7272    -1.1943 H       
 249 H249           8.1438     1.1576    -2.8059 H       
 250 H250           6.8888    -0.7078    -1.7600 H       
 251 H251           7.3852    -0.1381    -0.1484 H       
 252 H252           6.2418     2.0232    -0.5602 H       
 253 H253           5.7453     1.4535    -2.1718 H       
 254 H254           4.9868     0.1579     0.4858 H       
 255 H255           4.4904    -0.4118    -1.1258 H       
@<TRIPOS>BOND
   1    1    2 2
   2    1    4 1
   3    1   14 am
   4    3  106 am
   5    3    4 1
   6    3  123 1
   7    4    5 1
   8    4  124 1
   9    5    6 1
  10    5  125 1
  11    5  126 1
  12    6    7 ar
  13    6   11 ar
  14    7    8 ar
  15    7  127 1
  16    8    9 ar
  17    8  128 1
  18    9   10 ar
  19    9  129 1
  20   10   11 ar
  21   10  130 1
  22   11  131 1
  23   12   13 2
  24   12   15 1
  25   12   25 am
  26   14   15 1
  27   14  132 1
  28   15   16 1
  29   15  133 1
  30   16   17 1
  31   16  134 1
  32   16  135 1
  33   17   18 1
  34   17  136 1
  35   17  137 1
  36   18   19 1
  37   18  138 1
  38   18  139 1
  39   19   20 1
  40   19  140 1
  41   20   21 2
  42   20   22 1
  43   21  141 1
  44   22  142 1
  45   22  143 1
  46   23   24 2
  47   23   26 1
  48   23   31 am
  49   25   26 1
  50   25  144 1
  51   26   27 1
  52   26  145 1
  53   27   28 1
  54   27  146 1
  55   27  147 1
  56   28  148 1
  57   29   30 2
  58   29   32 1
  59   29   37 am
  60   31   32 1
  61   31  149 1
  62   32   33 1
  63   32  150 1
  64   33   34 1
  65   33  151 1
  66   33  152 1
  67   34  153 1
  68   35   36 2
  69   35   38 1
  70   35   48 am
  71   37   38 1
  72   37  154 1
  73   38   39 1
  74   38  155 1
  75   39   40 1
  76   39  156 1
  77   39  157 1
  78   40   41 1
  79   40  158 1
  80   40  159 1
  81   41   42 1
  82   41  160 1
  83   41  161 1
  84   42   43 1
  85   42  162 1
  86   43   44 2
  87   43   45 1
  88   44  163 1
  89   45  164 1
  90   45  165 1
  91   46   47 2
  92   46   49 1
  93   46   57 am
  94   48   49 1
  95   48  166 1
  96   49   50 1
  97   49  167 1
  98   50   51 1
  99   50  168 1
 100   50  169 1
 101   51   52 1
 102   51  170 1
 103   51  171 1
 104   52   53 2
 105   52   54 1
 106   54  172 1
 107   55   56 2
 108   55   58 1
 109   55   66 am
 110   57   58 1
 111   57  173 1
 112   58   59 1
 113   58  174 1
 114   59   60 1
 115   59  175 1
 116   59  176 1
 117   60   61 1
 118   60  177 1
 119   60  178 1
 120   61   62 1
 121   61  179 1
 122   61  180 1
 123   62   63 1
 124   62  181 1
 125   62  182 1
 126   63  183 1
 127   63  184 1
 128   64   65 2
 129   64   67 1
 130   64   77 am
 131   66   67 1
 132   66  185 1
 133   67   68 1
 134   67  186 1
 135   68   69 1
 136   68  187 1
 137   68  188 1
 138   69   70 1
 139   69  189 1
 140   69  190 1
 141   70   71 1
 142   70  191 1
 143   70  192 1
 144   71   72 1
 145   71  193 1
 146   72   73 2
 147   72   74 1
 148   73  194 1
 149   74  195 1
 150   74  196 1
 151   75   76 2
 152   75   78 1
 153   75   88 am
 154   77   78 1
 155   77  197 1
 156   78   79 1
 157   78  198 1
 158   79   80 1
 159   79  199 1
 160   79  200 1
 161   80   81 1
 162   80  201 1
 163   80  202 1
 164   81   82 1
 165   81  203 1
 166   81  204 1
 167   82   83 1
 168   82  205 1
 169   83   84 2
 170   83   85 1
 171   84  206 1
 172   85  207 1
 173   85  208 1
 174   86   87 2
 175   86   89 1
 176   86   94 am
 177   88   89 1
 178   88  209 1
 179   89   90 1
 180   89  210 1
 181   90   91 1
 182   90  211 1
 183   90  212 1
 184   91  213 1
 185   92   93 2
 186   92   95 1
 187   92   99 am
 188   94   95 1
 189   94  214 1
 190   95   96 1
 191   95  215 1
 192   96  216 1
 193   96  217 1
 194   96  218 1
 195   97   98 2
 196   97  100 1
 197   97  105 1
 198   99  100 1
 199   99  219 1
 200  100  101 1
 201  100  220 1
 202  101  102 1
 203  101  221 1
 204  101  222 1
 205  102  103 2
 206  102  104 1
 207  104  223 1
 208  105  224 1
 209  106  107 2
 210  106  122 1
 211  108  109 1
 212  108  225 1
 213  108  226 1
 214  108  227 1
 215  109  110 1
 216  109  228 1
 217  109  229 1
 218  110  111 1
 219  110  230 1
 220  110  231 1
 221  111  112 1
 222  111  232 1
 223  111  233 1
 224  112  113 1
 225  112  234 1
 226  112  235 1
 227  113  114 1
 228  113  236 1
 229  113  237 1
 230  114  115 1
 231  114  238 1
 232  114  239 1
 233  115  116 1
 234  115  240 1
 235  115  241 1
 236  116  117 1
 237  116  242 1
 238  116  243 1
 239  117  118 1
 240  117  244 1
 241  117  245 1
 242  118  119 1
 243  118  246 1
 244  118  247 1
 245  119  120 1
 246  119  248 1
 247  119  249 1
 248  120  121 1
 249  120  250 1
 250  120  251 1
 251  121  122 1
 252  121  252 1
 253  121  253 1
 254  122  254 1
 255  122  255 1

#	End of record

