#	Name: ASD03240271
#	Creating user name:	WinNT
#	Creation time:	15. 06. 2019 20:34

#	Modifying user name:	WinNT
#	Modification time:	15. 06. 2019 20:34

#	Program:	/corina/corina34_cracker 3.40 0067  02.08.2006

@<TRIPOS>MOLECULE
ASD03240271
  97  104    0    0    0
SMALL
NO_CHARGES


@<TRIPOS>ATOM
   1 C1             0.3219     2.3101     1.0911 C.2     
   2 N2             0.4503     1.0445     1.6126 N.pl3   
   3 C3            -2.5144     4.6977     0.5650 C.3     
   4 C4            -1.0492     4.2629     0.4934 C.3     
   5 N5            -0.9123     2.9143     1.0491 N.pl3   
   6 N6             1.3711     2.9392     0.6414 N.2     
   7 N7            -2.6512     6.0463     0.0093 N.pl3   
   8 C8            -3.8979     6.6566    -0.0331 C.ar    
   9 C9            -4.0288     7.9482    -0.5654 C.ar    
  10 C10           -5.2768     8.5545    -0.6063 C.ar    
  11 C11           -6.3943     7.8755    -0.1177 C.ar    
  12 C12           -6.2542     6.5883     0.4110 C.ar    
  13 C13           -5.0170     5.9854     0.4466 C.ar    
  14 C14           -7.7228     8.5158    -0.1586 C.2     
  15 N15           -8.8016     7.8601     0.3132 N.am    
  16 O16           -7.8444     9.6352    -0.6180 O.2     
  17 C17          -10.0425     8.5072     0.3757 C.ar    
  18 C18          -11.2129     7.7837     0.1884 C.ar    
  19 C19          -10.1024     9.8709     0.6305 C.ar    
  20 C20          -11.3253    10.5086     0.6925 C.ar    
  21 C21          -12.4957     9.7862     0.4995 C.ar    
  22 C22          -12.4360     8.4212     0.2499 C.ar    
  23 N23          -13.7350    10.4322     0.5628 N.pl3   
  24 C24          -14.9518     9.7238     0.1582 C.3     
  25 C25          -13.8159    11.8172     1.0336 C.3     
  26 C26           -2.8373     8.6636    -1.0822 C.ar    
  27 C27           -1.6795     8.7490    -0.2922 C.ar    
  28 C28           -0.5749     9.3987    -0.7425 C.ar    
  29 C29           -0.5812     9.9964    -2.0153 C.ar    
  30 C30           -1.7447     9.9161    -2.8220 C.ar    
  31 C31           -2.8737     9.2362    -2.3402 C.ar    
  32 C32          -14.4313    11.8450     2.4089 C.ar    
  33 C33          -15.4359    10.2696    -1.1605 C.ar    
  34 C34          -16.4033    11.2262    -1.1911 C.ar    
  35 C35          -16.8636    11.7429    -2.4010 C.ar    
  36 C36          -16.3589    11.3057    -3.5869 C.ar    
  37 C37          -15.3582    10.3190    -3.5952 C.ar    
  38 C38          -14.8865     9.7974    -2.3648 C.ar    
  39 C39          -15.7657    12.0676     2.5569 C.ar    
  40 C40          -16.3525    12.0969     3.8207 C.ar    
  41 C41          -15.6082    11.9037     4.9436 C.ar    
  42 C42          -14.2269    11.6705     4.8306 C.ar    
  43 C43          -13.6311    11.6355     3.5452 C.ar    
  44 C44          -13.4258    11.4667     5.9671 C.ar    
  45 C45          -12.0914    11.2436     5.8191 C.ar    
  46 C46          -11.5045    11.2144     4.5553 C.ar    
  47 C47          -12.2498    11.4023     3.4321 C.ar    
  48 C48          -14.8128     9.8428    -4.7998 C.ar    
  49 C49          -13.8450     8.8864    -4.7691 C.ar    
  50 C50          -13.3848     8.3697    -3.5592 C.ar    
  51 C51          -13.8858     8.8107    -2.3732 C.ar    
  52 C52            0.5484    10.6747    -2.5037 C.ar    
  53 C53            0.5116    11.2434    -3.7398 C.ar    
  54 C54           -0.6318    11.1645    -4.5328 C.ar    
  55 C55           -1.7449    10.5162    -4.0939 C.ar    
  56 H56            1.3218     0.6198     1.6459 H       
  57 H57           -0.3305     0.5763     1.9473 H       
  58 H58           -3.1278     4.0039    -0.0098 H       
  59 H59           -2.8429     4.6980     1.6043 H       
  60 H60           -0.7206     4.2627    -0.5459 H       
  61 H61           -0.4358     4.9567     1.0683 H       
  62 H62           -1.6925     2.4477     1.3874 H       
  63 H63            1.2805     3.8322     0.2735 H       
  64 H64           -1.8710     6.5130    -0.3290 H       
  65 H65           -5.3828     9.5487    -1.0147 H       
  66 H66           -7.1196     6.0643     0.7891 H       
  67 H67           -4.9142     4.9911     0.8556 H       
  68 H68           -8.7189     6.9402     0.6096 H       
  69 H69          -11.1665     6.7223    -0.0058 H       
  70 H70           -9.1922    10.4327     0.7805 H       
  71 H71          -11.3718    11.5692     0.8914 H       
  72 H72          -13.3460     7.8594     0.0998 H       
  73 H73          -14.7356     8.6606     0.0540 H       
  74 H74          -15.7233     9.8652     0.9151 H       
  75 H75          -12.8147    12.2460     1.0747 H       
  76 H76          -14.4323    12.3986     0.3479 H       
  77 H77           -1.6672     8.2924     0.6865 H       
  78 H78            0.3078     9.4565    -0.1229 H       
  79 H79           -3.7664     9.1674    -2.9440 H       
  80 H80          -16.8210    11.5902    -0.2641 H       
  81 H81          -17.6325    12.5012    -2.3974 H       
  82 H82          -16.7257    11.7147    -4.5167 H       
  83 H83          -16.3791    12.2242     1.6819 H       
  84 H84          -17.4138    12.2759     3.9104 H       
  85 H85          -16.0765    11.9299     5.9164 H       
  86 H86          -13.8666    11.4872     6.9528 H       
  87 H87          -11.4780    11.0872     6.6941 H       
  88 H88          -10.4431    11.0362     4.4657 H       
  89 H89          -11.7815    11.3767     2.4593 H       
  90 H90          -15.1601    10.2334    -5.7448 H       
  91 H91          -13.4276     8.5222    -5.6962 H       
  92 H92          -12.6164     7.6108    -3.5629 H       
  93 H93          -13.5194     8.4013    -1.4433 H       
  94 H94            1.4417    10.7446    -1.9009 H       
  95 H95            1.3816    11.7642    -4.1116 H       
  96 H96           -0.6347    11.6249    -5.5098 H       
  97 H97           -2.6238    10.4626    -4.7192 H       
@<TRIPOS>BOND
   1    1    2 1
   2    1    6 2
   3    1    5 1
   4    2   56 1
   5    2   57 1
   6    3    4 1
   7    3    7 1
   8    3   58 1
   9    3   59 1
  10    4    5 1
  11    4   60 1
  12    4   61 1
  13    5   62 1
  14    6   63 1
  15    7    8 1
  16    7   64 1
  17    8    9 ar
  18    8   13 ar
  19    9   10 ar
  20    9   26 1
  21   10   11 ar
  22   10   65 1
  23   11   12 ar
  24   11   14 1
  25   12   13 ar
  26   12   66 1
  27   13   67 1
  28   14   15 am
  29   14   16 2
  30   15   17 1
  31   15   68 1
  32   17   18 ar
  33   17   19 ar
  34   18   22 ar
  35   18   69 1
  36   19   20 ar
  37   19   70 1
  38   20   21 ar
  39   20   71 1
  40   21   22 ar
  41   21   23 1
  42   22   72 1
  43   23   24 1
  44   23   25 1
  45   24   33 1
  46   24   73 1
  47   24   74 1
  48   25   32 1
  49   25   75 1
  50   25   76 1
  51   26   27 ar
  52   26   31 ar
  53   27   28 ar
  54   27   77 1
  55   28   29 ar
  56   28   78 1
  57   29   30 ar
  58   29   52 ar
  59   30   31 ar
  60   30   55 ar
  61   31   79 1
  62   32   39 ar
  63   32   43 ar
  64   33   34 ar
  65   33   38 ar
  66   34   35 ar
  67   34   80 1
  68   35   36 ar
  69   35   81 1
  70   36   37 ar
  71   36   82 1
  72   37   38 ar
  73   37   48 ar
  74   38   51 ar
  75   39   40 ar
  76   39   83 1
  77   40   41 ar
  78   40   84 1
  79   41   42 ar
  80   41   85 1
  81   42   43 ar
  82   42   44 ar
  83   43   47 ar
  84   44   45 ar
  85   44   86 1
  86   45   46 ar
  87   45   87 1
  88   46   47 ar
  89   46   88 1
  90   47   89 1
  91   48   49 ar
  92   48   90 1
  93   49   50 ar
  94   49   91 1
  95   50   51 ar
  96   50   92 1
  97   51   93 1
  98   52   53 ar
  99   52   94 1
 100   53   54 ar
 101   53   95 1
 102   54   55 ar
 103   54   96 1
 104   55   97 1

#	End of record

