#	Name: ASD00431184
#	Creating user name:	WinNT
#	Creation time:	15. 06. 2019 18:35

#	Modifying user name:	WinNT
#	Modification time:	15. 06. 2019 18:35

#	Program:	/corina/corina34_cracker 3.40 0067  02.08.2006

@<TRIPOS>MOLECULE
ASD00431184
  45   47    0    0    0
SMALL
NO_CHARGES


@<TRIPOS>ATOM
   1 N1            -0.0710     1.2696     0.1509 N.am    
   2 C2            -0.0070    -0.0765     0.1273 C.2     
   3 O3             1.0712    -0.6325     0.0454 O.2     
   4 N4            -1.1382    -0.8062     0.1944 N.am    
   5 C5             1.1586     2.0627     0.0779 C.3     
   6 C6             1.5562     2.2536    -1.3872 C.3     
   7 O7            -0.1349     4.2003     0.5323 O.3     
   8 N8            -0.0168     5.2137     1.1883 N.2     
   9 C9             1.1123     5.1886     1.8539 C.2     
  10 N10            1.7273     4.0209     1.5505 N.2     
  11 C11            0.9267     3.4086     0.7149 C.2     
  12 S12            3.1389     6.1918     3.6515 S.3     
  13 C13            2.7996     7.7235     4.3305 C.2     
  14 N14            1.6581     8.1647     3.8985 N.2     
  15 C15            0.9980     7.3978     3.0594 C.2     
  16 C16            1.6183     6.2362     2.7627 C.2     
  17 O17            3.6062     8.3821     5.1961 O.3     
  18 C18            3.9697    10.3206     6.5330 C.ar    
  19 C19            3.2724     9.6553     5.5372 C.ar    
  20 C20            2.2261    10.3070     4.8901 C.ar    
  21 C21            1.9215    11.6025     5.2694 C.ar    
  22 C22            2.6642    12.2054     6.2758 C.ar    
  23 N23            3.6517    11.5562     6.8690 N.ar    
  24 O24            2.3736    13.4762     6.6548 O.3     
  25 C25            3.1731    14.0418     7.6954 C.3     
  26 C26            4.3831    14.7489     7.0817 C.3     
  27 C27            2.3398    15.0514     8.4873 C.3     
  28 H28           -0.9314     1.7132     0.2121 H       
  29 H29           -1.9983    -0.3626     0.2597 H       
  30 H30           -1.0921    -1.7749     0.1774 H       
  31 H31            1.9579     1.5434     0.6066 H       
  32 H32            2.4710     2.8437    -1.4414 H       
  33 H33            1.7239     1.2801    -1.8479 H       
  34 H34            0.7569     2.7729    -1.9159 H       
  35 H35            0.0404     7.6735     2.6430 H       
  36 H36            4.7797     9.8203     7.0428 H       
  37 H37            1.6655     9.8132     4.1101 H       
  38 H38            1.1164    12.1381     4.7884 H       
  39 H39            3.5146    13.2501     8.3623 H       
  40 H40            4.9930    15.1803     7.8755 H       
  41 H41            4.9768    14.0296     6.5176 H       
  42 H42            4.0416    15.5406     6.4149 H       
  43 H43            1.4778    14.5476     8.9245 H       
  44 H44            2.9497    15.4828     9.2811 H       
  45 H45            1.9983    15.8431     7.8205 H       
@<TRIPOS>BOND
   1    1    2 am
   2    1    5 1
   3    1   28 1
   4    2    3 2
   5    2    4 am
   6    4   29 1
   7    4   30 1
   8    5    6 1
   9    5   11 1
  10    5   31 1
  11    6   32 1
  12    6   33 1
  13    6   34 1
  14    7    8 1
  15    7   11 1
  16    8    9 2
  17    9   10 1
  18    9   16 1
  19   10   11 2
  20   12   13 1
  21   12   16 1
  22   13   14 2
  23   13   17 1
  24   14   15 1
  25   15   16 2
  26   15   35 1
  27   17   19 1
  28   18   19 ar
  29   18   23 ar
  30   18   36 1
  31   19   20 ar
  32   20   21 ar
  33   20   37 1
  34   21   22 ar
  35   21   38 1
  36   22   23 ar
  37   22   24 1
  38   24   25 1
  39   25   26 1
  40   25   27 1
  41   25   39 1
  42   26   40 1
  43   26   41 1
  44   26   42 1
  45   27   43 1
  46   27   44 1
  47   27   45 1

#	End of record

