#	Name: ASD01881987
#	Creating user name:	WinNT
#	Creation time:	15. 06. 2019 19:43

#	Modifying user name:	WinNT
#	Modification time:	15. 06. 2019 19:43

#	Program:	/corina/corina34_cracker 3.40 0067  02.08.2006

@<TRIPOS>MOLECULE
ASD01881987
  42   44    0    0    0
SMALL
NO_CHARGES


@<TRIPOS>ATOM
   1 N1            -0.0154     1.2840     0.0091 N.pl3   
   2 N2             0.0021    -0.0041     0.0020 N.2     
   3 N3             1.2039    -0.4631    -0.0119 N.2     
   4 C4             2.0717     0.5642    -0.0147 C.ar    
   5 C5             1.2847     1.7283    -0.0009 C.ar    
   6 C6             3.4785     0.6755    -0.0272 C.ar    
   7 C7             4.0636     1.9444    -0.0255 C.ar    
   8 C8             3.2650     3.0834    -0.0118 C.ar    
   9 C9             1.8920     2.9795     0.0007 C.ar    
  10 C10            4.2974    -0.4992    -0.0408 C.1     
  11 N11            4.9470    -1.4311    -0.0517 N.1     
  12 O12            5.4153     2.0660    -0.0370 O.3     
  13 C13            5.9474     3.3922    -0.0346 C.3     
  14 C14            7.4530     3.3294    -0.0484 C.ar    
  15 C15            8.0944     2.1032    -0.0607 C.ar    
  16 N16            8.1607     4.4451    -0.0541 N.ar    
  17 N17            9.4144     2.0482    -0.0728 N.ar    
  18 C18           10.1223     3.1642    -0.0730 C.ar    
  19 C19            9.4811     4.3901    -0.0662 C.ar    
  20 C20           -1.2128     2.1280     0.0196 C.3     
  21 C21           -1.6222     2.4145     1.4657 C.3     
  22 C22           -0.4819     3.1381     2.1847 C.3     
  23 C23           -2.8727     3.2959     1.4766 C.3     
  24 C24           -1.9213     1.0959     2.1818 C.3     
  25 H25            3.7269     4.0597    -0.0103 H       
  26 H26            1.2847     3.8725     0.0113 H       
  27 H27            5.5979     3.9256    -0.9186 H       
  28 H28            5.6138     3.9159     0.8613 H       
  29 H29            7.5159     1.1912    -0.0601 H       
  30 H30           11.2013     3.1193    -0.0825 H       
  31 H31           10.0596     5.3021    -0.0709 H       
  32 H32           -0.9997     3.0674    -0.4906 H       
  33 H33           -2.0252     1.6125    -0.4927 H       
  34 H34           -0.2688     4.0775     1.6746 H       
  35 H35           -0.7736     3.3422     3.2150 H       
  36 H36            0.4090     2.5102     2.1769 H       
  37 H37           -3.6851     2.7804     0.9643 H       
  38 H38           -3.1644     3.5000     2.5068 H       
  39 H39           -2.6596     4.2353     0.9664 H       
  40 H40           -1.0304     0.4680     2.1740 H       
  41 H41           -2.2130     1.3000     3.2120 H       
  42 H42           -2.7337     0.5804     1.6695 H       
@<TRIPOS>BOND
   1    1    2 1
   2    1    5 1
   3    1   20 1
   4    2    3 2
   5    3    4 1
   6    4    5 ar
   7    4    6 ar
   8    5    9 ar
   9    6    7 ar
  10    6   10 1
  11    7    8 ar
  12    7   12 1
  13    8    9 ar
  14    8   25 1
  15    9   26 1
  16   10   11 3
  17   12   13 1
  18   13   14 1
  19   13   27 1
  20   13   28 1
  21   14   15 ar
  22   14   16 ar
  23   15   17 ar
  24   15   29 1
  25   16   19 ar
  26   17   18 ar
  27   18   19 ar
  28   18   30 1
  29   19   31 1
  30   20   21 1
  31   20   32 1
  32   20   33 1
  33   21   22 1
  34   21   23 1
  35   21   24 1
  36   22   34 1
  37   22   35 1
  38   22   36 1
  39   23   37 1
  40   23   38 1
  41   23   39 1
  42   24   40 1
  43   24   41 1
  44   24   42 1

#	End of record

