#	Name: ASD01028650
#	Creating user name:	WinNT
#	Creation time:	15. 06. 2019 18:57

#	Modifying user name:	WinNT
#	Modification time:	15. 06. 2019 18:57

#	Program:	/corina/corina34_cracker 3.40 0067  02.08.2006

@<TRIPOS>MOLECULE
ASD01028650
  41   45    0    0    0
SMALL
NO_CHARGES


@<TRIPOS>ATOM
   1 C1            -0.0144     1.2139     0.0087 C.2     
   2 O2            -0.0118     0.0015    -0.1085 O.2     
   3 N3             4.8049     3.9065     0.9540 N.ar    
   4 C4             4.8367     5.0242     1.6389 C.ar    
   5 C5             3.6799     5.5960     2.1640 C.ar    
   6 C6             2.4716     4.9897     1.9693 C.ar    
   7 C7             2.4412     3.7891     1.2325 C.ar    
   8 C8             1.2371     3.1129     0.9946 C.ar    
   9 C9             1.2510     1.9347     0.2650 C.ar    
  10 C10            2.4611     1.4205    -0.2326 C.ar    
  11 C11            3.6358     2.0632    -0.0105 C.ar    
  12 C12            3.6565     3.2618     0.7266 C.ar    
  13 C13           -3.3640     2.4550    -0.3059 C.2     
  14 C14           -4.7419     2.2004    -0.4327 C.2     
  15 C15           -5.1823     0.9131    -0.4698 C.2     
  16 C16           -4.2622    -0.1496    -0.3812 C.2     
  17 N17           -2.9735     0.0898    -0.2628 N.2     
  18 N18           -2.4958     1.4032    -0.2225 N.pl3   
  19 N19           -2.6674     3.5887    -0.2392 N.2     
  20 C20           -1.3796     3.3161    -0.1214 C.2     
  21 C21           -1.2292     1.9341    -0.1063 C.2     
  22 C22           -4.7498    -1.5502    -0.4213 C.ar    
  23 C23           -3.8466    -2.6079    -0.3343 C.ar    
  24 C24           -4.3057    -3.9089    -0.3717 C.ar    
  25 C25           -5.6596    -4.1639    -0.4958 C.ar    
  26 C26           -6.5605    -3.1179    -0.5831 C.ar    
  27 C27           -6.1131    -1.8130    -0.5405 C.ar    
  28 H28            5.7853     5.5145     1.8006 H       
  29 H29            3.7385     6.5172     2.7246 H       
  30 H30            1.5647     5.4184     2.3694 H       
  31 H31            0.3067     3.5059     1.3771 H       
  32 H32            2.4561     0.5011    -0.7993 H       
  33 H33            4.5563     1.6538    -0.3999 H       
  34 H34           -5.4436     3.0187    -0.4996 H       
  35 H35           -6.2379     0.7064    -0.5669 H       
  36 H36           -0.5825     4.0411    -0.0470 H       
  37 H37           -2.7892    -2.4099    -0.2380 H       
  38 H38           -3.6066    -4.7293    -0.3043 H       
  39 H39           -6.0145    -5.1835    -0.5250 H       
  40 H40           -7.6165    -3.3228    -0.6802 H       
  41 H41           -6.8178    -0.9971    -0.6041 H       
@<TRIPOS>BOND
   1    1    2 2
   2    1    9 1
   3    1   21 1
   4    3    4 ar
   5    3   12 ar
   6    4    5 ar
   7    4   28 1
   8    5    6 ar
   9    5   29 1
  10    6    7 ar
  11    6   30 1
  12    7    8 ar
  13    7   12 ar
  14    8    9 ar
  15    8   31 1
  16    9   10 ar
  17   10   11 ar
  18   10   32 1
  19   11   12 ar
  20   11   33 1
  21   13   14 1
  22   13   18 1
  23   13   19 2
  24   14   15 2
  25   14   34 1
  26   15   16 1
  27   15   35 1
  28   16   17 2
  29   16   22 1
  30   17   18 1
  31   18   21 1
  32   19   20 1
  33   20   21 2
  34   20   36 1
  35   22   23 ar
  36   22   27 ar
  37   23   24 ar
  38   23   37 1
  39   24   25 ar
  40   24   38 1
  41   25   26 ar
  42   25   39 1
  43   26   27 ar
  44   26   40 1
  45   27   41 1

#	End of record

