#	Name: ASD07480015
#	Creating user name:	WinNT
#	Creation time:	15. 06. 2019 21:11

#	Modifying user name:	WinNT
#	Modification time:	15. 06. 2019 21:11

#	Program:	/corina/corina34_cracker 3.40 0067  02.08.2006

@<TRIPOS>MOLECULE
ASD07480015
  44   48    0    0    0
SMALL
NO_CHARGES


@<TRIPOS>ATOM
   1 C1            -0.0171     1.4081     0.0098 C.2     
   2 C2             0.0021    -0.0041     0.0020 C.2     
   3 N3             1.1621    -0.6402     0.0684 N.2     
   4 C4             2.3082     0.0328     0.1013 C.2     
   5 N5             2.3329     1.3951    -0.0145 N.pl3   
   6 C6             1.1552     2.0785     0.0022 C.2     
   7 C7             3.6456    -0.3817     0.2768 C.2     
   8 C8             4.4549     0.7396     0.0182 C.2     
   9 N9             3.6708     1.7776    -0.1350 N.2     
  10 N10           -1.1796    -0.7036    -0.1003 N.pl3   
  11 C11           -1.3556    -2.0761    -0.5989 C.3     
  12 C12           -2.5148    -0.1705     0.2281 C.3     
  13 C13           -3.5259    -0.9690    -0.6203 C.3     
  14 C14           -2.7406    -2.1047    -1.3066 C.3     
  15 C15           -1.4111    -3.0991     0.5055 C.ar    
  16 C16           -2.6511    -3.3793     1.0694 C.ar    
  17 C17           -2.7290    -4.3225     2.0829 C.ar    
  18 C18           -1.5728    -4.9504     2.5057 C.ar    
  19 N19           -0.4092    -4.6636     1.9464 N.ar    
  20 C20           -0.2961    -3.7882     0.9572 C.ar    
  21 C21            4.0325    -1.7275     0.7157 C.2     
  22 O22            5.1680    -2.1581     0.6316 O.2     
  23 F23           -3.9182    -4.6231     2.6491 F       
  24 O24            0.9265    -3.5981     0.3810 O.3     
  25 C25            1.9391    -4.5737     0.6247 C.3     
  26 C26            3.1607    -3.9284     1.2895 C.3     
  27 N27            2.9856    -2.4535     1.2315 N.am    
  28 H28           -0.9549     1.9437     0.0172 H       
  29 H29            1.1587     3.1584     0.0094 H       
  30 H30            5.5332     0.7439    -0.0426 H       
  31 H31           -0.5816    -2.3211    -1.3109 H       
  32 H32           -2.7231    -0.3115     1.2886 H       
  33 H33           -2.5674     0.8882    -0.0260 H       
  34 H34           -4.3021    -1.3870     0.0207 H       
  35 H35           -3.9762    -0.3203    -1.3717 H       
  36 H36           -2.6305    -1.9048    -2.3725 H       
  37 H37           -3.2337    -3.0634    -1.1453 H       
  38 H38           -3.5388    -2.8703     0.7239 H       
  39 H39           -1.6198    -5.6815     3.2992 H       
  40 H40            1.5412    -5.3489     1.2795 H       
  41 H41            2.2404    -5.0231    -0.3216 H       
  42 H42            3.2285    -4.2508     2.3285 H       
  43 H43            4.0661    -4.2143     0.7540 H       
  44 H44            2.1729    -2.0247     1.5424 H       
@<TRIPOS>BOND
   1    1    2 1
   2    1    6 2
   3    1   28 1
   4    2    3 2
   5    2   10 1
   6    3    4 1
   7    4    5 1
   8    4    7 2
   9    5    6 1
  10    5    9 1
  11    6   29 1
  12    7    8 1
  13    7   21 1
  14    8    9 2
  15    8   30 1
  16   10   11 1
  17   10   12 1
  18   11   14 1
  19   11   15 1
  20   11   31 1
  21   12   13 1
  22   12   32 1
  23   12   33 1
  24   13   14 1
  25   13   34 1
  26   13   35 1
  27   14   36 1
  28   14   37 1
  29   15   16 ar
  30   15   20 ar
  31   16   17 ar
  32   16   38 1
  33   17   18 ar
  34   17   23 1
  35   18   19 ar
  36   18   39 1
  37   19   20 ar
  38   20   24 1
  39   21   22 2
  40   21   27 am
  41   24   25 1
  42   25   26 1
  43   25   40 1
  44   25   41 1
  45   26   27 1
  46   26   42 1
  47   26   43 1
  48   27   44 1

#	End of record

