#	Name: ASD01410905
#	Creating user name:	WinNT
#	Creation time:	15. 06. 2019 19:18

#	Modifying user name:	WinNT
#	Modification time:	15. 06. 2019 19:18

#	Program:	/corina/corina34_cracker 3.40 0067  02.08.2006

@<TRIPOS>MOLECULE
ASD01410905
  63   66    0    0    0
SMALL
NO_CHARGES


@<TRIPOS>ATOM
   1 C1            -0.3424     2.3009    -0.4642 C.ar    
   2 C2            -0.5648    -0.0051    -1.1030 C.ar    
   3 C3            -1.9111     0.0261    -0.7657 C.ar    
   4 C4            -2.4759     1.2079    -0.2615 C.ar    
   5 C5            -1.6807     2.3474    -0.1185 C.ar    
   6 O6             0.4335     3.4081    -0.3200 O.3     
   7 C7             0.8816     4.0226    -1.4434 C.ar    
   8 N8            -2.6963    -1.1144    -0.9176 N.am    
   9 C9            -2.8970    -1.9388     0.1295 C.2     
  10 C10           -2.3865    -1.5710     1.4698 C.ar    
  11 O11           -3.4969    -2.9842    -0.0263 O.2     
  12 N12           -1.7975    -0.3946     1.6495 N.ar    
  13 C13           -2.0516    -2.1020     3.7814 C.ar    
  14 C14           -1.4378    -0.8660     3.9243 C.ar    
  15 C15           -1.3309    -0.0288     2.8229 C.ar    
  16 Cl16          -0.8165    -0.3688     5.4672 Cl      
  17 N17            0.4738     3.5994    -2.6288 N.ar    
  18 C18           -3.3040    -1.4178    -2.2157 C.3     
  19 C19           -4.1442    -0.2251    -2.6766 C.3     
  20 C20            1.7596     5.0937    -1.3381 C.ar    
  21 C21            2.2093     5.7119    -2.4920 C.ar    
  22 C22            1.7624     5.2342    -3.7161 C.ar    
  23 C23            0.8848     4.1683    -3.7458 C.ar    
  24 C24           -2.5337    -2.4598     2.5326 C.ar    
  25 C25            0.2134     1.1246    -0.9531 C.ar    
  26 C26           -0.4206    -3.2106    -3.7565 C.3     
  27 O27           -1.4774    -2.8632    -2.8596 O.3     
  28 C28           -2.2034    -1.6934    -3.2421 C.3     
  29 C29            2.2251     5.8758    -4.9988 C.3     
  30 N30            3.4449     5.2116    -5.4648 N.pl3   
  31 N31            3.4680     4.1944    -6.2513 N.2     
  32 C32            4.7191     3.8548    -6.4647 C.2     
  33 C33            5.4914     4.7601    -5.7333 C.2     
  34 N34            4.6385     5.5697    -5.1474 N.2     
  35 C35           -3.9042     1.2511     0.0995 C.2     
  36 O36           -4.5691     0.2344     0.0712 O.2     
  37 O37           -4.4728     2.4182     0.4610 O.3     
  38 C38            2.2161     5.5766     0.0145 C.3     
  39 F39            3.0897     6.6574    -0.1467 F       
  40 F40            1.1065     5.9816     0.7640 F       
  41 F41            2.8761     4.5391     0.6817 F       
  42 H42           -0.1274    -0.9132    -1.4909 H       
  43 H43           -2.1100     3.2627     0.2615 H       
  44 H44           -2.1473    -2.7718     4.6231 H       
  45 H45           -0.8578     0.9360     2.9309 H       
  46 H46           -3.9417    -2.2968    -2.1218 H       
  47 H47           -3.5218     0.6694    -2.7028 H       
  48 H48           -4.5391    -0.4223    -3.6732 H       
  49 H49           -4.9704    -0.0726    -1.9821 H       
  50 H50            2.8920     6.5471    -2.4410 H       
  51 H51            0.5343     3.7926    -4.6958 H       
  52 H52           -3.0171    -3.4143     2.3853 H       
  53 H53            1.2602     1.0946    -1.2175 H       
  54 H54            0.0813    -4.1086    -3.3962 H       
  55 H55           -0.8324    -3.3976    -4.7482 H       
  56 H56            0.2956    -2.3906    -3.8092 H       
  57 H57           -2.6523    -1.8489    -4.2232 H       
  58 H58           -1.5243    -0.8418    -3.2841 H       
  59 H59            1.4465     5.7780    -5.7554 H       
  60 H60            2.4307     6.9317    -4.8234 H       
  61 H61            5.0770     3.0420    -7.0793 H       
  62 H62            6.5689     4.7911    -5.6667 H       
  63 H63           -5.4123     2.3967     0.6890 H       
@<TRIPOS>BOND
   1    1   25 ar
   2    1    6 1
   3    1    5 ar
   4    2    3 ar
   5    2   25 ar
   6    2   42 1
   7    3    4 ar
   8    3    8 1
   9    4    5 ar
  10    4   35 1
  11    5   43 1
  12    6    7 1
  13    7   20 ar
  14    7   17 ar
  15    8    9 am
  16    8   18 1
  17    9   11 2
  18    9   10 1
  19   10   12 ar
  20   10   24 ar
  21   12   15 ar
  22   13   14 ar
  23   13   24 ar
  24   13   44 1
  25   14   15 ar
  26   14   16 1
  27   15   45 1
  28   17   23 ar
  29   18   19 1
  30   18   28 1
  31   18   46 1
  32   19   47 1
  33   19   48 1
  34   19   49 1
  35   20   21 ar
  36   20   38 1
  37   21   22 ar
  38   21   50 1
  39   22   23 ar
  40   22   29 1
  41   23   51 1
  42   24   52 1
  43   25   53 1
  44   26   27 1
  45   26   54 1
  46   26   55 1
  47   26   56 1
  48   27   28 1
  49   28   57 1
  50   28   58 1
  51   29   30 1
  52   29   59 1
  53   29   60 1
  54   30   31 1
  55   30   34 1
  56   31   32 2
  57   32   33 1
  58   32   61 1
  59   33   34 2
  60   33   62 1
  61   35   36 2
  62   35   37 1
  63   37   63 1
  64   38   39 1
  65   38   40 1
  66   38   41 1

#	End of record

