#	Name: ASD02030545
#	Creating user name:	WinNT
#	Creation time:	15. 06. 2019 20:15

#	Modifying user name:	WinNT
#	Modification time:	15. 06. 2019 20:15

#	Program:	/corina/corina34_cracker 3.40 0067  02.08.2006

@<TRIPOS>MOLECULE
ASD02030545
  67   71    0    0    0
SMALL
NO_CHARGES


@<TRIPOS>ATOM
   1 N1            -0.1353     1.5233    -0.8108 N.am    
   2 C2            -0.1014     0.0571    -0.7162 C.3     
   3 C3            -0.8590    -0.3702     0.5470 C.3     
   4 N4            -2.1612     0.3108     0.5665 N.am    
   5 C5            -2.1951     1.7770     0.4720 C.3     
   6 C6            -1.4372     2.2047    -0.7856 C.3     
   7 C7             1.0073     2.2307    -0.9131 C.2     
   8 C8             2.3128     1.5481    -0.7901 C.2     
   9 N9             3.4900     2.1333    -0.7380 N.2     
  10 N10            2.5061     0.2191    -0.7058 N.2     
  11 C11            3.7958     0.0190    -0.6093 C.2     
  12 N12            4.3983     1.2256    -0.6308 N.pl3   
  13 O13            0.9643     3.4301    -1.1066 O.2     
  14 C14           -3.3038    -0.3966     0.6689 C.2     
  15 C15           -3.2615    -1.8752     0.6600 C.ar    
  16 O16           -4.3689     0.1804     0.7686 O.2     
  17 C17           -1.2252     3.7198    -0.7670 C.3     
  18 C18           -2.2391     1.8101    -2.0275 C.3     
  19 C19            5.7787     1.4536    -0.5505 C.ar    
  20 C20            6.2727     2.7508    -0.5837 C.ar    
  21 C21            7.6337     2.9723    -0.5044 C.ar    
  22 C22            8.5041     1.9036    -0.3924 C.ar    
  23 C23            8.0152     0.6105    -0.3590 C.ar    
  24 C24            6.6549     0.3830    -0.4317 C.ar    
  25 N25           -2.1500    -2.4992     1.0627 N.ar    
  26 C26           -2.0411    -3.8084     1.0813 C.ar    
  27 C27           -3.1241    -4.6158     0.6653 C.ar    
  28 C28           -4.3188    -3.9860     0.2319 C.ar    
  29 C29           -4.3745    -2.5802     0.2406 C.ar    
  30 C30           -3.0479    -6.0142     0.6697 C.ar    
  31 C31           -4.1209    -6.7482     0.2583 C.ar    
  32 C32           -5.2936    -6.1299    -0.1676 C.ar    
  33 C33           -5.4035    -4.7713    -0.1843 C.ar    
  34 O34           -0.8887    -4.3854     1.4995 O.3     
  35 C35            0.1652    -3.5098     1.9053 C.3     
  36 C36            1.3763    -4.3371     2.3411 C.3     
  37 C37            2.5047    -3.3996     2.7756 C.3     
  38 H38           -0.5796    -0.3773    -1.5941 H       
  39 H39            0.9328    -0.2817    -0.6547 H       
  40 H40           -1.0108    -1.4495     0.5350 H       
  41 H41           -0.2856    -0.0887     1.4302 H       
  42 H42           -3.2293     2.1158     0.4105 H       
  43 H43           -1.7169     2.2114     1.3499 H       
  44 H44            4.2883    -0.9385    -0.5246 H       
  45 H45           -0.4240     3.9660    -0.0701 H       
  46 H46           -0.9553     4.0612    -1.7663 H       
  47 H47           -2.1453     4.2116    -0.4512 H       
  48 H48           -3.2106     2.3039    -2.0047 H       
  49 H49           -1.6969     2.1159    -2.9223 H       
  50 H50           -2.3809     0.7295    -2.0401 H       
  51 H51            5.5934     3.5858    -0.6719 H       
  52 H52            8.0185     3.9810    -0.5302 H       
  53 H53            9.5680     2.0793    -0.3313 H       
  54 H54            8.6975    -0.2220    -0.2715 H       
  55 H55            6.2736    -0.6271    -0.4053 H       
  56 H56           -5.2656    -2.0621    -0.0817 H       
  57 H57           -2.1448    -6.5081     0.9966 H       
  58 H58           -4.0600    -7.8265     0.2625 H       
  59 H59           -6.1283    -6.7355    -0.4887 H       
  60 H60           -6.3182    -4.3034    -0.5172 H       
  61 H61            0.4455    -2.8673     1.0706 H       
  62 H62           -0.1739    -2.8951     2.7391 H       
  63 H63            1.0960    -4.9796     3.1758 H       
  64 H64            1.7154    -4.9518     1.5073 H       
  65 H65            2.7849    -2.7571     1.9409 H       
  66 H66            2.1655    -2.7849     3.6094 H       
  67 H67            3.3674    -3.9890     3.0861 H       
@<TRIPOS>BOND
   1    1    2 1
   2    1    7 am
   3    1    6 1
   4    2    3 1
   5    2   38 1
   6    2   39 1
   7    3    4 1
   8    3   40 1
   9    3   41 1
  10    4    5 1
  11    4   14 am
  12    5    6 1
  13    5   42 1
  14    5   43 1
  15    6   17 1
  16    6   18 1
  17    7    8 1
  18    7   13 2
  19    8    9 2
  20    8   10 1
  21    9   12 1
  22   10   11 2
  23   11   12 1
  24   11   44 1
  25   12   19 1
  26   14   15 1
  27   14   16 2
  28   15   25 ar
  29   15   29 ar
  30   17   45 1
  31   17   46 1
  32   17   47 1
  33   18   48 1
  34   18   49 1
  35   18   50 1
  36   19   20 ar
  37   19   24 ar
  38   20   21 ar
  39   20   51 1
  40   21   22 ar
  41   21   52 1
  42   22   23 ar
  43   22   53 1
  44   23   24 ar
  45   23   54 1
  46   24   55 1
  47   25   26 ar
  48   26   27 ar
  49   26   34 1
  50   27   28 ar
  51   27   30 ar
  52   28   29 ar
  53   28   33 ar
  54   29   56 1
  55   30   31 ar
  56   30   57 1
  57   31   32 ar
  58   31   58 1
  59   32   33 ar
  60   32   59 1
  61   33   60 1
  62   34   35 1
  63   35   36 1
  64   35   61 1
  65   35   62 1
  66   36   37 1
  67   36   63 1
  68   36   64 1
  69   37   65 1
  70   37   66 1
  71   37   67 1

#	End of record

