#	Name: ASD00310360
#	Creating user name:	WinNT
#	Creation time:	15. 06. 2019 18:34

#	Modifying user name:	WinNT
#	Modification time:	15. 06. 2019 18:34

#	Program:	/corina/corina34_cracker 3.40 0067  02.08.2006

@<TRIPOS>MOLECULE
ASD00310360
 147  154    0    0    0
SMALL
NO_CHARGES


@<TRIPOS>ATOM
   1 C1             0.6977     0.1055    -0.6245 C.3     
   2 C2             0.5826    -1.4156    -0.5356 C.3     
   3 O3             1.0492    -1.8527     0.7424 O.3     
   4 C4             1.4251    -2.0695    -1.6354 C.3     
   5 O5             0.9113    -1.7004    -2.9167 O.3     
   6 C6             2.8715    -1.5787    -1.4999 C.3     
   7 O7             3.3714    -1.9631    -0.2169 O.3     
   8 C8             2.8913    -0.0476    -1.6005 C.3     
   9 O9             2.0710     0.4890    -0.5608 O.3     
  10 C10            2.3430     0.3846    -2.9619 C.3     
  11 O11            2.5089     1.7956    -3.1161 O.3     
  12 C12            4.5046    -2.8299    -0.2549 C.3     
  13 C13            4.1839    -4.1209     0.5014 C.3     
  14 O14            3.8227    -3.8086     1.8483 O.3     
  15 C15            5.4199    -5.0210     0.4989 C.3     
  16 O16            5.7209    -5.4095    -0.8429 O.3     
  17 C17            6.6120    -4.2729     1.0891 C.3     
  18 O18            6.4035    -4.0432     2.4864 O.3     
  19 C19            6.8176    -2.9541     0.3558 C.3     
  20 O20            5.6187    -2.1815     0.3643 O.3     
  21 C21            7.2231    -3.2398    -1.0915 C.3     
  22 O22            7.5302    -2.0102    -1.7518 O.3     
  23 C23            7.1850    -4.9146     3.3092 C.3     
  24 C24            6.3060    -5.6617     4.2979 C.3     
  25 O25            5.0464    -4.9985     4.4226 O.3     
  26 C26            7.0235    -5.6697     5.6497 C.3     
  27 O27            8.3186    -6.2562     5.5056 O.3     
  28 C28            7.1606    -4.2306     6.1176 C.3     
  29 O29            5.8989    -3.7266     6.5540 O.3     
  30 C30            7.7317    -3.3570     5.0140 C.3     
  31 O31            8.2136    -4.2084     3.9745 O.3     
  32 C32            8.8833    -2.5147     5.5665 C.3     
  33 O33            9.3401    -1.6121     4.5572 O.3     
  34 C34            5.9158    -3.2149     7.8924 C.3     
  35 C35            4.7283    -3.7861     8.6704 C.3     
  36 O36            3.5153    -3.4765     7.9815 O.3     
  37 C37            4.6880    -3.1746    10.0717 C.3     
  38 O38            5.8682    -3.5415    10.7891 O.3     
  39 C39            4.6201    -1.6467     9.9388 C.3     
  40 O40            3.4260    -1.2951     9.2414 O.3     
  41 C41            5.8316    -1.1609     9.1356 C.3     
  42 O42            5.8213    -1.7915     7.8528 O.3     
  43 C43            7.1185    -1.5288     9.8768 C.3     
  44 O44            8.2370    -0.9405     9.2100 O.3     
  45 C45            2.6615    -0.2523     9.8519 C.3     
  46 C46            1.1898    -0.6733     9.9024 C.3     
  47 O47            0.7460    -1.0061     8.5855 O.3     
  48 C48            0.3381     0.4727    10.4510 C.3     
  49 O49            0.7272     0.7607    11.7955 O.3     
  50 C50            0.5658     1.7120     9.5693 C.3     
  51 O51            0.1722     1.3923     8.2357 O.3     
  52 C52            2.0596     2.0590     9.5800 C.3     
  53 O53            2.7902     0.9383     9.0754 O.3     
  54 C54            2.5066     2.3615    11.0117 C.3     
  55 O55            3.8536     2.8387    10.9993 O.3     
  56 C56           -0.4923     2.4538     7.5309 C.3     
  57 C57           -1.7999     1.9133     6.9779 C.3     
  58 O58           -2.1184     0.6740     7.6142 O.3     
  59 C59           -1.6192     1.6922     5.4760 C.3     
  60 O60           -2.8087     1.1240     4.9243 O.3     
  61 C61           -1.3489     3.0449     4.8336 C.3     
  62 O62           -0.9079     2.8199     3.4839 O.3     
  63 C63           -0.2631     3.7917     5.5880 C.3     
  64 O64            0.3635     2.8770     6.4834 O.3     
  65 C65           -0.8833     4.9456     6.3784 C.3     
  66 O66            0.1534     5.7142     6.9919 O.3     
  67 C67           -1.9282     2.9557     2.4979 C.3     
  68 C68           -2.3960     1.5824     2.0222 C.3     
  69 O69           -1.5703     0.5688     2.5991 O.3     
  70 C70           -2.2872     1.5262     0.4976 C.3     
  71 O71           -3.1374     2.5199    -0.0785 O.3     
  72 C72           -0.8439     1.7915     0.0873 C.3     
  73 O73           -0.0081     0.6986     0.4708 O.3     
  74 C74           -0.3477     3.0875     0.7189 C.3     
  75 O75           -1.4420     3.7136     1.3934 O.3     
  76 C76            0.1847     4.0195    -0.3715 C.3     
  77 O77            0.7546     5.1825     0.2324 O.3     
  78 H78            0.2657     0.4511    -1.5640 H       
  79 H79           -0.4603    -1.7074    -0.6591 H       
  80 H80            0.5560    -1.4844     1.4882 H       
  81 H81            1.3919    -3.1535    -1.5262 H       
  82 H82           -0.0060    -1.9682    -3.0647 H       
  83 H83            3.4818    -2.0105    -2.2857 H       
  84 H84            3.9131     0.3135    -1.4835 H       
  85 H85            2.8850    -0.1335    -3.7530 H       
  86 H86            1.2839     0.1345    -3.0231 H       
  87 H87            2.1825     2.1403    -3.9585 H       
  88 H88            4.7509    -3.0675    -1.2898 H       
  89 H89            3.3564    -4.6343     0.0117 H       
  90 H90            3.0487    -3.2340     1.9248 H       
  91 H91            5.2209    -5.9103     1.0970 H       
  92 H92            5.0100    -5.8984    -1.2797 H       
  93 H93            7.5099    -4.8913     0.9706 H       
  94 H94            7.6115    -2.3905     0.8460 H       
  95 H95            8.1002    -3.8868    -1.1022 H       
  96 H96            6.4006    -3.7342    -1.6084 H       
  97 H97            7.7959    -2.1155    -2.6756 H       
  98 H98            7.6563    -5.6550     2.6382 H       
  99 H99            6.1520    -6.6848     3.9548 H       
 100 H100           4.5508    -4.9367     3.5946 H       
 101 H101           6.4398    -6.2390     6.3731 H       
 102 H102           8.3037    -7.1694     5.1880 H       
 103 H103           7.8495    -4.2099     6.9768 H       
 104 H104           6.9524    -2.7034     4.6222 H       
 105 H105           8.5368    -1.9481     6.4308 H       
 106 H106           9.7016    -3.1696     5.8656 H       
 107 H107          10.0712    -1.0450     4.8384 H       
 108 H108           6.8457    -3.5050     8.3813 H       
 109 H109           4.8339    -4.8681     8.7505 H       
 110 H110           3.4692    -3.8363     7.0851 H       
 111 H111           3.8088    -3.5374    10.6040 H       
 112 H112           5.9812    -4.4956    10.8986 H       
 113 H113           4.6244    -1.1929    10.9250 H       
 114 H114           5.7769    -0.0795     9.0109 H       
 115 H115           7.0679    -1.1557    10.8997 H       
 116 H116           7.2326    -2.6127     9.8907 H       
 117 H117           9.0885    -1.1324     9.6261 H       
 118 H118           3.0246    -0.0718    10.8621 H       
 119 H119           1.0843    -1.5433    10.5506 H       
 120 H120           1.2372    -1.7318     8.1766 H       
 121 H121          -0.7149     0.1921    10.4258 H       
 122 H122           0.6245     0.0153    12.4029 H       
 123 H123          -0.0128     2.5448     9.9492 H       
 124 H124           2.2382     2.9278     8.9465 H       
 125 H125           1.8556     3.1221    11.4425 H       
 126 H126           2.4487     1.4523    11.6101 H       
 127 H127           4.2037     3.0509    11.8754 H       
 128 H128          -0.6835     3.2670     8.2310 H       
 129 H129          -2.5996     2.6333     7.1520 H       
 130 H130          -2.2229     0.7398     8.5733 H       
 131 H131          -0.7758     1.0245     5.3003 H       
 132 H132          -3.0515     0.2704     5.3084 H       
 133 H133          -2.2630     3.6400     4.8099 H       
 134 H134           0.4730     4.1805     4.8844 H       
 135 H135          -1.4563     5.5816     5.7036 H       
 136 H136          -1.5430     4.5453     7.1483 H       
 137 H137          -0.1676     6.4644     7.5108 H       
 138 H138          -2.7803     3.4856     2.9388 H       
 139 H139          -3.4318     1.4249     2.3229 H       
 140 H140          -1.5828     0.5542     3.5659 H       
 141 H141          -2.5906     0.5398     0.1470 H       
 142 H142          -4.0724     2.4148     0.1445 H       
 143 H143          -0.7987     1.8918    -1.0049 H       
 144 H144           0.4447     2.8663     1.4340 H       
 145 H145           0.9474     3.5008    -0.9522 H       
 146 H146          -0.6336     4.3150    -1.0282 H       
 147 H147           1.1129     5.8191    -0.4012 H       
@<TRIPOS>BOND
   1    1    2 1
   2    1    9 1
   3    1   73 1
   4    1   78 1
   5    2    3 1
   6    2    4 1
   7    2   79 1
   8    3   80 1
   9    4    5 1
  10    4    6 1
  11    4   81 1
  12    5   82 1
  13    6    7 1
  14    6    8 1
  15    6   83 1
  16    7   12 1
  17    8    9 1
  18    8   10 1
  19    8   84 1
  20   10   11 1
  21   10   85 1
  22   10   86 1
  23   11   87 1
  24   12   13 1
  25   12   20 1
  26   12   88 1
  27   13   14 1
  28   13   15 1
  29   13   89 1
  30   14   90 1
  31   15   16 1
  32   15   17 1
  33   15   91 1
  34   16   92 1
  35   17   18 1
  36   17   19 1
  37   17   93 1
  38   18   23 1
  39   19   20 1
  40   19   21 1
  41   19   94 1
  42   21   22 1
  43   21   95 1
  44   21   96 1
  45   22   97 1
  46   23   24 1
  47   23   31 1
  48   23   98 1
  49   24   25 1
  50   24   26 1
  51   24   99 1
  52   25  100 1
  53   26   27 1
  54   26   28 1
  55   26  101 1
  56   27  102 1
  57   28   29 1
  58   28   30 1
  59   28  103 1
  60   29   34 1
  61   30   31 1
  62   30   32 1
  63   30  104 1
  64   32   33 1
  65   32  105 1
  66   32  106 1
  67   33  107 1
  68   34   35 1
  69   34   42 1
  70   34  108 1
  71   35   36 1
  72   35   37 1
  73   35  109 1
  74   36  110 1
  75   37   38 1
  76   37   39 1
  77   37  111 1
  78   38  112 1
  79   39   40 1
  80   39   41 1
  81   39  113 1
  82   40   45 1
  83   41   42 1
  84   41   43 1
  85   41  114 1
  86   43   44 1
  87   43  115 1
  88   43  116 1
  89   44  117 1
  90   45   46 1
  91   45   53 1
  92   45  118 1
  93   46   47 1
  94   46   48 1
  95   46  119 1
  96   47  120 1
  97   48   49 1
  98   48   50 1
  99   48  121 1
 100   49  122 1
 101   50   51 1
 102   50   52 1
 103   50  123 1
 104   51   56 1
 105   52   53 1
 106   52   54 1
 107   52  124 1
 108   54   55 1
 109   54  125 1
 110   54  126 1
 111   55  127 1
 112   56   57 1
 113   56   64 1
 114   56  128 1
 115   57   58 1
 116   57   59 1
 117   57  129 1
 118   58  130 1
 119   59   60 1
 120   59   61 1
 121   59  131 1
 122   60  132 1
 123   61   62 1
 124   61   63 1
 125   61  133 1
 126   62   67 1
 127   63   64 1
 128   63   65 1
 129   63  134 1
 130   65   66 1
 131   65  135 1
 132   65  136 1
 133   66  137 1
 134   67   68 1
 135   67   75 1
 136   67  138 1
 137   68   69 1
 138   68   70 1
 139   68  139 1
 140   69  140 1
 141   70   71 1
 142   70   72 1
 143   70  141 1
 144   71  142 1
 145   72   73 1
 146   72   74 1
 147   72  143 1
 148   74   75 1
 149   74   76 1
 150   74  144 1
 151   76   77 1
 152   76  145 1
 153   76  146 1
 154   77  147 1

#	End of record

