#	Name: ASD05420002
#	Creating user name:	WinNT
#	Creation time:	15. 06. 2019 20:59

#	Modifying user name:	WinNT
#	Modification time:	15. 06. 2019 20:59

#	Program:	/corina/corina34_cracker 3.40 0067  02.08.2006

@<TRIPOS>MOLECULE
ASD05420002
  40   41    0    0    0
SMALL
NO_CHARGES


@<TRIPOS>ATOM
   1 C1            -0.0657     1.5178     0.0465 C.ar    
   2 C2            -0.0607     0.1333     0.0668 C.ar    
   3 C3             1.1414    -0.5536     0.0707 C.ar    
   4 C4             2.3348     0.1431     0.0544 C.ar    
   5 C5             2.3286     1.5254     0.0342 C.ar    
   6 C6             1.1289     2.2123     0.0303 C.ar    
   7 F7            -1.2280    -0.5467     0.0832 F       
   8 C8             3.6307     2.2840     0.0169 C.3     
   9 N9             4.0461     2.5096    -1.3697 N.pl3   
  10 C10            5.2347     3.1990    -1.6414 C.ar    
  11 C11            5.6283     3.4128    -2.9566 C.ar    
  12 C12            6.8060     4.0964    -3.2238 C.ar    
  13 C13            7.5900     4.5664    -2.1714 C.ar    
  14 C14            7.1920     4.3501    -0.8609 C.ar    
  15 C15            6.0161     3.6736    -0.5963 C.ar    
  16 F16            4.8660     2.9553    -3.9738 F       
  17 N17            7.2064     4.3135    -4.5486 N.pl3   
  18 N18            8.7827     5.2583    -2.4384 N.am    
  19 C19            9.7756     5.2661    -1.5271 C.2     
  20 O20            9.6120     4.7367    -0.4456 O.2     
  21 O21           10.9492     5.8605    -1.8151 O.3     
  22 C22           13.2255     6.5497    -1.2920 C.3     
  23 C23           11.9733     5.8304    -0.7863 C.3     
  24 H24           -1.0028     2.0546     0.0389 H       
  25 H25            1.1465    -1.6335     0.0869 H       
  26 H26            3.2727    -0.3925     0.0579 H       
  27 H27            1.1253     3.2922     0.0144 H       
  28 H28            3.4989     3.2433     0.5174 H       
  29 H29            4.3951     1.7055     0.5357 H       
  30 H30            3.4980     2.1815    -2.0997 H       
  31 H31            7.7999     4.7140    -0.0458 H       
  32 H32            5.7086     3.5065     0.4255 H       
  33 H33            6.6603     3.9858    -5.2802 H       
  34 H34            8.0298     4.7915    -4.7343 H       
  35 H35            8.8918     5.7305    -3.2786 H       
  36 H36           13.5951     6.0498    -2.1873 H       
  37 H37           12.9791     7.5846    -1.5292 H       
  38 H38           13.9943     6.5271    -0.5196 H       
  39 H39           11.6038     6.3304     0.1090 H       
  40 H40           12.2197     4.7955    -0.5490 H       
@<TRIPOS>BOND
   1    1    2 ar
   2    1    6 ar
   3    1   24 1
   4    2    3 ar
   5    2    7 1
   6    3    4 ar
   7    3   25 1
   8    4    5 ar
   9    4   26 1
  10    5    6 ar
  11    5    8 1
  12    6   27 1
  13    8    9 1
  14    8   28 1
  15    8   29 1
  16    9   10 1
  17    9   30 1
  18   10   11 ar
  19   10   15 ar
  20   11   12 ar
  21   11   16 1
  22   12   13 ar
  23   12   17 1
  24   13   14 ar
  25   13   18 1
  26   14   15 ar
  27   14   31 1
  28   15   32 1
  29   17   33 1
  30   17   34 1
  31   18   19 am
  32   18   35 1
  33   19   20 2
  34   19   21 1
  35   21   23 1
  36   22   23 1
  37   22   36 1
  38   22   37 1
  39   22   38 1
  40   23   39 1
  41   23   40 1

#	End of record

