#	Name: ASD02508372
#	Creating user name:	WinNT
#	Creation time:	15. 06. 2019 20:24

#	Modifying user name:	WinNT
#	Modification time:	15. 06. 2019 20:24

#	Program:	/corina/corina34_cracker 3.40 0067  02.08.2006

@<TRIPOS>MOLECULE
ASD02508372
  43   45    0    0    0
SMALL
NO_CHARGES


@<TRIPOS>ATOM
   1 C1            -0.1931     1.7616     0.2768 C.2     
   2 C2            -0.1749     0.3619     0.4444 C.2     
   3 C3             1.1130    -0.0342     0.4033 C.2     
   4 N4             1.8937     1.0714     0.2160 N.pl3   
   5 C5             1.0844     2.1697     0.1394 C.2     
   6 C6             3.2884     1.0780     0.1194 C.ar    
   7 C7             4.0291     1.9572     0.9020 C.ar    
   8 N8             3.8917     0.2441    -0.7116 N.ar    
   9 C9             5.2050     0.2170    -0.8333 C.ar    
  10 C10            6.0030     1.0654    -0.0913 C.ar    
  11 C11            5.4101     1.9526     0.7964 C.ar    
  12 S12            1.6900    -1.6913     0.5639 S.o2    
  13 O13            1.6055    -2.2728    -0.7299 O.2     
  14 O14            2.8982    -1.6251     1.3089 O.2     
  15 N15            0.5997    -2.5002     1.5122 N.am    
  16 C16            0.3841    -2.0935     2.8309 C.ar    
  17 C17           -0.9099    -1.9957     3.3265 C.ar    
  18 C18            1.2468    -1.3900     4.9550 C.ar    
  19 C19            1.4635    -1.7914     3.6515 C.ar    
  20 C20           -1.1194    -1.5936     4.6310 C.ar    
  21 C21           -0.0429    -1.2886     5.4436 C.ar    
  22 Cl22           3.2338     3.0457     1.9957 Cl      
  23 C23            2.4172    -1.0620     5.8460 C.3     
  24 C24           -2.5229    -1.4867     5.1694 C.3     
  25 C25            7.5021     1.0245    -0.2397 C.3     
  26 F26            7.8510     0.0520    -1.1829 F       
  27 F27            7.9627     2.2746    -0.6667 F       
  28 F28            8.0842     0.7091     0.9926 F       
  29 H29           -1.0704     2.3912     0.2573 H       
  30 H30           -1.0354    -0.2763     0.5808 H       
  31 H31            1.4115     3.1886    -0.0064 H       
  32 H32            5.6622    -0.4780    -1.5221 H       
  33 H33            6.0116     2.6265     1.3883 H       
  34 H34            0.1108    -3.2566     1.1519 H       
  35 H35           -1.7511    -2.2334     2.6923 H       
  36 H36            2.4710    -1.8707     3.2706 H       
  37 H37           -0.2095    -0.9744     6.4634 H       
  38 H38            2.6595    -0.0034     5.7525 H       
  39 H39            2.1596    -1.2858     6.8812 H       
  40 H40            3.2788    -1.6597     5.5486 H       
  41 H41           -2.8174    -2.4401     5.6081 H       
  42 H42           -2.5613    -0.7087     5.9318 H       
  43 H43           -3.2051    -1.2340     4.3578 H       
@<TRIPOS>BOND
   1    1    2 1
   2    1    5 2
   3    1   29 1
   4    2    3 2
   5    2   30 1
   6    3    4 1
   7    3   12 1
   8    4    5 1
   9    4    6 1
  10    5   31 1
  11    6    7 ar
  12    6    8 ar
  13    7   22 1
  14    7   11 ar
  15    8    9 ar
  16    9   10 ar
  17    9   32 1
  18   10   11 ar
  19   10   25 1
  20   11   33 1
  21   12   13 2
  22   12   14 2
  23   12   15 am
  24   15   16 1
  25   15   34 1
  26   16   17 ar
  27   16   19 ar
  28   17   20 ar
  29   17   35 1
  30   18   19 ar
  31   18   23 1
  32   18   21 ar
  33   19   36 1
  34   20   21 ar
  35   20   24 1
  36   21   37 1
  37   23   38 1
  38   23   39 1
  39   23   40 1
  40   24   41 1
  41   24   42 1
  42   24   43 1
  43   25   26 1
  44   25   27 1
  45   25   28 1

#	End of record

