#	Name: ASD01150402
#	Creating user name:	WinNT
#	Creation time:	15. 06. 2019 19:04

#	Modifying user name:	WinNT
#	Modification time:	15. 06. 2019 19:04

#	Program:	/corina/corina34_cracker 3.40 0067  02.08.2006

@<TRIPOS>MOLECULE
ASD01150402
  43   45    0    0    0
SMALL
NO_CHARGES


@<TRIPOS>ATOM
   1 C1             0.3806     1.5257     0.7458 C.ar    
   2 C2             0.4561     0.1760     1.0298 C.ar    
   3 C3             1.2862    -0.6436     0.2890 C.ar    
   4 C4             2.0476    -0.1122    -0.7441 C.ar    
   5 C5             1.9738     1.2431    -1.0324 C.ar    
   6 C6             1.1393     2.0635    -0.2868 C.ar    
   7 N7             1.0620     3.4311    -0.5743 N.am    
   8 C8            -0.1427     4.0150    -0.7031 C.2     
   9 N9            -0.2507     5.3282    -0.9789 N.am    
  10 C10            0.8592     6.0799    -1.1309 C.2     
  11 C11            2.1742     5.4484    -0.9915 C.2     
  12 N12            2.2395     4.1744    -0.7182 N.2     
  13 O13            0.7695     7.2677    -1.3811 O.2     
  14 C14           -1.5743     5.9413    -1.1145 C.3     
  15 O15           -1.1494     3.3466    -0.5688 O.2     
  16 C16           -2.0356     6.4430     0.2296 C.ar    
  17 C17           -1.7389     7.7295     0.6346 C.ar    
  18 N18           -2.1387     8.1771     1.8095 N.ar    
  19 C19           -2.8332     7.4212     2.6399 C.ar    
  20 C20           -3.1679     6.1202     2.3005 C.ar    
  21 C21           -2.7684     5.6196     1.0724 C.ar    
  22 N22            2.8886    -0.9427    -1.4931 N.am    
  23 C23            2.5155    -2.2084    -1.7676 C.2     
  24 O24            1.4908    -2.6543    -1.2962 O.2     
  25 C25            3.3714    -3.0695    -2.6603 C.3     
  26 C26            3.4332     6.2602    -1.1559 C.3     
  27 F27           -3.2213     7.9214     3.8334 F       
  28 H28           -0.2723     2.1629     1.3239 H       
  29 H29           -0.1346    -0.2395     1.8327 H       
  30 H30            1.3433    -1.6984     0.5138 H       
  31 H31            2.5651     1.6587    -1.8349 H       
  32 H32           -1.5185     6.7754    -1.8139 H       
  33 H33           -2.2813     5.2006    -1.4880 H       
  34 H34           -1.1724     8.3770    -0.0183 H       
  35 H35           -3.7359     5.5055     2.9832 H       
  36 H36           -3.0151     4.6094     0.7807 H       
  37 H37            3.7402    -0.6076    -1.8148 H       
  38 H38            4.3626    -3.1769    -2.2198 H       
  39 H39            2.9122    -4.0524    -2.7658 H       
  40 H40            3.4585    -2.6020    -3.6412 H       
  41 H41            3.7316     6.6674    -0.1898 H       
  42 H42            4.2284     5.6232    -1.5430 H       
  43 H43            3.2501     7.0773    -1.8537 H       
@<TRIPOS>BOND
   1    1    2 ar
   2    1    6 ar
   3    1   28 1
   4    2    3 ar
   5    2   29 1
   6    3    4 ar
   7    3   30 1
   8    4    5 ar
   9    4   22 1
  10    5    6 ar
  11    5   31 1
  12    6    7 1
  13    7    8 am
  14    7   12 1
  15    8    9 am
  16    8   15 2
  17    9   10 am
  18    9   14 1
  19   10   11 1
  20   10   13 2
  21   11   12 2
  22   11   26 1
  23   14   16 1
  24   14   32 1
  25   14   33 1
  26   16   17 ar
  27   16   21 ar
  28   17   18 ar
  29   17   34 1
  30   18   19 ar
  31   19   20 ar
  32   19   27 1
  33   20   21 ar
  34   20   35 1
  35   21   36 1
  36   22   23 am
  37   22   37 1
  38   23   24 2
  39   23   25 1
  40   25   38 1
  41   25   39 1
  42   25   40 1
  43   26   41 1
  44   26   42 1
  45   26   43 1

#	End of record

