#	Name: ASD06020130
#	Creating user name:	WinNT
#	Creation time:	15. 06. 2019 21:04

#	Modifying user name:	WinNT
#	Modification time:	15. 06. 2019 21:04

#	Program:	/corina/corina34_cracker 3.40 0067  02.08.2006

@<TRIPOS>MOLECULE
ASD06020130
  41   44    0    0    0
SMALL
NO_CHARGES


@<TRIPOS>ATOM
   1 C1             0.0070    -0.0032     0.0571 C.1     
   2 C2            -0.0132     1.4287     0.0548 C.ar    
   3 C3             1.1855     2.1414     0.0335 C.ar    
   4 C4             1.1644     3.5326     0.0312 C.ar    
   5 C5             2.3915     4.2704     0.0089 C.1     
   6 C6            -0.0702     4.2127     0.0505 C.ar    
   7 C7            -1.2625     3.4876     0.0717 C.ar    
   8 C8            -1.2345     2.1091     0.0680 C.ar    
   9 N9             0.0230    -1.1391     0.0590 N.1     
  10 N10            3.3650     4.8556    -0.0087 N.1     
  11 C11           -0.9478     9.4888     0.0564 C.ar    
  12 C12           -0.5975     8.1338     0.0531 C.ar    
  13 C13            0.7548     7.7706     0.0314 C.ar    
  14 C14            1.7052     8.8238     0.0137 C.ar    
  15 C15            1.2767    10.1133     0.0184 C.ar    
  16 N16           -0.0110    10.4205     0.0391 N.ar    
  17 S17           -1.5655     6.6640     0.0713 S.3     
  18 C18           -0.1018     5.6887     0.0487 C.2     
  19 N19            0.9431     6.4515     0.0304 N.2     
  20 N20           -2.2901     9.8568     0.0721 N.pl3   
  21 C21           -2.0407    13.3926     0.4980 C.ar    
  22 N22           -1.7106    12.1216     0.3886 N.ar    
  23 C23           -2.6413    11.1936     0.1872 C.ar    
  24 C24           -3.9780    11.5865     0.0931 C.ar    
  25 C25           -4.2765    12.9295     0.2140 C.ar    
  26 N26           -3.2926    13.7952     0.4138 N.ar    
  27 C27           -5.7033    13.4051     0.1193 C.3     
  28 C28           -0.9571    14.4134     0.7322 C.3     
  29 Cl29          -2.7841     4.3231     0.0955 Cl      
  30 H30            2.1281     1.6145     0.0191 H       
  31 H31           -2.1599     1.5525     0.0796 H       
  32 H32            2.7621     8.6021    -0.0030 H       
  33 H33            2.0065    10.9093     0.0052 H       
  34 H34           -2.9798     9.1784     0.0025 H       
  35 H35           -4.7588    10.8585    -0.0705 H       
  36 H36           -6.1530    13.4049     1.1123 H       
  37 H37           -5.7231    14.4158    -0.2883 H       
  38 H38           -6.2659    12.7386    -0.5344 H       
  39 H39           -0.5858    14.7755    -0.2265 H       
  40 H40           -1.3620    15.2484     1.3038 H       
  41 H41           -0.1398    13.9545     1.2885 H       
@<TRIPOS>BOND
   1    1    2 1
   2    1    9 3
   3    2    3 ar
   4    2    8 ar
   5    3    4 ar
   6    3   30 1
   7    4    5 1
   8    4    6 ar
   9    5   10 3
  10    6    7 ar
  11    6   18 1
  12    7    8 ar
  13    7   29 1
  14    8   31 1
  15   11   12 ar
  16   11   16 ar
  17   11   20 1
  18   12   13 ar
  19   12   17 1
  20   13   14 ar
  21   13   19 1
  22   14   15 ar
  23   14   32 1
  24   15   16 ar
  25   15   33 1
  26   17   18 1
  27   18   19 2
  28   20   23 1
  29   20   34 1
  30   21   22 ar
  31   21   26 ar
  32   21   28 1
  33   22   23 ar
  34   23   24 ar
  35   24   25 ar
  36   24   35 1
  37   25   26 ar
  38   25   27 1
  39   27   36 1
  40   27   37 1
  41   27   38 1
  42   28   39 1
  43   28   40 1
  44   28   41 1

#	End of record

