#	Name: ASD03320015
#	Creating user name:	WinNT
#	Creation time:	15. 06. 2019 20:35

#	Modifying user name:	WinNT
#	Modification time:	15. 06. 2019 20:35

#	Program:	/corina/corina34_cracker 3.40 0067  02.08.2006

@<TRIPOS>MOLECULE
ASD03320015
  63   67    0    0    0
SMALL
NO_CHARGES


@<TRIPOS>ATOM
   1 C1             2.1233    -1.4002    -2.0633 C.ar    
   2 C2             1.0081    -0.8110    -1.4679 C.ar    
   3 C3             3.3804    -0.8887    -1.8289 C.ar    
   4 C4             3.5383     0.2201    -0.9947 C.ar    
   5 C5             2.4211     0.8092    -0.3990 C.ar    
   6 C6             1.1647     0.2964    -0.6346 C.ar    
   7 C7             4.8872     0.7695    -0.7421 C.2     
   8 N8             5.9046    -0.0580    -0.4315 N.am    
   9 O9             5.0788     1.9677    -0.8146 O.2     
  10 C10           -0.3454    -1.3623    -1.7213 C.ar    
  11 C11           -1.4663    -0.7829    -1.1327 C.ar    
  12 C12           -2.7161    -1.3402    -1.4040 C.ar    
  13 N13           -2.7904    -2.3967    -2.2089 N.ar    
  14 C14           -1.7049    -2.9161    -2.7468 C.ar    
  15 N15           -0.5080    -2.4174    -2.5211 N.ar    
  16 N16           -3.8636    -0.8013    -0.8426 N.pl3   
  17 C17           -5.1081    -1.3884    -1.0953 C.ar    
  18 C18           -6.2572    -0.6067    -1.1073 C.ar    
  19 C19           -7.4851    -1.1898    -1.3572 C.ar    
  20 C20           -7.5705    -2.5502    -1.5949 C.ar    
  21 C21           -6.4276    -3.3305    -1.5835 C.ar    
  22 C22           -5.1971    -2.7524    -1.3404 C.ar    
  23 C23            7.2734     0.4588    -0.2923 C.3     
  24 C24            7.8070     0.0666     1.0910 C.3     
  25 N25            7.5675    -1.3687     1.2972 N.am    
  26 C26            6.1987    -1.8855     1.1580 C.3     
  27 C27            5.6642    -1.4923    -0.2198 C.3     
  28 C28            8.5849    -2.1962     1.6078 C.2     
  29 C29            8.3445    -3.6499     1.7298 C.ar    
  30 O30            9.7001    -1.7474     1.7878 O.2     
  31 C31            9.2230    -4.5577     1.1367 C.ar    
  32 C32            8.9929    -5.9131     1.2542 C.ar    
  33 C33            7.8942    -6.3727     1.9580 C.ar    
  34 C34            7.0189    -5.4779     2.5481 C.ar    
  35 C35            7.2409    -4.1205     2.4434 C.ar    
  36 Cl36          -6.1503     1.1000    -0.8080 Cl      
  37 Cl37          -9.1145    -3.2797    -1.9074 Cl      
  38 C38            5.8244    -5.9876     3.3125 C.3     
  39 F39            5.8155    -7.3864     3.2852 F       
  40 F40            5.8968    -5.5476     4.6385 F       
  41 F41            4.6520    -5.5023     2.7234 F       
  42 H42            2.0014    -2.2604    -2.7048 H       
  43 H43            4.2439    -1.3452    -2.2898 H       
  44 H44            2.5422     1.6666     0.2466 H       
  45 H45            0.3006     0.7519    -0.1740 H       
  46 H46           -1.3707     0.0748    -0.4833 H       
  47 H47           -1.8011    -3.7741    -3.3956 H       
  48 H48           -3.8036    -0.0173    -0.2746 H       
  49 H49           -8.3786    -0.5832    -1.3667 H       
  50 H50           -6.4975    -4.3921    -1.7693 H       
  51 H51           -4.3057    -3.3622    -1.3317 H       
  52 H52            7.9082     0.0259    -1.0655 H       
  53 H53            7.2658     1.5446    -0.3872 H       
  54 H54            8.8767     0.2699     1.1416 H       
  55 H55            7.2867     0.6384     1.8594 H       
  56 H56            6.2063    -2.9713     1.2529 H       
  57 H57            5.5639    -1.4526     1.9312 H       
  58 H58            4.5945    -1.6962    -0.2690 H       
  59 H59            6.1836    -2.0625    -0.9900 H       
  60 H60           10.0809    -4.2001     0.5867 H       
  61 H61            9.6718    -6.6166     0.7954 H       
  62 H62            7.7186    -7.4346     2.0471 H       
  63 H63            6.5571    -3.4232     2.9044 H       
@<TRIPOS>BOND
   1    1    2 ar
   2    1    3 ar
   3    1   42 1
   4    2   10 1
   5    2    6 ar
   6    3    4 ar
   7    3   43 1
   8    4    5 ar
   9    4    7 1
  10    5    6 ar
  11    5   44 1
  12    6   45 1
  13    7    8 am
  14    7    9 2
  15    8   23 1
  16    8   27 1
  17   10   11 ar
  18   10   15 ar
  19   11   12 ar
  20   11   46 1
  21   12   13 ar
  22   12   16 1
  23   13   14 ar
  24   14   15 ar
  25   14   47 1
  26   16   17 1
  27   16   48 1
  28   17   18 ar
  29   17   22 ar
  30   18   19 ar
  31   18   36 1
  32   19   20 ar
  33   19   49 1
  34   20   21 ar
  35   20   37 1
  36   21   22 ar
  37   21   50 1
  38   22   51 1
  39   23   24 1
  40   23   52 1
  41   23   53 1
  42   24   25 1
  43   24   54 1
  44   24   55 1
  45   25   26 1
  46   25   28 am
  47   26   27 1
  48   26   56 1
  49   26   57 1
  50   27   58 1
  51   27   59 1
  52   28   29 1
  53   28   30 2
  54   29   31 ar
  55   29   35 ar
  56   31   32 ar
  57   31   60 1
  58   32   33 ar
  59   32   61 1
  60   33   34 ar
  61   33   62 1
  62   34   35 ar
  63   34   38 1
  64   35   63 1
  65   38   39 1
  66   38   40 1
  67   38   41 1

#	End of record

