#	Name: ASD01814370
#	Creating user name:	WinNT
#	Creation time:	15. 06. 2019 19:32

#	Modifying user name:	WinNT
#	Modification time:	15. 06. 2019 19:32

#	Program:	/corina/corina34_cracker 3.40 0067  02.08.2006

@<TRIPOS>MOLECULE
ASD01814370
  44   47    0    0    0
SMALL
NO_CHARGES


@<TRIPOS>ATOM
   1 C1            -0.0149     1.3825    -0.1209 C.ar    
   2 C2             0.0026    -0.0052    -0.0249 C.ar    
   3 C3             1.1792    -0.6874     0.0667 C.ar    
   4 C4             2.3937     0.0156     0.0646 C.ar    
   5 C5             2.3720     1.4282    -0.0332 C.ar    
   6 C6             1.1473     2.0972    -0.1258 C.ar    
   7 C7             3.6268    -0.6632     0.1577 C.ar    
   8 C8             4.8005     0.0127     0.1554 C.ar    
   9 C9             4.8346     1.4127     0.0605 C.ar    
  10 C10            3.6407     2.1507    -0.0346 C.ar    
  11 C11            6.1012     2.1559     0.0561 C.2     
  12 N12            6.0328     3.5041    -0.0399 N.am    
  13 C13            4.8315     4.1280    -0.1275 C.2     
  14 N14            3.6976     3.4899    -0.1258 N.2     
  15 C15            3.6384    -2.1666     0.2619 C.3     
  16 O16            7.1719     1.5812     0.1362 O.2     
  17 C17            7.2655     4.2957    -0.0490 C.3     
  18 C18            7.3517     5.0903    -1.3536 C.3     
  19 C19            6.1449     6.0245    -1.4625 C.3     
  20 C20            6.1392     6.9907    -0.2762 C.3     
  21 C21            6.0530     6.1960     1.0284 C.3     
  22 C22            7.2598     5.2619     1.1373 C.3     
  23 Cl23           3.7065    -2.8831    -1.3912 Cl      
  24 N24            7.3572     4.1626    -2.4926 N.3     
  25 H25           -0.9597     1.9001    -0.1969 H       
  26 H26           -0.9298    -0.5501    -0.0226 H       
  27 H27            1.1766    -1.7648     0.1409 H       
  28 H28            1.1217     3.1743    -0.2011 H       
  29 H29            5.7279    -0.5359     0.2284 H       
  30 H30            4.8156     5.2053    -0.2021 H       
  31 H31            4.5114    -2.4845     0.8319 H       
  32 H32            2.7327    -2.5028     0.7666 H       
  33 H33            8.1252     3.6302     0.0286 H       
  34 H34            8.2689     5.6793    -1.3603 H       
  35 H35            6.2064     6.5906    -2.3919 H       
  36 H36            5.2278     5.4355    -1.4557 H       
  37 H37            7.0564     7.5797    -0.2829 H       
  38 H38            5.2795     7.6562    -0.3537 H       
  39 H39            6.0489     6.8844     1.8736 H       
  40 H40            5.1358     5.6071     1.0351 H       
  41 H41            7.1984     4.6958     2.0667 H       
  42 H42            8.1769     5.8509     1.1306 H       
  43 H43            7.4136     4.6635    -3.3666 H       
  44 H44            8.1078     3.4934    -2.4102 H       
@<TRIPOS>BOND
   1    1    2 ar
   2    1    6 ar
   3    1   25 1
   4    2    3 ar
   5    2   26 1
   6    3    4 ar
   7    3   27 1
   8    4    5 ar
   9    4    7 ar
  10    5    6 ar
  11    5   10 ar
  12    6   28 1
  13    7    8 ar
  14    7   15 1
  15    8    9 ar
  16    8   29 1
  17    9   10 ar
  18    9   11 1
  19   10   14 1
  20   11   12 am
  21   11   16 2
  22   12   13 1
  23   12   17 1
  24   13   14 2
  25   13   30 1
  26   15   23 1
  27   15   31 1
  28   15   32 1
  29   17   18 1
  30   17   22 1
  31   17   33 1
  32   18   19 1
  33   18   24 1
  34   18   34 1
  35   19   20 1
  36   19   35 1
  37   19   36 1
  38   20   21 1
  39   20   37 1
  40   20   38 1
  41   21   22 1
  42   21   39 1
  43   21   40 1
  44   22   41 1
  45   22   42 1
  46   24   43 1
  47   24   44 1

#	End of record

