#	Name: ASD00100046
#	Creating user name:	WinNT
#	Creation time:	15. 06. 2019 18:30

#	Modifying user name:	WinNT
#	Modification time:	15. 06. 2019 18:30

#	Program:	/corina/corina34_cracker 3.40 0067  02.08.2006

@<TRIPOS>MOLECULE
ASD00100046
  69   73    0    0    0
SMALL
NO_CHARGES


@<TRIPOS>ATOM
   1 C1            -0.0184     1.5028     0.0103 C.2     
   2 C2             0.0021    -0.0041     0.0020 C.3     
   3 O3             1.0236     2.1234     0.0037 O.2     
   4 N4            -1.1946     2.1607     0.0195 N.am    
   5 C5             1.4513    -0.4944    -0.0145 C.3     
   6 C6             1.5861    -2.0221     0.0989 C.3     
   7 C7             2.7130    -1.9211    -0.9426 C.3     
   8 C8             2.0410    -0.6261    -1.4286 C.3     
   9 C9            -1.2145     3.6256     0.0275 C.3     
  10 C10           -2.5315     4.1210    -0.5732 C.3     
  11 C11           -2.5522     5.6509    -0.5648 C.3     
  12 C12           -2.4266     6.1547     0.8744 C.3     
  13 C13           -1.1096     5.6592     1.4751 C.3     
  14 C14           -1.0888     4.1294     1.4667 C.3     
  15 C15           -2.4474     7.6846     0.8828 C.3     
  16 C16           -2.4475     8.1867     2.3281 C.3     
  17 N17           -2.4674     9.6555     2.3362 N.3     
  18 C18           -2.7062    10.1711     3.6902 C.3     
  19 C19           -2.8652    11.6923     3.6376 C.3     
  20 C20           -1.5944    12.3135     3.0515 C.3     
  21 C21           -1.3419    11.7238     1.6611 C.3     
  22 C22           -1.2270    10.2018     1.7711 C.3     
  23 O23           -2.5446    15.7860     2.3730 O.3     
  24 C24           -2.6989    14.4580     2.2312 C.2     
  25 C25           -1.7681    13.8064     2.9414 C.2     
  26 C26           -0.9519    14.8391     3.5910 C.ar    
  27 C27           -1.5041    16.0654     3.1838 C.ar    
  28 C28            0.1497    14.8163     4.4446 C.ar    
  29 C29            0.6932    16.0028     4.8860 C.ar    
  30 C30            0.1485    17.2137     4.4844 C.ar    
  31 C31           -0.9410    17.2499     3.6405 C.ar    
  32 H32           -0.4983    -0.3791     0.8948 H       
  33 H33           -0.5153    -0.3696    -0.8850 H       
  34 H34           -2.0280     1.6644     0.0207 H       
  35 H35            2.0912     0.0529     0.6777 H       
  36 H36            1.9256    -2.3590     1.0783 H       
  37 H37            0.7104    -2.5652    -0.2566 H       
  38 H38            3.6990    -1.7638    -0.5051 H       
  39 H39            2.6992    -2.7235    -1.6801 H       
  40 H40            1.2898    -0.7876    -2.2016 H       
  41 H41            2.7478     0.1640    -1.6822 H       
  42 H42           -0.3805     4.0035    -0.5638 H       
  43 H43           -2.6210     3.7621    -1.5985 H       
  44 H44           -3.3655     3.7431     0.0182 H       
  45 H45           -1.7182     6.0288    -1.1561 H       
  46 H46           -3.4905     6.0039    -0.9927 H       
  47 H47           -3.2606     5.7768     1.4658 H       
  48 H48           -0.2756     6.0372     0.8838 H       
  49 H49           -1.0201     6.0182     2.5004 H       
  50 H50           -1.9228     3.7515     2.0581 H       
  51 H51           -0.1506     3.7764     1.8947 H       
  52 H52           -1.5649     8.0627     0.3669 H       
  53 H53           -3.3446     8.0386     0.3752 H       
  54 H54           -3.3300     7.8085     2.8441 H       
  55 H55           -1.5502     7.8327     2.8358 H       
  56 H56           -3.6149     9.7247     4.0939 H       
  57 H57           -1.8614     9.9163     4.3301 H       
  58 H58           -3.7183    11.9474     3.0089 H       
  59 H59           -3.0269    12.0764     4.6448 H       
  60 H60           -0.7475    12.0913     3.7007 H       
  61 H61           -2.1710    11.9795     1.0013 H       
  62 H62           -0.4152    12.1304     1.2562 H       
  63 H63           -0.3891     9.9467     2.4199 H       
  64 H64           -1.0614     9.7776     0.7807 H       
  65 H65           -3.4626    13.9849     1.6316 H       
  66 H66            0.5745    13.8743     4.7583 H       
  67 H67            1.5466    15.9900     5.5478 H       
  68 H68            0.5824    18.1378     4.8369 H       
  69 H69           -1.3562    18.1988     3.3346 H       
@<TRIPOS>BOND
   1    1    2 1
   2    1    3 2
   3    1    4 am
   4    2    5 1
   5    2   32 1
   6    2   33 1
   7    4    9 1
   8    4   34 1
   9    5    6 1
  10    5    8 1
  11    5   35 1
  12    6    7 1
  13    6   36 1
  14    6   37 1
  15    7    8 1
  16    7   38 1
  17    7   39 1
  18    8   40 1
  19    8   41 1
  20    9   10 1
  21    9   14 1
  22    9   42 1
  23   10   11 1
  24   10   43 1
  25   10   44 1
  26   11   12 1
  27   11   45 1
  28   11   46 1
  29   12   13 1
  30   12   15 1
  31   12   47 1
  32   13   14 1
  33   13   48 1
  34   13   49 1
  35   14   50 1
  36   14   51 1
  37   15   16 1
  38   15   52 1
  39   15   53 1
  40   16   17 1
  41   16   54 1
  42   16   55 1
  43   17   18 1
  44   17   22 1
  45   18   19 1
  46   18   56 1
  47   18   57 1
  48   19   20 1
  49   19   58 1
  50   19   59 1
  51   20   21 1
  52   20   25 1
  53   20   60 1
  54   21   22 1
  55   21   61 1
  56   21   62 1
  57   22   63 1
  58   22   64 1
  59   23   24 1
  60   23   27 1
  61   24   25 2
  62   24   65 1
  63   25   26 1
  64   26   27 ar
  65   26   28 ar
  66   27   31 ar
  67   28   29 ar
  68   28   66 1
  69   29   30 ar
  70   29   67 1
  71   30   31 ar
  72   30   68 1
  73   31   69 1

#	End of record

