#	Name: ASD00069282
#	Creating user name:	WinNT
#	Creation time:	15. 06. 2019 18:29

#	Modifying user name:	WinNT
#	Modification time:	15. 06. 2019 18:29

#	Program:	/corina/corina34_cracker 3.40 0067  02.08.2006

@<TRIPOS>MOLECULE
ASD00069282
  89   92    0    0    0
SMALL
NO_CHARGES


@<TRIPOS>ATOM
   1 C1             6.9391    -0.1888     0.6938 C.2     
   2 N2             6.0207    -0.8938     1.3837 N.am    
   3 O3             6.7200     0.1315    -0.4576 O.2     
   4 O4             8.0970     0.1655     1.2824 O.3     
   5 N5             2.9176    -2.8894     0.8054 N.3     
   6 C6             4.1936    -2.5201     1.4313 C.3     
   7 C7             4.7582    -1.2741     0.7452 C.3     
   8 C8             3.7533    -0.1262     0.8755 C.3     
   9 C9             2.4186    -0.5542     0.2592 C.3     
  10 C10            1.9219    -1.8211     0.9594 C.3     
  11 C11            2.4379    -4.1006     1.3201 C.ar    
  12 C12            2.3164    -5.2141     0.4899 C.ar    
  13 C13            1.8407    -6.4108     1.0057 C.ar    
  14 C14            1.4879    -6.4978     2.3394 C.ar    
  15 C15            1.6073    -5.3944     3.1641 C.ar    
  16 C16            2.0873    -4.1978     2.6602 C.ar    
  17 F17            2.2089    -3.1234     3.4702 F       
  18 C18            2.9227    -6.2447    -1.5681 C.2     
  19 O19            2.9364    -7.3253    -1.0103 O.2     
  20 N20            2.6733    -5.1246    -0.8614 N.am    
  21 C21            3.1790    -6.1601    -3.0175 C.2     
  22 N22            3.1918    -5.0564    -3.7314 N.2     
  23 C23            3.4582    -5.3649    -5.0068 C.2     
  24 C24            3.6180    -6.7202    -5.0896 C.2     
  25 N25            3.4489    -7.2159    -3.8435 N.pl3   
  26 C26            3.5358    -8.6246    -3.4509 C.3     
  27 O27            3.8354    -9.4214    -4.5986 O.3     
  28 C28            3.9427   -10.8196    -4.3237 C.3     
  29 C29            4.2638   -11.5707    -5.6174 C.3     
  30 Si30           4.4036   -13.3935    -5.2589 Si      
  31 C31            2.7907   -14.0152    -4.5639 C.3     
  32 C32            4.7946   -14.3080    -6.8342 C.3     
  33 C33            5.7652   -13.6801    -4.0201 C.3     
  34 C34            3.8323    -3.9245    -8.4624 C.ar    
  35 C35            3.7415    -4.8529    -7.4437 C.ar    
  36 C36            3.5610    -4.4047    -6.1327 C.ar    
  37 C37            3.4794    -3.0263    -5.9107 C.ar    
  38 C38            3.5794    -2.1680    -6.9852 C.ar    
  39 N39            3.7501    -2.6313    -8.2092 N.ar    
  40 C40            3.4929    -0.6806    -6.7589 C.3     
  41 Cl41           4.0638    -4.4647   -10.0959 Cl      
  42 C42            9.0396     0.9239     0.4794 C.3     
  43 C43            8.3889     2.2339     0.0307 C.3     
  44 C44           10.2859     1.2324     1.3115 C.3     
  45 C45            9.4371     0.1046    -0.7500 C.3     
  46 H46            6.1956    -1.1495     2.3029 H       
  47 H47            4.0323    -2.3108     2.4888 H       
  48 H48            4.9005    -3.3434     1.3279 H       
  49 H49            4.9327    -1.4870    -0.3095 H       
  50 H50            3.6080     0.1129     1.9290 H       
  51 H51            4.1322     0.7509     0.3509 H       
  52 H52            1.6864     0.2431     0.3870 H       
  53 H53            2.5563    -0.7557    -0.8031 H       
  54 H54            0.9787    -2.1366     0.5132 H       
  55 H55            1.7712    -1.6150     2.0191 H       
  56 H56            1.7456    -7.2749     0.3648 H       
  57 H57            1.1175    -7.4305     2.7385 H       
  58 H58            1.3296    -5.4676     4.2052 H       
  59 H59            2.7409    -4.2563    -1.2886 H       
  60 H60            3.8417    -7.2871    -5.9812 H       
  61 H61            4.3240    -8.7468    -2.7080 H       
  62 H62            2.5837    -8.9428    -3.0261 H       
  63 H63            4.7393   -10.9873    -3.5989 H       
  64 H64            2.9990   -11.1834    -3.9170 H       
  65 H65            3.4672   -11.4030    -6.3422 H       
  66 H66            5.2074   -11.2069    -6.0240 H       
  67 H67            1.9941   -13.8475    -5.2887 H       
  68 H68            2.8725   -15.0817    -4.3542 H       
  69 H69            2.5620   -13.4801    -3.6422 H       
  70 H70            5.7383   -13.9443    -7.2408 H       
  71 H71            4.8764   -15.3745    -6.6244 H       
  72 H72            3.9980   -14.1403    -7.5590 H       
  73 H73            5.5364   -13.1451    -3.0984 H       
  74 H74            5.8470   -14.7466    -3.8103 H       
  75 H75            6.7088   -13.3164    -4.4267 H       
  76 H76            3.8092    -5.9094    -7.6573 H       
  77 H77            3.3398    -2.6396    -4.9120 H       
  78 H78            4.4912    -0.2821    -6.5776 H       
  79 H79            3.0657    -0.2031    -7.6407 H       
  80 H80            2.8595    -0.4808    -5.8946 H       
  81 H81            8.1057     2.8176     0.9066 H       
  82 H82            9.0964     2.8032    -0.5721 H       
  83 H83            7.5010     2.0141    -0.5621 H       
  84 H84           10.7495     0.2991     1.6312 H       
  85 H85           10.9935     1.8017     0.7088 H       
  86 H86           10.0027     1.8161     2.1874 H       
  87 H87            8.5492    -0.1152    -1.3428 H       
  88 H88           10.1447     0.6739    -1.3528 H       
  89 H89            9.9007    -0.8287    -0.4303 H       
@<TRIPOS>BOND
   1    1    2 am
   2    1    3 2
   3    1    4 1
   4    2    7 1
   5    2   46 1
   6    4   42 1
   7    5    6 1
   8    5   10 1
   9    5   11 1
  10    6    7 1
  11    6   47 1
  12    6   48 1
  13    7    8 1
  14    7   49 1
  15    8    9 1
  16    8   50 1
  17    8   51 1
  18    9   10 1
  19    9   52 1
  20    9   53 1
  21   10   54 1
  22   10   55 1
  23   11   12 ar
  24   11   16 ar
  25   12   13 ar
  26   12   20 1
  27   13   14 ar
  28   13   56 1
  29   14   15 ar
  30   14   57 1
  31   15   16 ar
  32   15   58 1
  33   16   17 1
  34   18   19 2
  35   18   20 am
  36   18   21 1
  37   20   59 1
  38   21   22 2
  39   21   25 1
  40   22   23 1
  41   23   24 2
  42   23   36 1
  43   24   25 1
  44   24   60 1
  45   25   26 1
  46   26   27 1
  47   26   61 1
  48   26   62 1
  49   27   28 1
  50   28   29 1
  51   28   63 1
  52   28   64 1
  53   29   30 1
  54   29   65 1
  55   29   66 1
  56   30   31 1
  57   30   32 1
  58   30   33 1
  59   31   67 1
  60   31   68 1
  61   31   69 1
  62   32   70 1
  63   32   71 1
  64   32   72 1
  65   33   73 1
  66   33   74 1
  67   33   75 1
  68   34   35 ar
  69   34   39 ar
  70   34   41 1
  71   35   36 ar
  72   35   76 1
  73   36   37 ar
  74   37   38 ar
  75   37   77 1
  76   38   39 ar
  77   38   40 1
  78   40   78 1
  79   40   79 1
  80   40   80 1
  81   42   43 1
  82   42   45 1
  83   42   44 1
  84   43   81 1
  85   43   82 1
  86   43   83 1
  87   44   84 1
  88   44   85 1
  89   44   86 1
  90   45   87 1
  91   45   88 1
  92   45   89 1

#	End of record

