#	Name: ASD03091458
#	Creating user name:	WinNT
#	Creation time:	15. 06. 2019 20:30

#	Modifying user name:	WinNT
#	Modification time:	15. 06. 2019 20:30

#	Program:	/corina/corina34_cracker 3.40 0067  02.08.2006

@<TRIPOS>MOLECULE
ASD03091458
  44   45    0    0    0
SMALL
NO_CHARGES


@<TRIPOS>ATOM
   1 Cl1            0.0000     0.0000     0.0000 Cl      
   2 H2             0.0000     1.3700     0.0000 H       
   3 C3            14.5457    10.3480     7.3431 C.ar    
   4 C4            14.5647     8.9480     7.3354 C.ar    
   5 C5            15.7851     8.2646     7.3205 C.ar    
   6 C6            16.9632     8.9499     7.3139 C.ar    
   7 C7            16.9653    10.3453     7.3213 C.ar    
   8 C8            15.7799    11.0425     7.3351 C.ar    
   9 S9            12.9138     8.3372     7.3479 S.3     
  10 C10           12.2584     9.9649     7.3629 C.2     
  11 C11           13.2425    10.8701     7.3641 C.2     
  12 C12           10.8246    10.2888     7.3775 C.2     
  13 O13           10.4635    11.4504     7.3868 O.2     
  14 N14            9.9101     9.2987     7.3806 N.am    
  15 N15            6.9405     8.8962     5.6357 N.3     
  16 C16            7.9954     9.8647     5.9634 C.3     
  17 C17            8.4812     9.6215     7.3952 C.3     
  18 C18            7.6951     8.4473     7.9919 C.3     
  19 C19            7.9229     7.2099     7.1145 C.3     
  20 C20            7.4520     7.5197     5.6907 C.3     
  21 C21            5.7788     9.0613     6.5202 C.3     
  22 C22            6.2015     8.7959     7.9678 C.3     
  23 N23           18.1806    11.0393     7.3144 N.pl3   
  24 H24           15.7939     7.1846     7.3147 H       
  25 H25           17.8990     8.4107     7.3031 H       
  26 H26           15.7903    12.1224     7.3408 H       
  27 H27           13.0478    11.9324     7.3724 H       
  28 H28           10.1981     8.3725     7.3732 H       
  29 H29            8.8285     9.7431     5.2711 H       
  30 H30            7.5984    10.8765     5.8810 H       
  31 H31            8.3129    10.5160     7.9949 H       
  32 H32            8.0298     8.2513     9.0105 H       
  33 H33            8.9841     6.9612     7.1022 H       
  34 H34            7.3536     6.3700     7.5128 H       
  35 H35            6.6594     6.8258     5.4107 H       
  36 H36            8.2886     7.4147     5.0000 H       
  37 H37            5.3973    10.0786     6.4334 H       
  38 H38            5.0000     8.3547     6.2334 H       
  39 H39            5.6254     7.9624     8.3696 H       
  40 H40            6.0250     9.6878     8.5692 H       
  41 H41           19.0183    10.5503     7.3044 H       
  42 H42           18.1853    12.0092     7.3195 H       
  43 Cl43          24.0183    17.1224    14.0105 Cl      
  44 H44           24.0183    18.4924    14.0105 H       
@<TRIPOS>BOND
   1    1    2 1
   2    3    4 ar
   3    3    8 ar
   4    3   11 1
   5    4    5 ar
   6    4    9 1
   7    5    6 ar
   8    5   24 1
   9    6    7 ar
  10    6   25 1
  11    7    8 ar
  12    7   23 1
  13    8   26 1
  14    9   10 1
  15   10   11 2
  16   10   12 1
  17   11   27 1
  18   12   13 2
  19   12   14 am
  20   14   17 1
  21   14   28 1
  22   15   16 1
  23   15   20 1
  24   15   21 1
  25   16   17 1
  26   16   29 1
  27   16   30 1
  28   17   18 1
  29   17   31 1
  30   18   19 1
  31   18   22 1
  32   18   32 1
  33   19   20 1
  34   19   33 1
  35   19   34 1
  36   20   35 1
  37   20   36 1
  38   21   22 1
  39   21   37 1
  40   21   38 1
  41   22   39 1
  42   22   40 1
  43   23   41 1
  44   23   42 1
  45   43   44 1

#	End of record

