#	Name: ASD01900167
#	Creating user name:	WinNT
#	Creation time:	15. 06. 2019 19:51

#	Modifying user name:	WinNT
#	Modification time:	15. 06. 2019 19:51

#	Program:	/corina/corina34_cracker 3.40 0067  02.08.2006

@<TRIPOS>MOLECULE
ASD01900167
  46   49    0    0    0
SMALL
NO_CHARGES


@<TRIPOS>ATOM
   1 C1             0.0380     1.3057     0.1261 C.ar    
   2 C2            -1.1234     1.6614    -0.5405 C.ar    
   3 C3            -1.1543     2.8395    -1.2706 C.ar    
   4 C4            -0.0130     3.6247    -1.3071 C.ar    
   5 C5             1.1196     3.2050    -0.6126 C.ar    
   6 N6             1.1074     2.0696     0.0747 N.ar    
   7 C7             2.3478     4.0326    -0.6419 C.2     
   8 N8             3.4466     3.6319     0.0279 N.am    
   9 O9             2.3647     5.0730    -1.2700 O.2     
  10 C10            4.6364     4.3615    -0.0792 C.ar    
  11 C11            4.5951     5.7458    -0.1825 C.ar    
  12 C12            5.7694     6.4657    -0.2877 C.ar    
  13 C13            6.9917     5.8040    -0.2901 C.ar    
  14 C14            7.0320     4.4197    -0.1868 C.ar    
  15 C15            5.8585     3.7011    -0.0764 C.ar    
  16 N16            8.1823     6.5331    -0.3972 N.am    
  17 C17            9.3127     5.9217    -0.8032 C.2     
  18 O18            9.2788     4.7620    -1.1721 O.2     
  19 Cl19           5.7185     8.1961    -0.4173 Cl      
  20 O20           10.7578     7.9349    -0.4175 O.3     
  21 C21           10.5823     6.6526    -0.8005 C.2     
  22 C22           11.8056     6.1507    -1.1881 C.2     
  23 C23           12.7352     7.1828    -1.0249 C.2     
  24 C24           12.0534     8.2656    -0.5488 C.2     
  25 C25           12.6423     9.5822    -0.2307 C.ar    
  26 C26           11.8345    10.6137     0.2525 C.ar    
  27 C27           12.3911    11.8408     0.5474 C.ar    
  28 C28           13.7465    12.0511     0.3651 C.ar    
  29 C29           14.5528    11.0336    -0.1138 C.ar    
  30 C30           14.0105     9.7995    -0.4065 C.ar    
  31 H31            0.0640     0.3908     0.6995 H       
  32 H32           -1.9960     1.0269    -0.4921 H       
  33 H33           -2.0474     3.1384    -1.7991 H       
  34 H34           -0.0015     4.5486    -1.8662 H       
  35 H35            3.4128     2.8380     0.5842 H       
  36 H36            3.6450     6.2594    -0.1808 H       
  37 H37            7.9817     3.9055    -0.1888 H       
  38 H38            5.8903     2.6246     0.0042 H       
  39 H39            8.1936     7.4782    -0.1793 H       
  40 H40           12.0077     5.1527    -1.5480 H       
  41 H41           13.7933     7.1326    -1.2355 H       
  42 H42           10.7763    10.4511     0.3946 H       
  43 H43           11.7675    12.6395     0.9213 H       
  44 H44           14.1771    13.0140     0.5973 H       
  45 H45           15.6098    11.2048    -0.2545 H       
  46 H46           14.6417     9.0047    -0.7756 H       
@<TRIPOS>BOND
   1    1    2 ar
   2    1    6 ar
   3    1   31 1
   4    2    3 ar
   5    2   32 1
   6    3    4 ar
   7    3   33 1
   8    4    5 ar
   9    4   34 1
  10    5    6 ar
  11    5    7 1
  12    7    8 am
  13    7    9 2
  14    8   10 1
  15    8   35 1
  16   10   11 ar
  17   10   15 ar
  18   11   12 ar
  19   11   36 1
  20   12   13 ar
  21   12   19 1
  22   13   14 ar
  23   13   16 1
  24   14   15 ar
  25   14   37 1
  26   15   38 1
  27   16   17 am
  28   16   39 1
  29   17   18 2
  30   17   21 1
  31   20   21 1
  32   20   24 1
  33   21   22 2
  34   22   23 1
  35   22   40 1
  36   23   24 2
  37   23   41 1
  38   24   25 1
  39   25   26 ar
  40   25   30 ar
  41   26   27 ar
  42   26   42 1
  43   27   28 ar
  44   27   43 1
  45   28   29 ar
  46   28   44 1
  47   29   30 ar
  48   29   45 1
  49   30   46 1

#	End of record

