#	Name: ASD02560419
#	Creating user name:	WinNT
#	Creation time:	15. 06. 2019 20:25

#	Modifying user name:	WinNT
#	Modification time:	15. 06. 2019 20:25

#	Program:	/corina/corina34_cracker 3.40 0067  02.08.2006

@<TRIPOS>MOLECULE
ASD02560419
  43   46    0    0    0
SMALL
NO_CHARGES


@<TRIPOS>ATOM
   1 C1             0.1066     1.0773     1.1209 C.2     
   2 C2             0.2208    -0.3244     1.1155 C.2     
   3 C3             1.3911    -0.9113     0.7945 C.2     
   4 N4             2.4845    -0.1539     0.4699 N.pl3   
   5 C5             2.4029     1.2199     0.4666 C.2     
   6 C6             1.1824     1.8442     0.8007 C.2     
   7 C7             3.7623    -0.4865     0.1141 C.2     
   8 C8             4.4376     0.6965    -0.1002 C.2     
   9 N9             3.5823     1.7110     0.1228 N.2     
  10 C10            5.8572     0.8276    -0.5047 C.ar    
  11 N11            4.2829    -1.7757    -0.0087 N.3     
  12 C12            3.2247    -2.7857     0.1255 C.3     
  13 C13            3.6488    -4.0896    -0.5730 C.3     
  14 C14            6.2108     1.6737    -1.5559 C.ar    
  15 C15            6.8475     0.1092     0.1685 C.ar    
  16 C16            7.5359     1.7919    -1.9279 C.ar    
  17 C17            8.5117     1.0734    -1.2611 C.ar    
  18 C18            8.1693     0.2367    -0.2138 C.ar    
  19 C19            3.0107    -3.1324     1.6134 C.3     
  20 C20            2.7201    -4.6537     1.6110 C.3     
  21 C21            3.6778    -5.1830     0.5149 C.3     
  22 Cl22           4.9880     2.5758    -2.3953 Cl      
  23 F23            6.5142    -0.7081     1.1913 F       
  24 C24            9.2392    -0.5420     0.5073 C.3     
  25 H25           -0.8342     1.5431     1.3744 H       
  26 H26           -0.6337    -0.9339     1.3702 H       
  27 H27            1.4670    -1.9886     0.7937 H       
  28 H28            1.1038     2.9213     0.8026 H       
  29 H29            4.7777    -1.8842    -0.8813 H       
  30 H30            2.2968    -2.4141    -0.3092 H       
  31 H31            2.9263    -4.3511    -1.3461 H       
  32 H32            4.6398    -3.9729    -1.0116 H       
  33 H33            7.8107     2.4467    -2.7416 H       
  34 H34            9.5461     1.1694    -1.5564 H       
  35 H35            3.9112    -2.9169     2.1886 H       
  36 H36            2.1598    -2.5820     2.0148 H       
  37 H37            2.9596    -5.0943     2.5788 H       
  38 H38            1.6815    -4.8482     1.3433 H       
  39 H39            3.3137    -6.1292     0.1145 H       
  40 H40            4.6860    -5.2987     0.9126 H       
  41 H41            9.6177     0.0481     1.3420 H       
  42 H42            8.8188    -1.4749     0.8829 H       
  43 H43           10.0548    -0.7622    -0.1814 H       
@<TRIPOS>BOND
   1    1    2 1
   2    1    6 2
   3    1   25 1
   4    2    3 2
   5    2   26 1
   6    3    4 1
   7    3   27 1
   8    4    5 1
   9    4    7 1
  10    5    6 1
  11    5    9 2
  12    6   28 1
  13    7    8 2
  14    7   11 1
  15    8    9 1
  16    8   10 1
  17   10   14 ar
  18   10   15 ar
  19   11   12 1
  20   11   29 1
  21   12   13 1
  22   12   19 1
  23   12   30 1
  24   13   21 1
  25   13   31 1
  26   13   32 1
  27   14   16 ar
  28   14   22 1
  29   15   23 1
  30   15   18 ar
  31   16   17 ar
  32   16   33 1
  33   17   18 ar
  34   17   34 1
  35   18   24 1
  36   19   20 1
  37   19   35 1
  38   19   36 1
  39   20   21 1
  40   20   37 1
  41   20   38 1
  42   21   39 1
  43   21   40 1
  44   24   41 1
  45   24   42 1
  46   24   43 1

#	End of record

