#	Name: ASD01470050
#	Creating user name:	WinNT
#	Creation time:	15. 06. 2019 19:21

#	Modifying user name:	WinNT
#	Modification time:	15. 06. 2019 19:21

#	Program:	/corina/corina34_cracker 3.40 0067  02.08.2006

@<TRIPOS>MOLECULE
ASD01470050
  32   35    0    0    0
SMALL
NO_CHARGES


@<TRIPOS>ATOM
   1 O1            -0.0169    -0.0117     0.2924 O.2     
   2 C2            -0.0237     1.2038     0.2217 C.2     
   3 N3             1.0565     2.0029     0.2449 N.am    
   4 C4             0.6992     3.3423     0.1446 C.ar    
   5 C5            -0.6952     3.4421     0.0493 C.ar    
   6 C6            -1.2166     2.0569     0.0893 C.2     
   7 C7            -2.5209     1.6577     0.0264 C.2     
   8 C8            -2.8464     0.2345    -0.0953 C.ar    
   9 C9            -3.9507    -0.2934     0.5972 C.ar    
  10 C10           -4.2611    -1.6141     0.4912 C.ar    
  11 C11           -3.4801    -2.4550    -0.3106 C.ar    
  12 C12           -2.3703    -1.9388    -1.0107 C.ar    
  13 C13           -2.0613    -0.5928    -0.9038 C.ar    
  14 N14           -1.8043    -2.9874    -1.7043 N.pl3   
  15 C15           -2.5095    -4.1331    -1.4693 C.2     
  16 C16           -3.5342    -3.8794    -0.6354 C.2     
  17 C17           -1.3051     4.6871    -0.0611 C.ar    
  18 C18           -0.5308     5.8296    -0.0767 C.ar    
  19 C19            0.8478     5.7353     0.0173 C.ar    
  20 C20            1.4625     4.5046     0.1269 C.ar    
  21 H21            1.9698     1.6852     0.3225 H       
  22 H22           -3.3127     2.3911     0.0663 H       
  23 H23           -4.5553     0.3526     1.2165 H       
  24 H24           -5.1101    -2.0137     1.0260 H       
  25 H25           -1.2139    -0.1863    -1.4358 H       
  26 H26           -1.0223    -2.9212    -2.2744 H       
  27 H27           -2.2787    -5.1002    -1.8910 H       
  28 H28           -4.2596    -4.5932    -0.2740 H       
  29 H29           -2.3802     4.7596    -0.1348 H       
  30 H30           -1.0005     6.7984    -0.1627 H       
  31 H31            1.4475     6.6335     0.0045 H       
  32 H32            2.5383     4.4441     0.2001 H       
@<TRIPOS>BOND
   1    1    2 2
   2    2    3 am
   3    2    6 1
   4    3    4 1
   5    3   21 1
   6    4    5 ar
   7    4   20 ar
   8    5    6 1
   9    5   17 ar
  10    6    7 2
  11    7    8 1
  12    7   22 1
  13    8    9 ar
  14    8   13 ar
  15    9   10 ar
  16    9   23 1
  17   10   11 ar
  18   10   24 1
  19   11   12 ar
  20   11   16 1
  21   12   13 ar
  22   12   14 1
  23   13   25 1
  24   14   15 1
  25   14   26 1
  26   15   16 2
  27   15   27 1
  28   16   28 1
  29   17   18 ar
  30   17   29 1
  31   18   19 ar
  32   18   30 1
  33   19   20 ar
  34   19   31 1
  35   20   32 1

#	End of record

