#	Name: ASD01948087
#	Creating user name:	WinNT
#	Creation time:	15. 06. 2019 20:13

#	Modifying user name:	WinNT
#	Modification time:	15. 06. 2019 20:13

#	Program:	/corina/corina34_cracker 3.40 0067  02.08.2006

@<TRIPOS>MOLECULE
ASD01948087
  48   51    0    0    0
SMALL
NO_CHARGES


@<TRIPOS>ATOM
   1 C1            -0.1247     2.7923    -2.6196 C.3     
   2 C2             0.1488     1.3697    -3.1118 C.3     
   3 C3            -0.8424     2.2615    -3.8622 C.3     
   4 S4            -1.1029     2.9805    -1.1036 S.o2    
   5 O5            -2.4916     2.9938    -1.4047 O.2     
   6 O6            -0.5852     2.1538    -0.0702 O.2     
   7 N7            -0.7810     4.5225    -0.5928 N.am    
   8 C8             1.5182     3.9143    -0.1504 C.2     
   9 C9             0.4981     4.8482    -0.0959 C.2     
  10 C10            0.7334     6.1172     0.4516 C.2     
  11 C11            2.0088     6.3991     0.9303 C.2     
  12 C12            2.9970     5.4334     0.8546 C.2     
  13 N13            2.7625     4.1977     0.3203 N.am    
  14 S14            1.4696     2.2609    -0.7809 S.3     
  15 C15            3.7609     3.1349     0.2108 C.3     
  16 C16            3.2074     1.8643    -0.4284 C.3     
  17 O17            4.1137     5.6935     1.2788 O.2     
  18 C18            2.3126     7.7488     1.5278 C.3     
  19 N19           -0.2774     7.0657     0.5138 N.pl3   
  20 C20           -1.4426     6.7996     1.2411 C.ar    
  21 C21           -2.5108     7.6899     1.1968 C.ar    
  22 C22           -3.6604     7.4230     1.9166 C.ar    
  23 C23           -3.7482     6.2724     2.6803 C.ar    
  24 C24           -2.6875     5.3862     2.7256 C.ar    
  25 C25           -1.5376     5.6440     2.0041 C.ar    
  26 I26           -5.4917     5.8724     3.7707 I       
  27 F27           -2.4245     8.8137     0.4518 F       
  28 C28            0.9739     3.8361    -2.8302 C.3     
  29 O29            0.4879     5.1236    -2.4451 O.3     
  30 H30            1.1114     1.1774    -3.5857 H       
  31 H31           -0.2591     0.5469    -2.5248 H       
  32 H32           -1.9024     2.0254    -3.7687 H       
  33 H33           -0.5320     2.6560    -4.8297 H       
  34 H34           -1.4721     5.2018    -0.6354 H       
  35 H35            4.5953     3.4971    -0.3897 H       
  36 H36            4.1283     2.8936     1.2082 H       
  37 H37            3.2740     1.0300     0.2698 H       
  38 H38            3.7406     1.6342    -1.3508 H       
  39 H39            2.0318     7.7515     2.5810 H       
  40 H40            3.3789     7.9553     1.4355 H       
  41 H41            1.7469     8.5159     0.9990 H       
  42 H42           -0.1763     7.9132     0.0529 H       
  43 H43           -4.4905     8.1132     1.8832 H       
  44 H44           -2.7595     4.4894     3.3230 H       
  45 H45           -0.7117     4.9489     2.0373 H       
  46 H46            1.8413     3.5785    -2.2224 H       
  47 H47            1.2600     3.8554    -3.8818 H       
  48 H48            1.1332     5.8358    -2.5522 H       
@<TRIPOS>BOND
   1    1    2 1
   2    1    3 1
   3    1    4 1
   4    1   28 1
   5    2    3 1
   6    2   30 1
   7    2   31 1
   8    3   32 1
   9    3   33 1
  10    4    5 2
  11    4    6 2
  12    4    7 am
  13    7    9 1
  14    7   34 1
  15    8    9 2
  16    8   13 1
  17    8   14 1
  18    9   10 1
  19   10   11 2
  20   10   19 1
  21   11   12 1
  22   11   18 1
  23   12   13 am
  24   12   17 2
  25   13   15 1
  26   14   16 1
  27   15   16 1
  28   15   35 1
  29   15   36 1
  30   16   37 1
  31   16   38 1
  32   18   39 1
  33   18   40 1
  34   18   41 1
  35   19   20 1
  36   19   42 1
  37   20   21 ar
  38   20   25 ar
  39   21   22 ar
  40   21   27 1
  41   22   23 ar
  42   22   43 1
  43   23   24 ar
  44   23   26 1
  45   24   25 ar
  46   24   44 1
  47   25   45 1
  48   28   29 1
  49   28   46 1
  50   28   47 1
  51   29   48 1

#	End of record

