#	Name: ASD01881263
#	Creating user name:	WinNT
#	Creation time:	15. 06. 2019 19:42

#	Modifying user name:	WinNT
#	Modification time:	15. 06. 2019 19:42

#	Program:	/corina/corina34_cracker 3.40 0067  02.08.2006

@<TRIPOS>MOLECULE
ASD01881263
  54   57    0    0    0
SMALL
NO_CHARGES


@<TRIPOS>ATOM
   1 C1             1.6444    -1.1991    -0.5290 C.2     
   2 N2             2.3005    -2.3676    -0.4273 N.am    
   3 C3             3.7295    -2.0922    -0.2397 C.3     
   4 C4             3.8720    -0.5904    -0.2388 C.ar    
   5 C5             4.9477     0.2509    -0.1052 C.ar    
   6 C6             4.7595     1.6310    -0.1469 C.ar    
   7 C7             3.4812     2.1548    -0.3235 C.ar    
   8 C8             2.4003     1.3143    -0.4573 C.ar    
   9 C9             2.5848    -0.0717    -0.4169 C.ar    
  10 O10            0.4449    -1.0886    -0.6951 O.2     
  11 N11            5.8482     2.4855    -0.0118 N.pl3   
  12 C12            7.1929     1.9347     0.1744 C.3     
  13 C13            5.4062     4.5833     1.1088 C.ar    
  14 C14            5.6593     3.8719    -0.0537 C.ar    
  15 C15            5.7234     4.5609    -1.2690 C.ar    
  16 C16            5.5290     5.9380    -1.2562 C.ar    
  17 C17            5.2816     6.5716    -0.0545 C.ar    
  18 N18            5.2279     5.8901     1.0739 N.ar    
  19 O19            5.9694     3.9027    -2.4313 O.3     
  20 C20            6.1272     4.6406    -3.5613 C.ar    
  21 C21            7.3842     5.1099    -3.9151 C.ar    
  22 C22            7.5418     5.8598    -5.0644 C.ar    
  23 C23            6.4484     6.1430    -5.8620 C.ar    
  24 C24            5.1946     5.6770    -5.5115 C.ar    
  25 C25            5.0325     4.9213    -4.3665 C.ar    
  26 C26            1.6895    -3.6975    -0.4925 C.3     
  27 C27            1.6678    -4.1782    -1.9448 C.3     
  28 C28            1.0297    -5.5671    -2.0129 C.3     
  29 C29            1.0081    -6.0477    -3.4653 C.3     
  30 H30            4.0683    -2.5013     0.7121 H       
  31 H31            4.3049    -2.5226    -1.0593 H       
  32 H32            5.9387    -0.1559     0.0324 H       
  33 H33            3.3378     3.2248    -0.3552 H       
  34 H34            1.4104     1.7242    -0.5934 H       
  35 H35            7.6624     1.7859    -0.7980 H       
  36 H36            7.7913     2.6289     0.7644 H       
  37 H37            7.1254     0.9796     0.6953 H       
  38 H38            5.3499     4.0615     2.0527 H       
  39 H39            5.5714     6.5047    -2.1746 H       
  40 H40            5.1302     7.6408    -0.0380 H       
  41 H41            8.2385     4.8893    -3.2923 H       
  42 H42            8.5198     6.2257    -5.3400 H       
  43 H43            6.5738     6.7295    -6.7601 H       
  44 H44            4.3421     5.9001    -6.1358 H       
  45 H45            4.0539     4.5532    -4.0959 H       
  46 H46            2.2702    -4.3941     0.1122 H       
  47 H47            0.6697    -3.6479    -0.1109 H       
  48 H48            1.0872    -3.4815    -2.5495 H       
  49 H49            2.6877    -4.2278    -2.3264 H       
  50 H50            1.6104    -6.2637    -1.4082 H       
  51 H51            0.0099    -5.5174    -1.6313 H       
  52 H52            0.4274    -5.3511    -4.0699 H       
  53 H53            2.0279    -6.0974    -3.8468 H       
  54 H54            0.5534    -7.0372    -3.5137 H       
@<TRIPOS>BOND
   1    1    2 am
   2    1    9 1
   3    1   10 2
   4    2    3 1
   5    2   26 1
   6    3    4 1
   7    3   30 1
   8    3   31 1
   9    4    5 ar
  10    4    9 ar
  11    5    6 ar
  12    5   32 1
  13    6    7 ar
  14    6   11 1
  15    7    8 ar
  16    7   33 1
  17    8    9 ar
  18    8   34 1
  19   11   12 1
  20   11   14 1
  21   12   35 1
  22   12   36 1
  23   12   37 1
  24   13   14 ar
  25   13   18 ar
  26   13   38 1
  27   14   15 ar
  28   15   16 ar
  29   15   19 1
  30   16   17 ar
  31   16   39 1
  32   17   18 ar
  33   17   40 1
  34   19   20 1
  35   20   21 ar
  36   20   25 ar
  37   21   22 ar
  38   21   41 1
  39   22   23 ar
  40   22   42 1
  41   23   24 ar
  42   23   43 1
  43   24   25 ar
  44   24   44 1
  45   25   45 1
  46   26   27 1
  47   26   46 1
  48   26   47 1
  49   27   28 1
  50   27   48 1
  51   27   49 1
  52   28   29 1
  53   28   50 1
  54   28   51 1
  55   29   52 1
  56   29   53 1
  57   29   54 1

#	End of record

