#	Name: ASD05720252
#	Creating user name:	WinNT
#	Creation time:	15. 06. 2019 21:02

#	Modifying user name:	WinNT
#	Modification time:	15. 06. 2019 21:02

#	Program:	/corina/corina34_cracker 3.40 0067  02.08.2006

@<TRIPOS>MOLECULE
ASD05720252
  33   36    0    0    0
SMALL
NO_CHARGES


@<TRIPOS>ATOM
   1 O1            -0.0161     1.3334     0.0094 O.3     
   2 C2             0.0021    -0.0041     0.0020 C.2     
   3 N3             1.2348    -0.5293    -0.0126 N.am    
   4 C4             2.2183     0.5645    -0.0161 C.3     
   5 C5             1.3508     1.8379    -0.0010 C.3     
   6 O6            -1.0069    -0.6808     0.0084 O.2     
   7 C7             3.0997    -3.5861    -0.0451 C.2     
   8 N8             2.7924    -2.2814    -0.0360 N.2     
   9 C9             1.5349    -1.8857    -0.0223 C.2     
  10 C10            0.4940    -2.8372    -0.0171 C.2     
  11 C11            0.7987    -4.1543    -0.0262 C.2     
  12 N12            2.1114    -4.5360    -0.0403 N.pl3   
  13 N13            2.7296    -5.7917    -0.0526 N.2     
  14 C14            4.0322    -5.6232    -0.0643 C.2     
  15 C15            4.3112    -4.2641    -0.0654 C.2     
  16 C16            3.0621     0.5136    -1.2636 C.ar    
  17 C17            4.4174     0.7764    -1.1925 C.ar    
  18 C18            5.1915     0.7298    -2.3369 C.ar    
  19 C19            4.6103     0.4199    -3.5522 C.ar    
  20 C20            3.2552     0.1562    -3.6232 C.ar    
  21 C21            2.4820     0.1985    -2.4781 C.ar    
  22 H22            2.8457     0.5180     0.8740 H       
  23 H23            1.5314     2.4339    -0.8956 H       
  24 H24            1.5485     2.4243     0.8964 H       
  25 H25           -0.5373    -2.5166    -0.0055 H       
  26 H26            0.0142    -4.8965    -0.0220 H       
  27 H27            4.7671    -6.4146    -0.0754 H       
  28 H28            5.2932    -3.8147    -0.0782 H       
  29 H29            4.8714     1.0186    -0.2430 H       
  30 H30            6.2502     0.9358    -2.2814 H       
  31 H31            5.2150     0.3842    -4.4464 H       
  32 H32            2.8012    -0.0856    -4.5728 H       
  33 H33            1.4239    -0.0111    -2.5330 H       
@<TRIPOS>BOND
   1    1    2 1
   2    1    5 1
   3    2    3 am
   4    2    6 2
   5    3    4 1
   6    3    9 1
   7    4    5 1
   8    4   16 1
   9    4   22 1
  10    5   23 1
  11    5   24 1
  12    7    8 1
  13    7   12 1
  14    7   15 2
  15    8    9 2
  16    9   10 1
  17   10   11 2
  18   10   25 1
  19   11   12 1
  20   11   26 1
  21   12   13 1
  22   13   14 2
  23   14   15 1
  24   14   27 1
  25   15   28 1
  26   16   17 ar
  27   16   21 ar
  28   17   18 ar
  29   17   29 1
  30   18   19 ar
  31   18   30 1
  32   19   20 ar
  33   19   31 1
  34   20   21 ar
  35   20   32 1
  36   21   33 1

#	End of record

