#	Name: ASD02500883
#	Creating user name:	WinNT
#	Creation time:	15. 06. 2019 20:23

#	Modifying user name:	WinNT
#	Modification time:	15. 06. 2019 20:23

#	Program:	/corina/corina34_cracker 3.40 0067  02.08.2006

@<TRIPOS>MOLECULE
ASD02500883
  45   47    0    0    0
SMALL
NO_CHARGES


@<TRIPOS>ATOM
   1 S1            -0.0295     1.6326    -0.8409 S.3     
   2 C2            -0.0026    -0.0647    -0.3227 C.2     
   3 C3             1.4215    -0.4184    -0.3334 C.2     
   4 N4             2.2359     0.5569    -0.7007 N.am    
   5 C5             1.7292     1.7520    -1.0248 C.2     
   6 S6             2.6110     3.1326    -1.5220 S.2     
   7 C7            -1.0566    -0.8537     0.0080 C.2     
   8 O8             1.8231    -1.5258    -0.0270 O.2     
   9 C9             3.6824     0.3303    -0.7518 C.3     
  10 C10            4.0654    -0.1629    -2.1233 C.2     
  11 O11            3.2172    -0.3101    -2.9711 O.2     
  12 O12            5.3490    -0.4387    -2.4031 O.3     
  13 C13           -2.4009    -0.2737     0.1210 C.ar    
  14 C14           -3.5308    -1.0944     0.0179 C.ar    
  15 C15           -4.7922    -0.5428     0.1256 C.ar    
  16 C16           -4.9389     0.8277     0.3360 C.ar    
  17 C17           -3.8193     1.6426     0.4384 C.ar    
  18 C18           -2.5568     1.1008     0.3381 C.ar    
  19 O19           -6.1812     1.3676     0.4407 O.3     
  20 O20           -5.8919    -1.3367     0.0260 O.3     
  21 C21           -5.6678    -2.7314    -0.1900 C.3     
  22 C22           -6.2596     2.7781     0.6559 C.3     
  23 C23           -7.7056     3.1930     0.7453 C.ar    
  24 C24           -8.7050     2.2471     0.6204 C.ar    
  25 C25          -10.0318     2.6276     0.7019 C.ar    
  26 C26          -10.3600     3.9543     0.9085 C.ar    
  27 C27           -9.3619     4.9022     1.0342 C.ar    
  28 C28           -8.0331     4.5216     0.9585 C.ar    
  29 F29           -7.0567     5.4471     1.0816 F       
  30 H30           -0.9065    -1.9080     0.1878 H       
  31 H31            4.2040     1.2643    -0.5428 H       
  32 H32            3.9599    -0.4154    -0.0069 H       
  33 H33            5.5460    -0.7523    -3.2963 H       
  34 H34           -3.4161    -2.1557    -0.1457 H       
  35 H35           -3.9386     2.7036     0.6011 H       
  36 H36           -1.6879     1.7371     0.4182 H       
  37 H37           -5.1202    -2.8713    -1.1220 H       
  38 H38           -5.0867    -3.1384     0.6375 H       
  39 H39           -6.6256    -3.2482    -0.2502 H       
  40 H40           -5.7503     3.0327     1.5854 H       
  41 H41           -5.7827     3.2993    -0.1742 H       
  42 H42           -8.4498     1.2102     0.4586 H       
  43 H43          -10.8123     1.8876     0.6038 H       
  44 H44          -11.3967     4.2504     0.9713 H       
  45 H45           -9.6186     5.9388     1.1953 H       
@<TRIPOS>BOND
   1    1    2 1
   2    1    5 1
   3    2    3 1
   4    2    7 2
   5    3    4 am
   6    3    8 2
   7    4    5 am
   8    4    9 1
   9    5    6 2
  10    7   13 1
  11    7   30 1
  12    9   10 1
  13    9   31 1
  14    9   32 1
  15   10   11 2
  16   10   12 1
  17   12   33 1
  18   13   14 ar
  19   13   18 ar
  20   14   15 ar
  21   14   34 1
  22   15   16 ar
  23   15   20 1
  24   16   17 ar
  25   16   19 1
  26   17   18 ar
  27   17   35 1
  28   18   36 1
  29   19   22 1
  30   20   21 1
  31   21   37 1
  32   21   38 1
  33   21   39 1
  34   22   23 1
  35   22   40 1
  36   22   41 1
  37   23   24 ar
  38   23   28 ar
  39   24   25 ar
  40   24   42 1
  41   25   26 ar
  42   25   43 1
  43   26   27 ar
  44   26   44 1
  45   27   28 ar
  46   27   45 1
  47   28   29 1

#	End of record

