#	Name: ASD01150062
#	Creating user name:	WinNT
#	Creation time:	15. 06. 2019 19:03

#	Modifying user name:	WinNT
#	Modification time:	15. 06. 2019 19:03

#	Program:	/corina/corina34_cracker 3.40 0067  02.08.2006

@<TRIPOS>MOLECULE
ASD01150062
  33   34    0    0    0
SMALL
NO_CHARGES


@<TRIPOS>ATOM
   1 C1            -0.0168     1.3850     0.0097 C.2     
   2 C2             0.0021    -0.0041     0.0020 C.2     
   3 N3            -1.2693    -0.4217     0.0119 N.2     
   4 C4            -2.0766     0.6068     0.0251 C.2     
   5 N5            -1.3595     1.7469     0.0305 N.pl3   
   6 C6            -1.8702     3.0521     0.0450 C.ar    
   7 C7             1.0990     2.2519     0.0037 C.2     
   8 O8             2.2264     1.7929    -0.0100 O.2     
   9 O9             0.9148     3.5892     0.0131 O.3     
  10 C10            2.0876     4.4057     0.0063 C.3     
  11 N11            1.1308    -0.8098    -0.0138 N.pl3   
  12 C12           -3.5815     0.5284     0.0391 C.3     
  13 C13           -4.0771     0.4947     1.4862 C.3     
  14 C14           -1.6437     3.8751     1.1401 C.ar    
  15 C15           -2.1477     5.1608     1.1526 C.ar    
  16 C16           -2.8791     5.6292     0.0740 C.ar    
  17 C17           -3.1062     4.8099    -1.0192 C.ar    
  18 C18           -2.5985     3.5257    -1.0380 C.ar    
  19 F19           -3.3722     6.8869     0.0884 F       
  20 H20            2.6706     4.1967    -0.8907 H       
  21 H21            1.7986     5.4567     0.0151 H       
  22 H22            2.6880     4.1865     0.8892 H       
  23 H23            2.0136    -0.4078    -0.0206 H       
  24 H24            1.0375    -1.7753    -0.0180 H       
  25 H25           -3.9955     1.4008    -0.4665 H       
  26 H26           -3.9029    -0.3767    -0.4762 H       
  27 H27           -3.6631    -0.3777     1.9918 H       
  28 H28           -3.7556     1.3999     2.0015 H       
  29 H29           -5.1655     0.4380     1.4963 H       
  30 H30           -1.0739     3.5099     1.9818 H       
  31 H31           -1.9717     5.8012     2.0042 H       
  32 H32           -3.6771     5.1769    -1.8593 H       
  33 H33           -2.7755     2.8871    -1.8909 H       
@<TRIPOS>BOND
   1    1    2 2
   2    1    7 1
   3    1    5 1
   4    2    3 1
   5    2   11 1
   6    3    4 2
   7    4    5 1
   8    4   12 1
   9    5    6 1
  10    6   14 ar
  11    6   18 ar
  12    7    8 2
  13    7    9 1
  14    9   10 1
  15   10   20 1
  16   10   21 1
  17   10   22 1
  18   11   23 1
  19   11   24 1
  20   12   13 1
  21   12   25 1
  22   12   26 1
  23   13   27 1
  24   13   28 1
  25   13   29 1
  26   14   15 ar
  27   14   30 1
  28   15   16 ar
  29   15   31 1
  30   16   17 ar
  31   16   19 1
  32   17   18 ar
  33   17   32 1
  34   18   33 1

#	End of record

