#	Name: ASD02038447
#	Creating user name:	WinNT
#	Creation time:	15. 06. 2019 20:16

#	Modifying user name:	WinNT
#	Modification time:	15. 06. 2019 20:16

#	Program:	/corina/corina34_cracker 3.40 0067  02.08.2006

@<TRIPOS>MOLECULE
ASD02038447
  49   50    0    0    0
SMALL
NO_CHARGES


@<TRIPOS>ATOM
   1 C1             0.0722     1.4006    -0.0812 C.3     
   2 C2             0.1110    -0.1225     0.0584 C.3     
   3 N3             1.4408     1.9319    -0.0317 N.3     
   4 C4             1.4426     3.3951    -0.1630 C.3     
   5 C5             2.8821     3.9104    -0.1070 C.3     
   6 C6             2.8839     5.4343    -0.2438 C.3     
   7 C7             4.3018     5.9418    -0.1886 C.ar    
   8 C8             5.0355     6.0672    -1.3541 C.ar    
   9 C9             6.3351     6.5321    -1.3071 C.ar    
  10 C10            6.9052     6.8738    -0.0874 C.ar    
  11 C11            6.1654     6.7466     1.0814 C.ar    
  12 C12            4.8644     6.2865     1.0267 C.ar    
  13 N13            8.2195     7.3438    -0.0362 N.am    
  14 N14           -1.2539    -0.6524     0.0090 N.pl3   
  15 C15           -1.4736    -2.0282     0.1170 C.ar    
  16 C16           -2.7669    -2.5317     0.0703 C.ar    
  17 C17           -0.3982    -2.8950     0.2654 C.ar    
  18 C18           -0.6175    -4.2543     0.3714 C.ar    
  19 C19           -1.9072    -4.7540     0.3300 C.ar    
  20 C20           -2.9811    -3.8932     0.1769 C.ar    
  21 Cl21          -4.5978    -4.5237     0.1253 Cl      
  22 Cl22          -2.1790    -6.4634     0.4637 Cl      
  23 S23            8.5660     8.8883    -0.5228 S.o2    
  24 O24            9.9662     9.0149    -0.3163 O.2     
  25 O25            8.0065     8.9791    -1.8258 O.2     
  26 C26            7.6536     9.9436     0.6367 C.3     
  27 H27           -0.3866     1.6666    -1.0335 H       
  28 H28           -0.5123     1.8255     0.7349 H       
  29 H29            0.6955    -0.5474    -0.7577 H       
  30 H30            0.5698    -0.3885     1.0107 H       
  31 H31            1.9100     1.6442     0.8140 H       
  32 H32            0.9933     3.6749    -1.1159 H       
  33 H33            0.8676     3.8337     0.6525 H       
  34 H34            3.3314     3.6306     0.8458 H       
  35 H35            3.4570     3.4717    -0.9226 H       
  36 H36            2.4347     5.7141    -1.1966 H       
  37 H37            2.3090     5.8729     0.5718 H       
  38 H38            4.5918     5.8010    -2.3021 H       
  39 H39            6.9077     6.6294    -2.2177 H       
  40 H40            6.6056     7.0115     2.0314 H       
  41 H41            4.2885     6.1877     1.9350 H       
  42 H42            8.9292     6.7655     0.2843 H       
  43 H43           -2.0051    -0.0483    -0.0987 H       
  44 H44           -3.6044    -1.8603    -0.0488 H       
  45 H45            0.6088    -2.5061     0.2975 H       
  46 H46            0.2186    -4.9282     0.4865 H       
  47 H47            7.9333     9.6873     1.6585 H       
  48 H48            7.8963    10.9888     0.4448 H       
  49 H49            6.5829     9.7889     0.5034 H       
@<TRIPOS>BOND
   1    1    2 1
   2    1    3 1
   3    1   27 1
   4    1   28 1
   5    2   14 1
   6    2   29 1
   7    2   30 1
   8    3    4 1
   9    3   31 1
  10    4    5 1
  11    4   32 1
  12    4   33 1
  13    5    6 1
  14    5   34 1
  15    5   35 1
  16    6    7 1
  17    6   36 1
  18    6   37 1
  19    7    8 ar
  20    7   12 ar
  21    8    9 ar
  22    8   38 1
  23    9   10 ar
  24    9   39 1
  25   10   11 ar
  26   10   13 1
  27   11   12 ar
  28   11   40 1
  29   12   41 1
  30   13   23 am
  31   13   42 1
  32   14   15 1
  33   14   43 1
  34   15   16 ar
  35   15   17 ar
  36   16   20 ar
  37   16   44 1
  38   17   18 ar
  39   17   45 1
  40   18   19 ar
  41   18   46 1
  42   19   20 ar
  43   19   22 1
  44   20   21 1
  45   23   24 2
  46   23   25 2
  47   23   26 1
  48   26   47 1
  49   26   48 1
  50   26   49 1

#	End of record

