#	Name: ASD01911207
#	Creating user name:	WinNT
#	Creation time:	15. 06. 2019 19:57

#	Modifying user name:	WinNT
#	Modification time:	15. 06. 2019 19:57

#	Program:	/corina/corina34_cracker 3.40 0067  02.08.2006

@<TRIPOS>MOLECULE
ASD01911207
  51   53    0    0    0
SMALL
NO_CHARGES


@<TRIPOS>ATOM
   1 C1            -0.6085     1.5015     0.6381 C.ar    
   2 N2            -0.4804     0.2004     0.4979 N.ar    
   3 C3             0.5436    -0.3320    -0.1581 C.ar    
   4 C4             1.5229     0.4819    -0.7227 C.ar    
   5 C5             1.4136     1.8575    -0.5905 C.ar    
   6 C6             0.3284     2.3709     0.1019 C.ar    
   7 C7             0.6459    -1.8038    -0.2905 C.2     
   8 N8            -0.2983    -2.5966     0.2540 N.am    
   9 C9            -0.2521    -3.9798     0.0512 C.ar    
  10 C10           -1.4247    -4.7238     0.0610 C.ar    
  11 C11           -1.3762    -6.0895    -0.1399 C.ar    
  12 C12           -0.1609    -6.7163    -0.3509 C.ar    
  13 C13            1.0093    -5.9773    -0.3607 C.ar    
  14 C14            0.9661    -4.6109    -0.1660 C.ar    
  15 C15           -2.7487    -4.0418     0.2912 C.3     
  16 N16           -3.1992    -3.4168    -0.9549 N.am    
  17 O17            1.5812    -2.2965    -0.8900 O.2     
  18 Cl18          -0.1036    -8.4329    -0.6031 Cl      
  19 C19           -3.9636    -4.1126    -1.8198 C.2     
  20 C20           -4.4984    -3.4526    -3.0299 C.ar    
  21 C21           -3.6937    -2.5829    -3.7676 C.ar    
  22 C22           -4.1988    -1.9707    -4.8960 C.ar    
  23 C23           -5.5000    -2.2169    -5.2967 C.ar    
  24 C24           -6.3029    -3.0780    -4.5699 C.ar    
  25 C25           -5.8083    -3.7011    -3.4428 C.ar    
  26 O26           -4.2132    -5.2826    -1.6050 O.2     
  27 C27           -2.8188    -2.0355    -1.2608 C.3     
  28 C28           -7.7190    -3.3403    -5.0137 C.3     
  29 C29           -3.3315    -1.0313    -5.6938 C.3     
  30 F30           -7.9875    -2.6064    -6.1741 F       
  31 F31           -7.8800    -4.7048    -5.2772 F       
  32 F32           -2.6446    -1.7521    -6.6766 F       
  33 F33           -4.1333    -0.0600    -6.3026 F       
  34 F34           -8.6041    -2.9531    -4.0019 F       
  35 F35           -2.4114    -0.4099    -4.8426 F       
  36 H36           -1.4576     1.8984     1.1746 H       
  37 H37            2.3558     0.0474    -1.2555 H       
  38 H38            2.1572     2.5141    -1.0173 H       
  39 H39            0.2137     3.4380     0.2223 H       
  40 H40           -1.0099    -2.2079     0.7864 H       
  41 H41           -2.2878    -6.6686    -0.1321 H       
  42 H42            1.9567    -6.4691    -0.5248 H       
  43 H43            1.8795    -4.0346    -0.1741 H       
  44 H44           -3.4847    -4.7774     0.6155 H       
  45 H45           -2.6351    -3.2780     1.0604 H       
  46 H46           -2.6781    -2.3893    -3.4555 H       
  47 H47           -5.8908    -1.7346    -6.1804 H       
  48 H48           -6.4360    -4.3733    -2.8765 H       
  49 H49           -1.9234    -2.0344    -1.8824 H       
  50 H50           -3.6323    -1.5443    -1.7946 H       
  51 H51           -2.6176    -1.5001    -0.3329 H       
@<TRIPOS>BOND
   1    1    2 ar
   2    1    6 ar
   3    1   36 1
   4    2    3 ar
   5    3    4 ar
   6    3    7 1
   7    4    5 ar
   8    4   37 1
   9    5    6 ar
  10    5   38 1
  11    6   39 1
  12    7    8 am
  13    7   17 2
  14    8    9 1
  15    8   40 1
  16    9   10 ar
  17    9   14 ar
  18   10   11 ar
  19   10   15 1
  20   11   12 ar
  21   11   41 1
  22   12   13 ar
  23   12   18 1
  24   13   14 ar
  25   13   42 1
  26   14   43 1
  27   15   16 1
  28   15   44 1
  29   15   45 1
  30   16   19 am
  31   16   27 1
  32   19   20 1
  33   19   26 2
  34   20   21 ar
  35   20   25 ar
  36   21   22 ar
  37   21   46 1
  38   22   23 ar
  39   22   29 1
  40   23   24 ar
  41   23   47 1
  42   24   25 ar
  43   24   28 1
  44   25   48 1
  45   27   49 1
  46   27   50 1
  47   27   51 1
  48   28   30 1
  49   28   31 1
  50   28   34 1
  51   29   32 1
  52   29   33 1
  53   29   35 1

#	End of record

