#	Name: ASD05430356
#	Creating user name:	WinNT
#	Creation time:	15. 06. 2019 21:00

#	Modifying user name:	WinNT
#	Modification time:	15. 06. 2019 21:00

#	Program:	/corina/corina34_cracker 3.40 0067  02.08.2006

@<TRIPOS>MOLECULE
ASD05430356
  61   66    0    0    0
SMALL
NO_CHARGES


@<TRIPOS>ATOM
   1 C1            -0.0114     1.8998    -0.2387 C.ar    
   2 C2             0.1384     0.6898     0.4380 C.ar    
   3 C3            -0.9675     0.0595     0.9938 C.ar    
   4 C4            -2.2179     0.6268     0.8794 C.ar    
   5 C5            -2.3758     1.8407     0.2025 C.ar    
   6 C6            -1.2616     2.4780    -0.3522 C.ar    
   7 C7            -4.8029     1.6636    -0.0031 C.2     
   8 C8            -3.7106     2.4482     0.0787 C.2     
   9 N9            -7.2789     1.3938    -0.1686 N.pl3   
  10 C10           -6.1635     2.2276     0.0277 C.2     
  11 C11           -8.8983     2.0681     1.5496 C.ar    
  12 C12           -8.8444     0.8258     2.1536 C.ar    
  13 C13           -9.3734     3.1596     2.2524 C.ar    
  14 C14           -9.7948     3.0100     3.5601 C.ar    
  15 C15           -9.7413     1.7662     4.1661 C.ar    
  16 C16           -9.2656     0.6737     3.4610 C.ar    
  17 F17          -10.1525     1.6189     5.4445 F       
  18 O18            1.0733     2.5137    -0.7818 O.3     
  19 C19            0.8465     3.7505    -1.4607 C.3     
  20 C20            1.9891    -0.3514     1.7107 C.2     
  21 N21            1.4081     0.1078     0.5570 N.pl3   
  22 C22            3.2023    -0.8288     1.3732 C.2     
  23 N23            3.3627    -0.6681     0.0513 N.2     
  24 C24            2.2948    -0.1081    -0.4489 C.2     
  25 C25            4.2063    -1.4379     2.3176 C.3     
  26 C26           -7.2034    -0.0119    -0.5224 C.3     
  27 C27           -4.6924     0.1644    -0.1373 C.3     
  28 C28           -5.8124    -0.4020    -0.9893 C.3     
  29 C29           -8.4328     2.2339     0.1259 C.3     
  30 N30           -7.8950     3.5925    -0.1307 N.am    
  31 N31           -6.5228     3.4696     0.1508 N.2     
  32 C32           -8.8667     4.3807    -0.6155 C.2     
  33 C33          -10.0788     3.5468    -0.9788 C.3     
  34 O34           -8.7868     5.5848    -0.7437 O.2     
  35 C35           -9.5760     2.0827    -0.8879 C.3     
  36 H36           -0.8470    -0.8778     1.5167 H       
  37 H37           -3.0761     0.1341     1.3119 H       
  38 H38           -1.3789     3.4154    -0.8756 H       
  39 H39           -3.8146     3.5229     0.0535 H       
  40 H40           -8.4733    -0.0263     1.6035 H       
  41 H41           -9.4151     4.1297     1.7795 H       
  42 H42          -10.1653     3.8630     4.1092 H       
  43 H43           -9.2237    -0.2970     3.9326 H       
  44 H44            1.7921     4.1325    -1.8453 H       
  45 H45            0.1561     3.5893    -2.2886 H       
  46 H46            0.4184     4.4731    -0.7660 H       
  47 H47            1.5584    -0.3301     2.7008 H       
  48 H48            2.1418     0.1412    -1.4885 H       
  49 H49            4.0380    -2.5129     2.3830 H       
  50 H50            5.2141    -1.2498     1.9473 H       
  51 H51            4.0931    -0.9916     3.3056 H       
  52 H52           -7.4710    -0.6117     0.3475 H       
  53 H53           -7.9138    -0.2148    -1.3238 H       
  54 H54           -3.7354    -0.0825    -0.5970 H       
  55 H55           -4.7366    -0.2861     0.8543 H       
  56 H56           -5.7367    -1.4893    -0.9839 H       
  57 H57           -5.6797    -0.0533    -2.0135 H       
  58 H58          -10.8864     3.7175    -0.2669 H       
  59 H59          -10.4084     3.7746    -1.9925 H       
  60 H60           -9.2039     1.7341    -1.8513 H       
  61 H61          -10.3549     1.4222    -0.5069 H       
@<TRIPOS>BOND
   1    1    2 ar
   2    1   18 1
   3    1    6 ar
   4    2    3 ar
   5    2   21 1
   6    3    4 ar
   7    3   36 1
   8    4    5 ar
   9    4   37 1
  10    5    6 ar
  11    5    8 1
  12    6   38 1
  13    7    8 2
  14    7   27 1
  15    7   10 1
  16    8   39 1
  17    9   10 1
  18    9   26 1
  19    9   29 1
  20   10   31 2
  21   11   12 ar
  22   11   13 ar
  23   11   29 1
  24   12   16 ar
  25   12   40 1
  26   13   14 ar
  27   13   41 1
  28   14   15 ar
  29   14   42 1
  30   15   16 ar
  31   15   17 1
  32   16   43 1
  33   18   19 1
  34   19   44 1
  35   19   45 1
  36   19   46 1
  37   20   21 1
  38   20   22 2
  39   20   47 1
  40   21   24 1
  41   22   23 1
  42   22   25 1
  43   23   24 2
  44   24   48 1
  45   25   49 1
  46   25   50 1
  47   25   51 1
  48   26   28 1
  49   26   52 1
  50   26   53 1
  51   27   28 1
  52   27   54 1
  53   27   55 1
  54   28   56 1
  55   28   57 1
  56   29   30 1
  57   29   35 1
  58   30   31 1
  59   30   32 am
  60   32   33 1
  61   32   34 2
  62   33   35 1
  63   33   58 1
  64   33   59 1
  65   35   60 1
  66   35   61 1

#	End of record

