#	Name: ASD08150218
#	Creating user name:	WinNT
#	Creation time:	15. 06. 2019 21:15

#	Modifying user name:	WinNT
#	Modification time:	15. 06. 2019 21:15

#	Program:	/corina/corina34_cracker 3.40 0067  02.08.2006

@<TRIPOS>MOLECULE
ASD08150218
  52   56    0    0    0
SMALL
NO_CHARGES


@<TRIPOS>ATOM
   1 N1            -0.2035     1.4445     0.0474 N.2     
   2 C2            -0.3138     0.1565    -0.0740 C.2     
   3 N3             0.7545    -0.6769    -0.1983 N.am    
   4 C4             2.0152    -0.1846    -0.2007 C.2     
   5 C5             2.1740     1.2705    -0.0648 C.ar    
   6 C6             3.4286     1.8771    -0.0553 C.ar    
   7 C7             3.5199     3.2454     0.0752 C.ar    
   8 C8             2.3745     4.0214     0.1969 C.ar    
   9 C9             1.1258     3.4419     0.1899 C.ar    
  10 C10            1.0069     2.0567     0.0588 C.ar    
  11 O11            2.9803    -0.9184    -0.3106 O.2     
  12 C12            0.5477    -2.0564    -0.3244 C.ar    
  13 C13            0.5795    -2.8705     0.8003 C.ar    
  14 C14            0.1393    -4.7816    -0.5736 C.ar    
  15 C15            0.3049    -2.6121    -1.5734 C.ar    
  16 C16            0.3753    -4.2302     0.6727 C.ar    
  17 C17            0.1014    -3.9730    -1.6945 C.ar    
  18 C18            0.8370    -2.2706     2.1586 C.3     
  19 C19            4.6763     1.0421    -0.1863 C.3     
  20 C20           -1.6951    -0.4460    -0.0771 C.3     
  21 C21           -2.6996     0.5787     0.4538 C.3     
  22 N22           -2.0599    -0.8242    -1.4446 N.pl3   
  23 N23           -2.9899    -1.7966    -4.2076 N.2     
  24 C24           -3.6420    -2.4890    -5.0955 C.2     
  25 N25           -4.4667    -3.3814    -4.4763 N.pl3   
  26 C26           -4.3051    -3.2206    -3.1235 C.ar    
  27 N27           -4.8265    -3.7913    -2.0422 N.ar    
  28 C28           -4.4579    -3.4067    -0.8357 C.ar    
  29 N29           -3.5660    -2.4501    -0.6387 N.ar    
  30 C30           -2.9922    -1.8236    -1.6607 C.ar    
  31 C31           -3.3534    -2.1993    -2.9656 C.ar    
  32 F32           -5.0114    -4.0119     0.2379 F       
  33 H33            4.4906     3.7188     0.0834 H       
  34 H34            2.4646     5.0929     0.2987 H       
  35 H35            0.2423     4.0557     0.2856 H       
  36 H36           -0.0198    -5.8453    -0.6709 H       
  37 H37            0.2748    -1.9810    -2.4493 H       
  38 H38            0.4002    -4.8639     1.5469 H       
  39 H39           -0.0827    -4.4065    -2.6664 H       
  40 H40           -0.1133    -2.0668     2.6519 H       
  41 H41            1.4163    -2.9704     2.7609 H       
  42 H42            1.3944    -1.3408     2.0454 H       
  43 H43            4.8701     0.8413    -1.2400 H       
  44 H44            5.5210     1.5815     0.2422 H       
  45 H45            4.5401     0.0997     0.3441 H       
  46 H46           -1.7072    -1.3304     0.5600 H       
  47 H47           -2.7526     1.4245    -0.2318 H       
  48 H48           -3.6827     0.1151     0.5355 H       
  49 H49           -2.3792     0.9266     1.4358 H       
  50 H50           -1.6478    -0.3741    -2.1986 H       
  51 H51           -3.5449    -2.3736    -6.1649 H       
  52 H52           -5.0593    -4.0134    -4.9125 H       
@<TRIPOS>BOND
   1    1    2 2
   2    1   10 1
   3    2    3 1
   4    2   20 1
   5    3    4 am
   6    3   12 1
   7    4    5 1
   8    4   11 2
   9    5    6 ar
  10    5   10 ar
  11    6    7 ar
  12    6   19 1
  13    7    8 ar
  14    7   33 1
  15    8    9 ar
  16    8   34 1
  17    9   10 ar
  18    9   35 1
  19   12   13 ar
  20   12   15 ar
  21   13   16 ar
  22   13   18 1
  23   14   16 ar
  24   14   17 ar
  25   14   36 1
  26   15   17 ar
  27   15   37 1
  28   16   38 1
  29   17   39 1
  30   18   40 1
  31   18   41 1
  32   18   42 1
  33   19   43 1
  34   19   44 1
  35   19   45 1
  36   20   21 1
  37   20   22 1
  38   20   46 1
  39   21   47 1
  40   21   48 1
  41   21   49 1
  42   22   30 1
  43   22   50 1
  44   23   24 2
  45   23   31 1
  46   24   25 1
  47   24   51 1
  48   25   26 1
  49   25   52 1
  50   26   27 ar
  51   26   31 ar
  52   27   28 ar
  53   28   29 ar
  54   28   32 1
  55   29   30 ar
  56   30   31 ar

#	End of record

