#	Name: ASD01120250
#	Creating user name:	WinNT
#	Creation time:	15. 06. 2019 18:59

#	Modifying user name:	WinNT
#	Modification time:	15. 06. 2019 18:59

#	Program:	/corina/corina34_cracker 3.40 0067  02.08.2006

@<TRIPOS>MOLECULE
ASD01120250
  59   60    0    0    0
SMALL
NO_CHARGES


@<TRIPOS>ATOM
   1 C1            -0.0167     1.3779     0.0096 C.ar    
   2 C2             0.0021    -0.0041     0.0020 C.ar    
   3 C3            -1.1857    -0.7116     0.0095 C.ar    
   4 C4            -2.3919    -0.0369     0.0251 C.ar    
   5 C5            -2.4106     1.3455     0.0336 C.ar    
   6 C6            -1.2232     2.0528     0.0305 C.ar    
   7 S7            -3.9483     2.2057     0.0529 S.o2    
   8 N8            -4.3616     2.4354     1.6399 N.am    
   9 C9            -3.6009     3.2212     2.4274 C.2     
  10 N10           -3.9372     3.4082     3.7191 N.am    
  11 O11           -3.6934     3.4955    -0.4862 O.2     
  12 O12           -4.9136     1.3142    -0.4882 O.2     
  13 O13           -2.6111     3.7615     1.9726 O.2     
  14 C14           -2.1935    11.2499    13.1690 C.ar    
  15 C15           -3.3351    11.9557    13.4991 C.ar    
  16 C16           -4.3841    11.3162    14.1331 C.ar    
  17 C17           -4.2912     9.9710    14.4369 C.ar    
  18 C18           -3.1493     9.2650    14.1067 C.ar    
  19 C19           -2.1029     9.9031    13.4677 C.ar    
  20 S20           -3.0309     7.5502    14.4939 S.o2    
  21 N21           -3.6274     6.7122    13.1961 N.am    
  22 C22           -2.9921     6.7672    12.0087 C.2     
  23 N23           -3.4777     6.0852    10.9525 N.am    
  24 O24           -1.6438     7.2492    14.5626 O.2     
  25 O25           -3.9306     7.3185    15.5691 O.2     
  26 O26           -1.9810     7.4319    11.8904 O.2     
  27 C27           -1.0501    11.9471    12.4779 C.3     
  28 C28            1.2780     2.1491     0.0014 C.3     
  29 C29           -2.7871     6.1449     9.6618 C.3     
  30 C30           -3.5394     5.2889     8.6409 C.3     
  31 S31           -2.6843     5.3629     7.0427 S.3     
  32 C32           -3.7082     4.3052     5.9828 C.3     
  33 C33           -3.1103     4.2624     4.5751 C.3     
  34 H34            0.9446    -0.5313    -0.0101 H       
  35 H35           -1.1711    -1.7915     0.0029 H       
  36 H36           -3.3198    -0.5895     0.0302 H       
  37 H37           -1.2378     3.1327     0.0372 H       
  38 H38           -5.1512     2.0044     2.0027 H       
  39 H39           -4.7269     2.9772     4.0819 H       
  40 H40           -3.4075    13.0069    13.2620 H       
  41 H41           -5.2758    11.8678    14.3917 H       
  42 H42           -5.1104     9.4716    14.9328 H       
  43 H43           -1.2109     9.3516    13.2097 H       
  44 H44           -4.4341     6.1819    13.2905 H       
  45 H45           -4.2844     5.5549    11.0469 H       
  46 H46           -0.3654    12.3496    13.2244 H       
  47 H47           -0.5200    11.2355    11.8449 H       
  48 H48           -1.4378    12.7604    11.8645 H       
  49 H49            1.5804     2.3405    -1.0282 H       
  50 H50            1.1397     3.0969     0.5217 H       
  51 H51            2.0505     1.5677     0.5048 H       
  52 H52           -2.7532     7.1778     9.3153 H       
  53 H53           -1.7714     5.7662     9.7754 H       
  54 H54           -3.5733     4.2560     8.9873 H       
  55 H55           -4.5551     5.6676     8.5273 H       
  56 H56           -3.7379     3.2969     6.3958 H       
  57 H57           -4.7198     4.7085     5.9357 H       
  58 H58           -2.0987     3.8591     4.6222 H       
  59 H59           -3.0806     5.2707     4.1621 H       
@<TRIPOS>BOND
   1    1    2 ar
   2    1   28 1
   3    1    6 ar
   4    2    3 ar
   5    2   34 1
   6    3    4 ar
   7    3   35 1
   8    4    5 ar
   9    4   36 1
  10    5    6 ar
  11    5    7 1
  12    6   37 1
  13    7    8 am
  14    7   11 2
  15    7   12 2
  16    8    9 am
  17    8   38 1
  18    9   10 am
  19    9   13 2
  20   10   33 1
  21   10   39 1
  22   14   15 ar
  23   14   27 1
  24   14   19 ar
  25   15   16 ar
  26   15   40 1
  27   16   17 ar
  28   16   41 1
  29   17   18 ar
  30   17   42 1
  31   18   19 ar
  32   18   20 1
  33   19   43 1
  34   20   21 am
  35   20   24 2
  36   20   25 2
  37   21   22 am
  38   21   44 1
  39   22   23 am
  40   22   26 2
  41   23   29 1
  42   23   45 1
  43   27   46 1
  44   27   47 1
  45   27   48 1
  46   28   49 1
  47   28   50 1
  48   28   51 1
  49   29   30 1
  50   29   52 1
  51   29   53 1
  52   30   31 1
  53   30   54 1
  54   30   55 1
  55   31   32 1
  56   32   33 1
  57   32   56 1
  58   32   57 1
  59   33   58 1
  60   33   59 1

#	End of record

