#	Name: ASD03740265
#	Creating user name:	WinNT
#	Creation time:	15. 06. 2019 20:47

#	Modifying user name:	WinNT
#	Modification time:	15. 06. 2019 20:47

#	Program:	/corina/corina34_cracker 3.40 0067  02.08.2006

@<TRIPOS>MOLECULE
ASD03740265
  59   62    0    0    0
SMALL
NO_CHARGES


@<TRIPOS>ATOM
   1 C1            -0.1274     1.2750    -0.7451 C.2     
   2 C2             6.6959    -6.0269    -2.1144 C.ar    
   3 C3             8.0123    -6.2696    -2.4458 C.ar    
   4 C4             0.0211    -0.0030    -0.2478 C.2     
   5 C5             8.7287    -5.1041    -0.4706 C.ar    
   6 C6             0.7899     1.6426    -1.6446 C.2     
   7 C7             6.3824    -5.3206    -0.9552 C.ar    
   8 C8             9.0359    -5.8118    -1.6261 C.ar    
   9 C9             7.4125    -4.8612    -0.1436 C.ar    
  10 C10            1.0718    -0.6839    -0.7484 C.2     
  11 C11            5.3091    -3.5071     1.1407 C.2     
  12 C12            1.4468    -2.0649    -0.3811 C.2     
  13 C13            3.1543    -3.7196     0.0834 C.2     
  14 C14            4.5715    -4.1179     0.2140 C.2     
  15 C15            2.8154    -2.4164    -0.2635 C.2     
  16 C16            2.1187    -4.6591     0.3094 C.2     
  17 C17           -2.0608    -6.3053     3.6438 C.3     
  18 C18           -3.0071    -5.8062     1.3860 C.3     
  19 C19           10.7179    -4.0502    -3.7964 C.3     
  20 C20           -0.6331    -5.2233     1.9022 C.3     
  21 C21           -0.2383    -5.2460     0.4242 C.3     
  22 C22           -1.7519    -6.2379     2.1469 C.3     
  23 N23            0.5098    -2.9599    -0.1597 N.2     
  24 N24            5.0478    -5.0976    -0.6307 N.pl3   
  25 N25            0.8330    -4.2745     0.1899 N.am    
  26 N26           10.3712    -6.0625    -1.9627 N.am    
  27 O27            2.3894    -5.8090     0.6147 O.2     
  28 O28            7.0827    -4.8687     2.3991 O.2     
  29 O29            7.7551    -2.7436     1.2610 O.2     
  30 O30            9.9535    -6.5545    -4.3091 O.2     
  31 O31           12.2613    -6.2048    -3.4890 O.2     
  32 O32            3.7808    -1.4942    -0.4867 O.3     
  33 S33            1.9262     0.3264    -1.9073 S.3     
  34 S34            7.0101    -3.9524     1.3153 S.o2    
  35 S35           10.8897    -5.8346    -3.5188 S.o2    
  36 H36           -0.9287     1.9287    -0.4338 H       
  37 H37            5.9050    -6.3820    -2.7584 H       
  38 H38            8.2483    -6.8179    -3.3458 H       
  39 H39           -0.6509    -0.4249     0.4849 H       
  40 H40            9.5203    -4.7459     0.1709 H       
  41 H41            0.8274     2.6033    -2.1367 H       
  42 H42            4.8733    -2.7499     1.7756 H       
  43 H43           -2.8579    -7.0281     3.8181 H       
  44 H44           -1.1666    -6.6128     4.1859 H       
  45 H45           -2.3781    -5.3230     3.9939 H       
  46 H46           -3.8042    -6.5290     1.5603 H       
  47 H47           -3.3244    -4.8239     1.7361 H       
  48 H48           -2.7870    -5.7582     0.3195 H       
  49 H49           11.3351    -3.5098    -3.0787 H       
  50 H50           11.0408    -3.8072    -4.8088 H       
  51 H51            9.6747    -3.7614    -3.6687 H       
  52 H52            0.2318    -5.4817     2.5133 H       
  53 H53           -0.9821    -4.2260     2.1698 H       
  54 H54            0.1107    -6.2433     0.1566 H       
  55 H55           -1.1031    -4.9876    -0.1869 H       
  56 H56           -1.4346    -7.2201     1.7968 H       
  57 H57            4.3919    -5.6857    -1.0367 H       
  58 H58           10.9929    -6.3696    -1.2844 H       
  59 H59            3.4437    -0.6008    -0.6391 H       
@<TRIPOS>BOND
   1    1    4 1
   2    1    6 2
   3    1   36 1
   4    2    3 ar
   5    2    7 ar
   6    2   37 1
   7    3    8 ar
   8    3   38 1
   9    4   10 2
  10    4   39 1
  11    5    8 ar
  12    5    9 ar
  13    5   40 1
  14    6   33 1
  15    6   41 1
  16    7    9 ar
  17    7   24 1
  18    8   26 1
  19    9   34 1
  20   10   12 1
  21   10   33 1
  22   11   14 2
  23   11   34 1
  24   11   42 1
  25   12   15 1
  26   12   23 2
  27   13   14 1
  28   13   15 2
  29   13   16 1
  30   14   24 1
  31   15   32 1
  32   16   25 am
  33   16   27 2
  34   17   22 1
  35   17   43 1
  36   17   44 1
  37   17   45 1
  38   18   22 1
  39   18   46 1
  40   18   47 1
  41   18   48 1
  42   19   35 1
  43   19   49 1
  44   19   50 1
  45   19   51 1
  46   20   21 1
  47   20   22 1
  48   20   52 1
  49   20   53 1
  50   21   25 1
  51   21   54 1
  52   21   55 1
  53   22   56 1
  54   23   25 1
  55   24   57 1
  56   26   35 am
  57   26   58 1
  58   28   34 2
  59   29   34 2
  60   30   35 2
  61   31   35 2
  62   32   59 1

#	End of record

