#	Name: ASD05380318
#	Creating user name:	WinNT
#	Creation time:	15. 06. 2019 20:59

#	Modifying user name:	WinNT
#	Modification time:	15. 06. 2019 20:59

#	Program:	/corina/corina34_cracker 3.40 0067  02.08.2006

@<TRIPOS>MOLECULE
ASD05380318
  54   58    0    0    0
SMALL
NO_CHARGES


@<TRIPOS>ATOM
   1 N1            -0.4973     1.6670    -0.3999 N.ar    
   2 C2            -0.2332     0.3606    -0.4231 C.ar    
   3 C3             1.0851    -0.0608    -0.5921 C.ar    
   4 C4             2.0766     0.9067    -0.7305 C.ar    
   5 N5             1.7365     2.1917    -0.6972 N.ar    
   6 C6             0.4736     2.5566    -0.5349 C.ar    
   7 N7             3.4056     0.5341    -0.9009 N.am    
   8 C8             3.8941    -0.8445    -1.0575 C.3     
   9 C9             4.4493     1.3727    -0.9550 C.2     
  10 O10            5.6266     0.7610    -1.1258 O.3     
  11 C11            5.4186    -0.6787    -1.2081 C.3     
  12 C12            6.1405    -1.3817    -0.0875 C.2     
  13 N13            6.8323    -2.4629    -0.2182 N.2     
  14 C14            7.4013    -2.9471     0.8673 C.2     
  15 C15            7.1770    -2.2347     1.9755 C.2     
  16 S16            6.1675    -0.8578     1.5399 S.3     
  17 C17            3.2970    -1.4872    -2.3110 C.3     
  18 O18            4.3366     2.5786    -0.8581 O.2     
  19 N19            0.1605     3.9045    -0.5062 N.3     
  20 C20           -1.2914     4.1059    -0.3932 C.3     
  21 C21            0.6914     4.5941    -1.6911 C.3     
  22 C22            0.3751     6.0886    -1.5896 C.3     
  23 O23           -1.0374     6.2633    -1.4490 O.3     
  24 C24           -1.5878     5.6053    -0.3047 C.3     
  25 C25           -1.3253    -0.6299    -0.2708 C.ar    
  26 C26           -2.2258    -0.5457     0.7951 C.ar    
  27 N27           -3.1857    -1.4474     0.8964 N.ar    
  28 C28           -3.3007    -2.4215     0.0047 C.ar    
  29 N29           -2.4665    -2.5349    -1.0196 N.ar    
  30 C30           -1.4846    -1.6689    -1.1929 C.ar    
  31 C31           -2.1029     0.5577     1.8142 C.3     
  32 F32           -2.4797     1.7733     1.2331 F       
  33 F33           -2.9378     0.2824     2.9025 F       
  34 F34           -0.7772     0.6417     2.2530 F       
  35 N35           -4.3188    -3.3454     0.1470 N.pl3   
  36 H36            1.3312    -1.1122    -0.6148 H       
  37 H37            3.6566    -1.4376    -0.1743 H       
  38 H38            5.7501    -1.0580    -2.1747 H       
  39 H39            7.9996    -3.8463     0.8619 H       
  40 H40            7.5515    -2.4608     2.9629 H       
  41 H41            3.5636    -0.8938    -3.1857 H       
  42 H42            3.6901    -2.4975    -2.4238 H       
  43 H43            2.2118    -1.5280    -2.2167 H       
  44 H44           -1.7861     3.6882    -1.2700 H       
  45 H45           -1.6590     3.6086     0.5044 H       
  46 H46            1.7711     4.4531    -1.7409 H       
  47 H47            0.2283     4.1842    -2.5887 H       
  48 H48            0.8821     6.5098    -0.7215 H       
  49 H49            0.7164     6.5950    -2.4925 H       
  50 H50           -2.6661     5.7622    -0.2783 H       
  51 H51           -1.1378     6.0125     0.6008 H       
  52 H52           -0.8087    -1.7672    -2.0295 H       
  53 H53           -4.9366    -3.2755     0.8915 H       
  54 H54           -4.4155    -4.0637    -0.4977 H       
@<TRIPOS>BOND
   1    1    2 ar
   2    1    6 ar
   3    2    3 ar
   4    2   25 1
   5    3    4 ar
   6    3   36 1
   7    4    5 ar
   8    4    7 1
   9    5    6 ar
  10    6   19 1
  11    7    8 1
  12    7    9 am
  13    8   17 1
  14    8   11 1
  15    8   37 1
  16    9   10 1
  17    9   18 2
  18   10   11 1
  19   11   12 1
  20   11   38 1
  21   12   13 2
  22   12   16 1
  23   13   14 1
  24   14   15 2
  25   14   39 1
  26   15   16 1
  27   15   40 1
  28   17   41 1
  29   17   42 1
  30   17   43 1
  31   19   20 1
  32   19   21 1
  33   20   24 1
  34   20   44 1
  35   20   45 1
  36   21   22 1
  37   21   46 1
  38   21   47 1
  39   22   23 1
  40   22   48 1
  41   22   49 1
  42   23   24 1
  43   24   50 1
  44   24   51 1
  45   25   26 ar
  46   25   30 ar
  47   26   27 ar
  48   26   31 1
  49   27   28 ar
  50   28   29 ar
  51   28   35 1
  52   29   30 ar
  53   30   52 1
  54   31   32 1
  55   31   33 1
  56   31   34 1
  57   35   53 1
  58   35   54 1

#	End of record

