#	Name: ASD03330897
#	Creating user name:	WinNT
#	Creation time:	15. 06. 2019 20:38

#	Modifying user name:	WinNT
#	Modification time:	15. 06. 2019 20:38

#	Program:	/corina/corina34_cracker 3.40 0067  02.08.2006

@<TRIPOS>MOLECULE
ASD03330897
  62   65    0    0    0
SMALL
NO_CHARGES


@<TRIPOS>ATOM
   1 C1            -0.0199     1.2413     0.1836 C.2     
   2 C2            -0.0397    -0.2328     0.4955 C.3     
   3 N3             1.1232     1.9841     0.1140 N.pl3   
   4 N4             1.3297    -0.7518     0.3264 N.3     
   5 C5             2.3052     0.0775     1.0478 C.3     
   6 C6             2.4610     1.4307     0.3419 C.3     
   7 C7             0.7638     3.2588    -0.1896 C.2     
   8 N8            -0.5452     3.3086    -0.3007 N.2     
   9 C9            -1.0560     2.0750    -0.0798 C.2     
  10 C10           -2.4818     1.7053    -0.1159 C.2     
  11 O11           -2.8181     0.5572     0.1036 O.2     
  12 N12           -3.4134     2.6392    -0.3923 N.am    
  13 C13            1.6895     4.3984    -0.3654 C.ar    
  14 C14            1.4280     5.6180     0.2650 C.ar    
  15 C15            2.2963     6.6796     0.0972 C.ar    
  16 C16            3.4237     6.5367    -0.6944 C.ar    
  17 C17            3.6880     5.3277    -1.3228 C.ar    
  18 C18            2.8301     4.2583    -1.1568 C.ar    
  19 F19            4.7895     5.1951    -2.0936 F       
  20 F20            4.2690     7.5781    -0.8560 F       
  21 F21            0.3281     5.7588     1.0368 F       
  22 C22            1.4117    -2.0745     0.7257 C.ar    
  23 N23            2.5743    -2.7044     0.6421 N.ar    
  24 C24            2.6868    -3.9684     1.0154 C.ar    
  25 C25            1.5702    -4.6329     1.4980 C.ar    
  26 C26            0.3698    -3.9440     1.5721 C.ar    
  27 N27            0.3269    -2.6791     1.1875 N.ar    
  28 C28           -5.5780     3.2366    -1.3125 C.2     
  29 C29           -4.8311     2.2715    -0.4283 C.3     
  30 C30           -5.4081     2.3259     0.9877 C.3     
  31 C31           -5.3316     3.7602     1.5149 C.3     
  32 O32           -5.1614     4.3652    -1.4662 O.2     
  33 N33           -6.7090     2.8455    -1.9325 N.am    
  34 C34           -7.4935     3.8128    -2.7039 C.3     
  35 C35           -6.8682     1.8694     0.9612 C.3     
  36 C36           -4.6016     1.4024     1.9029 C.3     
  37 H37           -0.3682    -0.3877     1.5232 H       
  38 H38           -0.7153    -0.7454    -0.1893 H       
  39 H39            1.9587     0.2392     2.0685 H       
  40 H40            3.2682    -0.4326     1.0698 H       
  41 H41            2.9688     1.2913    -0.6124 H       
  42 H42            3.0376     2.1093     0.9704 H       
  43 H43           -3.1452     3.5548    -0.5675 H       
  44 H44            2.0954     7.6225     0.5839 H       
  45 H45            3.0391     3.3167    -1.6426 H       
  46 H46            3.6371    -4.4767     0.9446 H       
  47 H47            1.6341    -5.6651     1.8092 H       
  48 H48           -0.5189    -4.4328     1.9431 H       
  49 H49           -4.9345     1.2613    -0.8243 H       
  50 H50           -5.9062     4.4180     0.8629 H       
  51 H51           -5.7427     3.7989     2.5236 H       
  52 H52           -4.2914     4.0854     1.5337 H       
  53 H53           -7.0035     1.9235    -1.8680 H       
  54 H54           -8.3661     3.3166    -3.1287 H       
  55 H55           -7.8182     4.6216    -2.0494 H       
  56 H56           -6.8799     4.2198    -3.5076 H       
  57 H57           -6.9170     0.8256     0.6512 H       
  58 H58           -7.2994     1.9732     1.9569 H       
  59 H59           -7.4284     2.4843     0.2568 H       
  60 H60           -3.5614     1.7276     1.9217 H       
  61 H61           -5.0127     1.4412     2.9116 H       
  62 H62           -4.6561     0.3806     1.5273 H       
@<TRIPOS>BOND
   1    1    2 1
   2    1    3 1
   3    1    9 2
   4    2    4 1
   5    2   37 1
   6    2   38 1
   7    3    6 1
   8    3    7 1
   9    4    5 1
  10    4   22 1
  11    5    6 1
  12    5   39 1
  13    5   40 1
  14    6   41 1
  15    6   42 1
  16    7    8 2
  17    7   13 1
  18    8    9 1
  19    9   10 1
  20   10   11 2
  21   10   12 am
  22   12   29 1
  23   12   43 1
  24   13   14 ar
  25   13   18 ar
  26   14   15 ar
  27   14   21 1
  28   15   16 ar
  29   15   44 1
  30   16   17 ar
  31   16   20 1
  32   17   18 ar
  33   17   19 1
  34   18   45 1
  35   22   23 ar
  36   22   27 ar
  37   23   24 ar
  38   24   25 ar
  39   24   46 1
  40   25   26 ar
  41   25   47 1
  42   26   27 ar
  43   26   48 1
  44   28   32 2
  45   28   33 am
  46   28   29 1
  47   29   30 1
  48   29   49 1
  49   30   31 1
  50   30   35 1
  51   30   36 1
  52   31   50 1
  53   31   51 1
  54   31   52 1
  55   33   34 1
  56   33   53 1
  57   34   54 1
  58   34   55 1
  59   34   56 1
  60   35   57 1
  61   35   58 1
  62   35   59 1
  63   36   60 1
  64   36   61 1
  65   36   62 1

#	End of record

