#	Name: ASD05430139
#	Creating user name:	WinNT
#	Creation time:	15. 06. 2019 20:59

#	Modifying user name:	WinNT
#	Modification time:	15. 06. 2019 20:59

#	Program:	/corina/corina34_cracker 3.40 0067  02.08.2006

@<TRIPOS>MOLECULE
ASD05430139
  70   75    0    0    0
SMALL
NO_CHARGES


@<TRIPOS>ATOM
   1 C1             0.1712     1.1842    -1.0136 C.ar    
   2 C2             0.0190    -0.0126    -0.3144 C.ar    
   3 C3             1.0533    -0.4949     0.4770 C.ar    
   4 C4             2.2352     0.2069     0.5751 C.ar    
   5 C5             2.3953     1.4080    -0.1238 C.ar    
   6 C6             1.3538     1.8935    -0.9204 C.ar    
   7 C7             4.8924    -0.0015    -0.0879 C.3     
   8 C8             4.8285     1.5000     0.0683 C.2     
   9 C9             3.6566     2.1595    -0.0200 C.2     
  10 C10            6.3153    -0.4510    -0.4093 C.3     
  11 C11            7.0711     0.5917    -1.2339 C.3     
  12 N12            7.1896     1.8238    -0.4533 N.pl3   
  13 C13            6.0870     2.2183     0.3203 C.2     
  14 C14            8.1764     3.8268    -1.3992 C.ar    
  15 C15            9.1847     4.7546    -1.5830 C.ar    
  16 C16            8.9904     5.8281    -2.4313 C.ar    
  17 C17            7.7853     5.9742    -3.0973 C.ar    
  18 C18            6.7762     5.0444    -2.9124 C.ar    
  19 C19            6.9728     3.9717    -2.0637 C.ar    
  20 N20           -1.1816    -0.7307    -0.4102 N.pl3   
  21 C21           -1.3121    -2.0663    -0.6895 C.2     
  22 C22           -2.6310    -2.3392    -0.6835 C.2     
  23 N23           -3.2918    -1.2050    -0.4087 N.2     
  24 C24           -2.4344    -0.2355    -0.2379 C.2     
  25 C25           -3.2560    -3.6859    -0.9416 C.3     
  26 N26            6.1984     3.1383     1.2231 N.2     
  27 C27           -0.6169     2.8827    -2.4792 C.3     
  28 O28           -0.8417     1.6505    -1.7914 O.3     
  29 C29            8.3918     2.6532    -0.4787 C.3     
  30 C30            8.6732     3.1587     0.9411 C.3     
  31 N31            7.4436     3.7065     1.5184 N.pl3   
  32 F32            7.5941     7.0236    -3.9265 F       
  33 O33           10.7525     2.6356    -0.9957 O.3     
  34 C34            9.5779     1.8220    -0.9717 C.3     
  35 O35            7.0265    -0.7037     0.8089 O.3     
  36 C36            7.3988    -2.0889     0.8821 C.3     
  37 C37            7.4463    -2.5730    -0.5891 C.3     
  38 C38            6.2618    -1.7760    -1.2002 C.3     
  39 H39            0.9310    -1.4221     1.0171 H       
  40 H40            3.0376    -0.1701     1.1918 H       
  41 H41            1.4733     2.8202    -1.4620 H       
  42 H42            4.5679    -0.4731     0.8398 H       
  43 H43            4.2282    -0.3069    -0.8964 H       
  44 H44            3.6429     3.2394    -0.0146 H       
  45 H45            8.0654     0.2154    -1.4744 H       
  46 H46            6.5241     0.7947    -2.1547 H       
  47 H47           10.1244     4.6406    -1.0632 H       
  48 H48            9.7781     6.5530    -2.5745 H       
  49 H49            5.8358     5.1574    -3.4314 H       
  50 H50            6.1858     3.2462    -1.9193 H       
  51 H51           -0.5110    -2.7656    -0.8787 H       
  52 H52           -2.6804     0.7899    -0.0046 H       
  53 H53           -3.3577    -4.2257    -0.0001 H       
  54 H54           -4.2400    -3.5498    -1.3904 H       
  55 H55           -2.6226    -4.2563    -1.6209 H       
  56 H56           -0.4168     3.6720    -1.7547 H       
  57 H57            0.2389     2.7759    -3.1458 H       
  58 H58           -1.5014     3.1401    -3.0620 H       
  59 H59            9.0269     2.3321     1.5574 H       
  60 H60            9.4356     3.9368     0.9051 H       
  61 H61            7.4924     4.4721     2.1121 H       
  62 H62           11.5454     2.1726    -1.2989 H       
  63 H63            9.7342     0.9779    -0.3000 H       
  64 H64            9.3707     1.4534    -1.9763 H       
  65 H65            8.3793    -2.1932     1.3466 H       
  66 H66            6.6522    -2.6523     1.4418 H       
  67 H67            8.3894    -2.2996    -1.0623 H       
  68 H68            7.2727    -3.6471    -0.6550 H       
  69 H69            5.3173    -2.2923    -1.0285 H       
  70 H70            6.4208    -1.5994    -2.2639 H       
@<TRIPOS>BOND
   1    1    2 ar
   2    1    6 ar
   3    1   28 1
   4    2    3 ar
   5    2   20 1
   6    3    4 ar
   7    3   39 1
   8    4    5 ar
   9    4   40 1
  10    5    6 ar
  11    5    9 1
  12    6   41 1
  13    7    8 1
  14    7   10 1
  15    7   42 1
  16    7   43 1
  17    8    9 2
  18    8   13 1
  19    9   44 1
  20   10   11 1
  21   10   35 1
  22   10   38 1
  23   11   12 1
  24   11   45 1
  25   11   46 1
  26   12   13 1
  27   12   29 1
  28   13   26 2
  29   14   15 ar
  30   14   19 ar
  31   14   29 1
  32   15   16 ar
  33   15   47 1
  34   16   17 ar
  35   16   48 1
  36   17   18 ar
  37   17   32 1
  38   18   19 ar
  39   18   49 1
  40   19   50 1
  41   20   21 1
  42   20   24 1
  43   21   22 2
  44   21   51 1
  45   22   23 1
  46   22   25 1
  47   23   24 2
  48   24   52 1
  49   25   53 1
  50   25   54 1
  51   25   55 1
  52   26   31 1
  53   27   28 1
  54   27   56 1
  55   27   57 1
  56   27   58 1
  57   29   30 1
  58   29   34 1
  59   30   31 1
  60   30   59 1
  61   30   60 1
  62   31   61 1
  63   33   34 1
  64   33   62 1
  65   34   63 1
  66   34   64 1
  67   35   36 1
  68   36   37 1
  69   36   65 1
  70   36   66 1
  71   37   38 1
  72   37   67 1
  73   37   68 1
  74   38   69 1
  75   38   70 1

#	End of record

