#	Name: ASD08150730
#	Creating user name:	WinNT
#	Creation time:	15. 06. 2019 21:16

#	Modifying user name:	WinNT
#	Modification time:	15. 06. 2019 21:16

#	Program:	/corina/corina34_cracker 3.40 0067  02.08.2006

@<TRIPOS>MOLECULE
ASD08150730
  39   42    0    0    0
SMALL
NO_CHARGES


@<TRIPOS>ATOM
   1 C1            -0.0173     1.3307     0.1144 C.2     
   2 N2            -0.0006     0.0026     0.2077 N.2     
   3 C3             1.1379    -0.6678     0.2945 C.2     
   4 C4             2.3418     0.0100     0.2896 C.2     
   5 C5             2.3321     1.4069     0.1918 C.2     
   6 N6             1.1468     2.0477     0.1054 N.am    
   7 C7            -1.2494     2.0036     0.0181 C.2     
   8 C8            -1.2647     3.3628    -0.0774 C.2     
   9 C9            -0.0540     4.0700    -0.0781 C.2     
  10 C10            1.1204     3.4061     0.0093 C.2     
  11 O11            3.3788     2.0354     0.1852 O.2     
  12 C12            2.4148     4.1777     0.0011 C.3     
  13 Br13           3.9761    -0.9333     0.4136 Br      
  14 C14            1.1204    -2.1710     0.3993 C.3     
  15 C15            0.3502    -2.5859     1.6545 C.3     
  16 N16           -1.0655    -3.1615    -2.2791 N.2     
  17 C17           -0.8138    -2.4986    -1.1879 C.2     
  18 N18            0.4664    -2.7355    -0.7838 N.pl3   
  19 C19            1.0302    -3.5990    -1.6887 C.ar    
  20 N20            2.2204    -4.1753    -1.8201 N.ar    
  21 C21            2.4667    -4.9837    -2.8295 C.ar    
  22 N22            1.5632    -5.2623    -3.7512 N.ar    
  23 C23            0.3450    -4.7331    -3.7031 C.ar    
  24 C24            0.0340    -3.8640    -2.6438 C.ar    
  25 N25           -0.5952    -5.0307    -4.6740 N.pl3   
  26 H26           -2.1752     1.4474     0.0194 H       
  27 H27           -2.2032     3.8919    -0.1523 H       
  28 H28           -0.0594     5.1473    -0.1535 H       
  29 H29            3.0208     3.8617    -0.8481 H       
  30 H30            2.2020     5.2436    -0.0811 H       
  31 H31            2.9580     3.9860     0.9264 H       
  32 H32            2.1432    -2.5428     0.4612 H       
  33 H33            0.8368    -2.1659     2.5348 H       
  34 H34           -0.6726    -2.2141     1.5926 H       
  35 H35            0.3376    -3.6731     1.7303 H       
  36 H36           -1.5155    -1.8553    -0.6778 H       
  37 H37            3.4446    -5.4357    -2.9068 H       
  38 H38           -0.3684    -5.6320    -5.4006 H       
  39 H39           -1.4810    -4.6381    -4.6279 H       
@<TRIPOS>BOND
   1    1    2 2
   2    1    6 1
   3    1    7 1
   4    2    3 1
   5    3    4 2
   6    3   14 1
   7    4    5 1
   8    4   13 1
   9    5    6 am
  10    5   11 2
  11    6   10 1
  12    7    8 2
  13    7   26 1
  14    8    9 1
  15    8   27 1
  16    9   10 2
  17    9   28 1
  18   10   12 1
  19   12   29 1
  20   12   30 1
  21   12   31 1
  22   14   15 1
  23   14   18 1
  24   14   32 1
  25   15   33 1
  26   15   34 1
  27   15   35 1
  28   16   17 2
  29   16   24 1
  30   17   18 1
  31   17   36 1
  32   18   19 1
  33   19   20 ar
  34   19   24 ar
  35   20   21 ar
  36   21   22 ar
  37   21   37 1
  38   22   23 ar
  39   23   24 ar
  40   23   25 1
  41   25   38 1
  42   25   39 1

#	End of record

