#	Name: ASD01811498
#	Creating user name:	WinNT
#	Creation time:	15. 06. 2019 19:26

#	Modifying user name:	WinNT
#	Modification time:	15. 06. 2019 19:26

#	Program:	/corina/corina34_cracker 3.40 0067  02.08.2006

@<TRIPOS>MOLECULE
ASD01811498
  58   62    0    0    0
SMALL
NO_CHARGES


@<TRIPOS>ATOM
   1 C1             7.9518    -7.8432    -2.9170 C.ar    
   2 C2             6.6477    -7.6880    -2.4428 C.ar    
   3 C3             6.2608    -6.4909    -1.8769 C.ar    
   4 C4             7.1617    -5.4454    -1.7787 C.ar    
   5 C5             8.4555    -5.5923    -2.2466 C.ar    
   6 C6             8.8558    -6.7839    -2.8147 C.ar    
   7 N7             7.1491    -1.4751    -0.3100 N.am    
   8 C8             7.1421    -2.5339     0.7086 C.3     
   9 C9             7.6045    -3.8434     0.0618 C.3     
  10 C10            6.7316    -4.1404    -1.1597 C.3     
  11 C11            6.8857    -3.0146    -2.1848 C.3     
  12 C12            6.4151    -1.6958    -1.5635 C.3     
  13 C13            7.8116    -0.3210    -0.0963 C.2     
  14 C14            8.4429    -0.0630     1.2157 C.ar    
  15 C15            9.7128     0.5064     1.2795 C.ar    
  16 C16           10.3004     0.7461     2.5196 C.ar    
  17 C17            9.6143     0.4148     3.6895 C.ar    
  18 C18            8.3557    -0.1494     3.6194 C.ar    
  19 C19            7.7651    -0.3844     2.3940 C.ar    
  20 O20            7.8902     0.5077    -0.9820 O.2     
  21 C21           11.6486     1.3500     2.5967 C.2     
  22 N22           12.2579     1.7368     3.6994 N.2     
  23 C23           13.4522     2.2298     3.3870 C.2     
  24 C24           13.6065     2.1555     2.0420 C.2     
  25 N25           12.4765     1.5961     1.5364 N.pl3   
  26 C26           14.5160     2.7927     4.2989 C.3     
  27 C27           14.8431     2.6284     1.3225 C.3     
  28 O28           15.5970     3.4461     2.2284 O.3     
  29 C29           15.8301     2.8480     3.5063 C.3     
  30 C30           10.2488     0.6730     5.0319 C.3     
  31 C31            8.3621    -9.0850    -3.5003 C.1     
  32 N32            8.6875   -10.0701    -3.9630 N.1     
  33 H33            5.9434    -8.5032    -2.5192 H       
  34 H34            5.2524    -6.3694    -1.5100 H       
  35 H35            9.1537    -4.7721    -2.1668 H       
  36 H36            9.8661    -6.8973    -3.1792 H       
  37 H37            7.8211    -2.2666     1.5182 H       
  38 H38            6.1326    -2.6568     1.1010 H       
  39 H39            8.6449    -3.7480    -0.2490 H       
  40 H40            7.5124    -4.6569     0.7813 H       
  41 H41            5.6884    -4.2109    -0.8520 H       
  42 H42            7.9328    -2.9271    -2.4745 H       
  43 H43            6.2819    -3.2383    -3.0643 H       
  44 H44            5.3463    -1.7503    -1.3564 H       
  45 H45            6.6144    -0.8754    -2.2530 H       
  46 H46           10.2395     0.7606     0.3716 H       
  47 H47            7.8293    -0.4039     4.5275 H       
  48 H48            6.7787    -0.8215     2.3461 H       
  49 H49           12.2916     1.4093     0.6027 H       
  50 H50           14.2351     3.7961     4.6188 H       
  51 H51           14.6362     2.1470     5.1687 H       
  52 H52           15.4414     1.7707     1.0152 H       
  53 H53           14.5593     3.2131     0.4474 H       
  54 H54           16.5607     3.4410     4.0564 H       
  55 H55           16.2137     1.8370     3.3691 H       
  56 H56           10.0802     1.7107     5.3198 H       
  57 H57            9.8047     0.0126     5.7767 H       
  58 H58           11.3202     0.4826     4.9700 H       
@<TRIPOS>BOND
   1    1    2 ar
   2    1    6 ar
   3    1   31 1
   4    2    3 ar
   5    2   33 1
   6    3    4 ar
   7    3   34 1
   8    4    5 ar
   9    4   10 1
  10    5    6 ar
  11    5   35 1
  12    6   36 1
  13    7    8 1
  14    7   12 1
  15    7   13 am
  16    8    9 1
  17    8   37 1
  18    8   38 1
  19    9   10 1
  20    9   39 1
  21    9   40 1
  22   10   11 1
  23   10   41 1
  24   11   12 1
  25   11   42 1
  26   11   43 1
  27   12   44 1
  28   12   45 1
  29   13   14 1
  30   13   20 2
  31   14   15 ar
  32   14   19 ar
  33   15   16 ar
  34   15   46 1
  35   16   17 ar
  36   16   21 1
  37   17   18 ar
  38   17   30 1
  39   18   19 ar
  40   18   47 1
  41   19   48 1
  42   21   22 2
  43   21   25 1
  44   22   23 1
  45   23   24 2
  46   23   26 1
  47   24   25 1
  48   24   27 1
  49   25   49 1
  50   26   29 1
  51   26   50 1
  52   26   51 1
  53   27   28 1
  54   27   52 1
  55   27   53 1
  56   28   29 1
  57   29   54 1
  58   29   55 1
  59   30   56 1
  60   30   57 1
  61   30   58 1
  62   31   32 3

#	End of record

