#	Name: ASD01840518
#	Creating user name:	WinNT
#	Creation time:	15. 06. 2019 19:37

#	Modifying user name:	WinNT
#	Modification time:	15. 06. 2019 19:37

#	Program:	/corina/corina34_cracker 3.40 0067  02.08.2006

@<TRIPOS>MOLECULE
ASD01840518
  52   55    0    0    0
SMALL
NO_CHARGES


@<TRIPOS>ATOM
   1 C1             2.6287    -0.5688     1.0263 C.3     
   2 C2             1.3143    -1.1295     0.5478 C.ar    
   3 C3             1.2129    -1.7431    -0.6872 C.ar    
   4 Cl4            2.6038    -1.8810    -1.7169 Cl      
   5 N5             0.0394    -2.2256    -1.0753 N.ar    
   6 C6            -1.0234    -2.1275    -0.3027 C.ar    
   7 C7            -2.3349    -2.6905    -0.7864 C.3     
   8 O8            -2.4486    -4.0542    -0.3748 O.3     
   9 N9            -0.9716    -1.5512     0.8812 N.ar    
  10 C10            0.1699    -1.0477     1.3424 C.ar    
  11 N11            0.2208    -0.4471     2.5900 N.3     
  12 C12           -0.7095     0.6865     2.6667 C.3     
  13 C13           -0.5223     1.4124     4.0009 C.3     
  14 C14           -0.7843     0.4344     5.1495 C.3     
  15 C15            0.1646    -0.7602     5.0188 C.3     
  16 C16           -0.0425    -1.4231     3.6551 C.3     
  17 O17           -0.5556     1.0915     6.3977 O.3     
  18 C18           -1.2062     0.5962     7.4845 C.ar    
  19 C19           -1.1203     1.2535     8.7026 C.ar    
  20 C20           -1.7809     0.7478     9.8045 C.ar    
  21 C21           -2.5300    -0.4177     9.6940 C.ar    
  22 N22           -3.1851    -0.9170    10.8287 N.pl3   
  23 C23           -4.2020    -1.9638    10.6585 C.3     
  24 C24           -3.6444    -3.0039     9.6781 C.3     
  25 C25           -3.4267    -2.3361     8.3205 C.3     
  26 C26           -2.6190    -1.0747     8.4767 C.ar    
  27 C27           -1.9591    -0.5618     7.3726 C.ar    
  28 H28            3.1979    -1.3528     1.5258 H       
  29 H29            3.1960    -0.1949     0.1740 H       
  30 H30            2.4430     0.2468     1.7252 H       
  31 H31           -3.1566    -2.1132    -0.3623 H       
  32 H32           -2.3752    -2.6347    -1.8742 H       
  33 H33           -3.2705    -4.4815    -0.6522 H       
  34 H34           -0.5097     1.3764     1.8467 H       
  35 H35           -1.7338     0.3213     2.5925 H       
  36 H36            0.4980     1.7898     4.0698 H       
  37 H37           -1.2237     2.2443     4.0641 H       
  38 H38           -1.8162     0.0866     5.1036 H       
  39 H39            1.1957    -0.4170     5.1037 H       
  40 H40           -0.0460    -1.4805     5.8093 H       
  41 H41           -1.0699    -1.7784     3.5762 H       
  42 H42            0.6418    -2.2654     3.5531 H       
  43 H43           -0.5377     2.1588     8.7892 H       
  44 H44           -1.7152     1.2585    10.7538 H       
  45 H45           -2.9704    -0.5772    11.7115 H       
  46 H46           -4.4101    -2.4359    11.6187 H       
  47 H47           -5.1159    -1.5284    10.2545 H       
  48 H48           -2.6954    -3.3872    10.0529 H       
  49 H49           -4.3551    -3.8236     9.5720 H       
  50 H50           -2.8959    -3.0239     7.6623 H       
  51 H51           -4.3936    -2.0921     7.8805 H       
  52 H52           -2.0276    -1.0689     6.4216 H       
@<TRIPOS>BOND
   1    1    2 1
   2    1   28 1
   3    1   29 1
   4    1   30 1
   5    2   10 ar
   6    2    3 ar
   7    3    4 1
   8    3    5 ar
   9    5    6 ar
  10    6    7 1
  11    6    9 ar
  12    7    8 1
  13    7   31 1
  14    7   32 1
  15    8   33 1
  16    9   10 ar
  17   10   11 1
  18   11   16 1
  19   11   12 1
  20   12   13 1
  21   12   34 1
  22   12   35 1
  23   13   14 1
  24   13   36 1
  25   13   37 1
  26   14   15 1
  27   14   17 1
  28   14   38 1
  29   15   16 1
  30   15   39 1
  31   15   40 1
  32   16   41 1
  33   16   42 1
  34   17   18 1
  35   18   27 ar
  36   18   19 ar
  37   19   20 ar
  38   19   43 1
  39   20   21 ar
  40   20   44 1
  41   21   26 ar
  42   21   22 1
  43   22   23 1
  44   22   45 1
  45   23   24 1
  46   23   46 1
  47   23   47 1
  48   24   25 1
  49   24   48 1
  50   24   49 1
  51   25   26 1
  52   25   50 1
  53   25   51 1
  54   26   27 ar
  55   27   52 1

#	End of record

