#	Name: ASD02408148
#	Creating user name:	WinNT
#	Creation time:	15. 06. 2019 20:21

#	Modifying user name:	WinNT
#	Modification time:	15. 06. 2019 20:21

#	Program:	/corina/corina34_cracker 3.40 0067  02.08.2006

@<TRIPOS>MOLECULE
ASD02408148
  46   48    0    0    0
SMALL
NO_CHARGES


@<TRIPOS>ATOM
   1 C1            -0.9958     1.6791     0.2151 C.ar    
   2 C2            -1.2274     0.3114     0.2071 C.ar    
   3 C3             0.2870     2.1644     0.0053 C.ar    
   4 C4             1.3300     1.2851    -0.2110 C.ar    
   5 C5             1.0966    -0.0779    -0.2186 C.ar    
   6 C6            -0.1806    -0.5640    -0.0098 C.ar    
   7 C7             0.5420     3.6497     0.0129 C.3     
   8 C8             0.7534     4.1158     1.4303 C.2     
   9 N9             0.9979     5.4210     1.6569 N.am    
  10 N10            0.6882     3.2423     2.3981 N.2     
  11 C11            0.8673     3.5990     3.6764 C.2     
  12 C12            1.1314     4.9440     3.9839 C.2     
  13 C13            1.1916     5.8732     2.9137 C.2     
  14 N14            0.7931     2.6602     4.6759 N.pl3   
  15 C15            0.1526     2.9756     5.9618 C.3     
  16 O16            1.4175     7.0524     3.1240 O.2     
  17 C17           -0.8739     1.8818     6.2756 C.3     
  18 N18           -0.2194     0.5682     6.2133 N.3     
  19 C19            0.2784     0.2844     4.8607 C.3     
  20 C20            1.3466     1.3107     4.4867 C.3     
  21 C21           -1.1242    -0.4931     6.6747 C.3     
  22 C22            1.3286     5.3655     5.3382 C.1     
  23 N23            1.4852     5.6999     6.4125 N.1     
  24 O24           -2.0247     2.5424     0.4226 O.3     
  25 C25           -3.3192     1.9721     0.6256 C.3     
  26 F26           -3.2918     1.1423     1.7516 F       
  27 F27           -4.2535     2.9946     0.8224 F       
  28 F28           -3.6794     1.2212    -0.4984 F       
  29 H29           -2.2249    -0.0688     0.3705 H       
  30 H30            2.3286     1.6624    -0.3748 H       
  31 H31            1.9134    -0.7638    -0.3882 H       
  32 H32           -0.3604    -1.6289    -0.0161 H       
  33 H33            1.4313     3.8687    -0.5781 H       
  34 H34           -0.3158     4.1678    -0.4158 H       
  35 H35            1.0354     6.0403     0.9113 H       
  36 H36            0.9064     3.0068     6.7485 H       
  37 H37           -0.3498     3.9405     5.8937 H       
  38 H38           -1.2791     2.0393     7.2751 H       
  39 H39           -1.6817     1.9207     5.5448 H       
  40 H40            0.7088    -0.7167     4.8341 H       
  41 H41           -0.5455     0.3455     4.1497 H       
  42 H42            1.6361     1.1748     3.4447 H       
  43 H43            2.2168     1.1848     5.1309 H       
  44 H44           -2.0116    -0.5145     6.0422 H       
  45 H45           -0.6146    -1.4550     6.6183 H       
  46 H46           -1.4177    -0.2974     7.7061 H       
@<TRIPOS>BOND
   1    1    2 ar
   2    1    3 ar
   3    1   24 1
   4    2    6 ar
   5    2   29 1
   6    3    4 ar
   7    3    7 1
   8    4    5 ar
   9    4   30 1
  10    5    6 ar
  11    5   31 1
  12    6   32 1
  13    7    8 1
  14    7   33 1
  15    7   34 1
  16    8    9 1
  17    8   10 2
  18    9   13 am
  19    9   35 1
  20   10   11 1
  21   11   12 2
  22   11   14 1
  23   12   13 1
  24   12   22 1
  25   13   16 2
  26   14   15 1
  27   14   20 1
  28   15   17 1
  29   15   36 1
  30   15   37 1
  31   17   18 1
  32   17   38 1
  33   17   39 1
  34   18   19 1
  35   18   21 1
  36   19   20 1
  37   19   40 1
  38   19   41 1
  39   20   42 1
  40   20   43 1
  41   21   44 1
  42   21   45 1
  43   21   46 1
  44   22   23 3
  45   24   25 1
  46   25   26 1
  47   25   27 1
  48   25   28 1

#	End of record

