#	Name: ASD06560011
#	Creating user name:	WinNT
#	Creation time:	15. 06. 2019 21:06

#	Modifying user name:	WinNT
#	Modification time:	15. 06. 2019 21:06

#	Program:	/corina/corina34_cracker 3.40 0067  02.08.2006

@<TRIPOS>MOLECULE
ASD06560011
  50   54    0    0    0
SMALL
NO_CHARGES


@<TRIPOS>ATOM
   1 C1            -0.0170     1.4034     0.0098 C.ar    
   2 C2             0.0021    -0.0041     0.0020 C.ar    
   3 N3             2.3589     0.0707    -0.0201 N.ar    
   4 C4             2.2982     1.3981    -0.0124 C.ar    
   5 N5             1.1381     2.0547     0.0022 N.ar    
   6 N6            -0.9508    -0.9663     0.0055 N.2     
   7 C7            -0.3845    -2.1382    -0.0064 C.2     
   8 N8             0.9722    -2.0001    -0.0184 N.pl3   
   9 C9             1.2483    -0.6555    -0.0134 C.ar    
  10 C10            1.7915    -3.9791     1.2147 C.3     
  11 C11            2.0424    -5.4264     0.7563 C.3     
  12 C12            2.3489    -5.3634    -0.7543 C.3     
  13 C13            1.6861    -4.0437    -1.2216 C.3     
  14 C14            1.9543    -3.0871    -0.0333 C.3     
  15 N15           -1.2167     2.0934     0.0192 N.pl3   
  16 C16           -1.2191     3.5584     0.0272 C.3     
  17 O17            3.7598    -5.3207    -0.9770 O.3     
  18 O18            2.3087    -3.5586    -2.4129 O.3     
  19 C19            2.8558    -6.3825     1.5900 C.2     
  20 O20            3.3279    -6.0164     2.6455 O.2     
  21 N21            3.0588    -7.6445     1.1627 N.am    
  22 C22            3.8496    -8.5741     1.9732 C.3     
  23 C23            3.5184     2.1475    -0.0200 C.1     
  24 C24            4.5188     2.7619    -0.0263 C.1     
  25 C25            0.6517    -4.9995     1.2303 C.3     
  26 C26            5.7390     3.5113    -0.0339 C.2     
  27 S27            7.3567     2.8215    -0.0607 S.3     
  28 C28            5.8293     4.8737    -0.0274 C.2     
  29 C29            7.1171     5.3579    -0.0371 C.2     
  30 C30            8.0769     4.4254    -0.0536 C.2     
  31 H31           -0.9114    -3.0809    -0.0065 H       
  32 H32            2.1951    -3.6044     2.1554 H       
  33 H33            1.9060    -6.2159    -1.2692 H       
  34 H34            0.6155    -4.1815    -1.3725 H       
  35 H35            2.9661    -2.6850    -0.0855 H       
  36 H36           -2.0559     1.6070     0.0206 H       
  37 H37           -0.7016     3.9177     0.9167 H       
  38 H38           -0.7101     3.9274    -0.8632 H       
  39 H39           -2.2473     3.9200     0.0341 H       
  40 H40            4.0096    -5.2803    -1.9103 H       
  41 H41            2.2385    -4.1604    -3.1665 H       
  42 H42            2.6813    -7.9374     0.3186 H       
  43 H43            4.8556    -8.1757     2.1052 H       
  44 H44            3.3774    -8.6987     2.9477 H       
  45 H45            3.9042    -9.5393     1.4697 H       
  46 H46            0.3174    -5.3650     2.2013 H       
  47 H47           -0.1268    -4.8951     0.4746 H       
  48 H48            4.9623     5.5175    -0.0160 H       
  49 H49            7.3377     6.4151    -0.0339 H       
  50 H50            9.1376     4.6283    -0.0647 H       
@<TRIPOS>BOND
   1    1    2 ar
   2    1    5 ar
   3    1   15 1
   4    2    9 ar
   5    2    6 1
   6    3    4 ar
   7    3    9 ar
   8    4    5 ar
   9    4   23 1
  10    6    7 2
  11    7    8 1
  12    7   31 1
  13    8    9 1
  14    8   14 1
  15   10   11 1
  16   10   14 1
  17   10   25 1
  18   10   32 1
  19   11   12 1
  20   11   19 1
  21   11   25 1
  22   12   13 1
  23   12   17 1
  24   12   33 1
  25   13   14 1
  26   13   18 1
  27   13   34 1
  28   14   35 1
  29   15   16 1
  30   15   36 1
  31   16   37 1
  32   16   38 1
  33   16   39 1
  34   17   40 1
  35   18   41 1
  36   19   20 2
  37   19   21 am
  38   21   22 1
  39   21   42 1
  40   22   43 1
  41   22   44 1
  42   22   45 1
  43   23   24 3
  44   24   26 1
  45   25   46 1
  46   25   47 1
  47   26   28 2
  48   26   27 1
  49   27   30 1
  50   28   29 1
  51   28   48 1
  52   29   30 2
  53   29   49 1
  54   30   50 1

#	End of record

