#	Name: ASD06580003
#	Creating user name:	WinNT
#	Creation time:	15. 06. 2019 21:06

#	Modifying user name:	WinNT
#	Modification time:	15. 06. 2019 21:06

#	Program:	/corina/corina34_cracker 3.40 0067  02.08.2006

@<TRIPOS>MOLECULE
ASD06580003
 115  119    0    0    0
SMALL
NO_CHARGES


@<TRIPOS>ATOM
   1 Cl1            2.3714     0.3285    -4.4882 Cl      
   2 Cl2            0.8420     1.8033    -2.2757 Cl      
   3 C3            -0.1498     1.4935    -0.0579 C.3     
   4 C4             0.0169    -0.0028     0.0095 C.2     
   5 C5             1.7594    -0.5504    -3.1219 C.2     
   6 C6             0.5769    -0.6552    -1.0037 C.2     
   7 C7             1.0956     0.0897    -2.1616 C.2     
   8 H8            -0.3188    -0.5447     0.8813 H       
   9 H9             0.6513    -1.7323    -0.9771 H       
  10 H10            0.8278     1.9635    -0.1657 H       
  11 H11           -0.7733     1.7514    -0.9140 H       
  12 H12           -0.6244     1.8478     0.8571 H       
  13 H13            1.9172    -1.6165    -3.0509 H       
  14 O14           32.9414    22.8296    14.3425 O.3     
  15 O15           34.2424    19.6144    13.4092 O.3     
  16 O16           36.0059    21.3309    14.2534 O.3     
  17 O17           34.0298    25.5152    14.2170 O.3     
  18 N18           31.4418    21.0194    13.9009 N.pl3   
  19 N19           29.4455    21.1500    13.0280 N.2     
  20 N20           31.1557    18.7143    14.8108 N.ar    
  21 N21           29.0933    17.7581    14.3926 N.ar    
  22 N22           27.3885    18.8719    13.2022 N.pl3   
  23 C23           33.8226    20.9659    13.2106 C.3     
  24 C24           34.9917    21.9497    13.4594 C.3     
  25 C25           32.8020    21.3933    14.2960 C.3     
  26 C26           34.3446    23.1191    14.2265 C.3     
  27 C27           34.5445    24.4234    13.4521 C.3     
  28 C28           30.8149    19.8301    14.1745 C.ar    
  29 C29           30.5647    21.7917    13.1991 C.2     
  30 C30           29.5329    19.9285    13.6074 C.ar    
  31 C31           28.6633    18.8328    13.7394 C.ar    
  32 C32           30.3071    17.7129    14.9106 C.ar    
  33 H33           33.4076    21.0995    12.2116 H       
  34 H34           35.4074    22.2953    12.5129 H       
  35 H35           33.0556    20.9517    15.2598 H       
  36 H36           34.7889    23.2027    15.2183 H       
  37 H37           34.0161    24.3655    12.5005 H       
  38 H38           35.6077    24.5776    13.2685 H       
  39 H39           34.9461    19.3291    12.8106 H       
  40 H40           36.7629    21.9028    14.4401 H       
  41 H41           30.7683    22.7893    12.8388 H       
  42 H42           34.1231    26.3758    13.7861 H       
  43 H43           30.6157    16.8202    15.4343 H       
  44 H44           27.0862    19.6620    12.7276 H       
  45 C45           26.4956    17.7199    13.3502 C.3     
  46 C46           25.1581    18.0207    12.6710 C.3     
  47 C47           24.2256    16.8177    12.8256 C.3     
  48 C48           22.8880    17.1185    12.1464 C.3     
  49 C49           21.9555    15.9154    12.3011 C.3     
  50 C50           20.6180    16.2163    11.6218 C.3     
  51 N51           19.7226    15.0612    11.7703 N.3     
  52 C52           18.4256    15.3145    11.1287 C.3     
  53 C53           17.5361    14.1104    11.3013 C.ar    
  54 C54           16.7416    11.9956    10.5068 C.ar    
  55 C55           17.5530    13.1005    10.3553 C.ar    
  56 C56           16.7105    14.0172    12.4080 C.ar    
  57 C57           15.8944    12.9177    12.5730 C.ar    
  58 C58           15.9022    11.8967    11.6193 C.ar    
  59 C59           15.0309    10.7181    11.7881 C.2     
  60 S60           14.8689     9.7997    13.2739 S.3     
  61 C61           13.7479     8.7192    12.5839 C.2     
  62 C62           13.4951     9.0326    11.2695 C.2     
  63 C63           14.2360    10.1949    10.8137 C.2     
  64 C64           14.1408    10.7470     9.4439 C.ar    
  65 C65           14.6165    10.0116     8.3574 C.ar    
  66 C66           14.5244    10.5316     7.0830 C.ar    
  67 C67           13.9623    11.7798     6.8809 C.ar    
  68 C68           13.4890    12.5138     7.9537 C.ar    
  69 C69           13.5700    12.0024     9.2327 C.ar    
  70 N70           13.1684     7.6657    13.2569 N.pl3   
  71 C71           12.5736     8.2785    10.4218 C.2     
  72 O72           12.9947     7.3866     9.7075 O.2     
  73 C73           11.1293     8.5987    10.4316 C.ar    
  74 C74            9.3112     9.9874    11.1623 C.ar    
  75 C75           10.6592     9.6943    11.1573 C.ar    
  76 C76           10.2316     7.8098     9.7106 C.ar    
  77 C77            8.8861     8.1137     9.7239 C.ar    
  78 C78            8.4259     9.1982    10.4497 C.ar    
  79 C79           12.8783    13.8723     7.7243 C.3     
  80 F80           12.9024    14.1697     6.3575 F       
  81 F81           11.5550    13.8714     8.1781 F       
  82 F82           13.6107    14.8370     8.4244 F       
  83 H83           26.9507    16.8454    12.8852 H       
  84 H84           26.3291    17.5230    14.4093 H       
  85 H85           24.7030    18.8953    13.1360 H       
  86 H86           25.3246    18.2176    11.6119 H       
  87 H87           24.6806    15.9431    12.3607 H       
  88 H88           24.0591    16.6208    13.8847 H       
  89 H89           22.4330    17.9931    12.6114 H       
  90 H90           23.0545    17.3154    11.0873 H       
  91 H91           22.4105    15.0409    11.8361 H       
  92 H92           21.7890    15.7186    13.3601 H       
  93 H93           20.1629    17.0908    12.0868 H       
  94 H94           20.7844    16.4132    10.5628 H       
  95 H95           20.1495    14.2234    11.4043 H       
  96 H96           17.9554    16.1828    11.5903 H       
  97 H97           18.5769    15.5052    10.0662 H       
  98 H98           16.7553    11.2085     9.7673 H       
  99 H99           18.2028    13.1780     9.4962 H       
 100 H100          16.7055    14.8072    13.1444 H       
 101 H101          15.2510    12.8460    13.4376 H       
 102 H102          15.0560     9.0376     8.5139 H       
 103 H103          14.8921     9.9635     6.2413 H       
 104 H104          13.8931    12.1828     5.8813 H       
 105 H105          13.1964    12.5747    10.0690 H       
 106 H106          13.4463     7.4571    14.1625 H       
 107 H107          12.4827     7.1327    12.8250 H       
 108 H108           8.9461    10.8349    11.7234 H       
 109 H109          11.3492    10.3111    11.7140 H       
 110 H110          10.5897     6.9635     9.1432 H       
 111 H111           8.1904     7.5041     9.1664 H       
 112 H112           7.3714     9.4315    10.4574 H       
 113 O113          41.7629    32.3427    20.4405 O.3     
 114 H114          41.7760    31.3758    20.4352 H       
 115 H115          42.6409    32.7480    20.4343 H       
@<TRIPOS>BOND
   1    1    5 1
   2    2    7 1
   3    3    4 1
   4    3   10 1
   5    3   11 1
   6    3   12 1
   7    4    6 2
   8    4    8 1
   9    5    7 2
  10    5   13 1
  11    6    7 1
  12    6    9 1
  13   14   25 1
  14   14   26 1
  15   15   39 1
  16   15   23 1
  17   16   40 1
  18   16   24 1
  19   17   27 1
  20   17   42 1
  21   18   28 1
  22   18   29 1
  23   18   25 1
  24   19   29 2
  25   19   30 1
  26   20   28 ar
  27   20   32 ar
  28   21   31 ar
  29   21   32 ar
  30   22   31 1
  31   22   44 1
  32   22   45 1
  33   23   24 1
  34   23   33 1
  35   23   25 1
  36   24   26 1
  37   24   34 1
  38   25   35 1
  39   26   27 1
  40   26   36 1
  41   27   37 1
  42   27   38 1
  43   28   30 ar
  44   29   41 1
  45   30   31 ar
  46   32   43 1
  47   45   46 1
  48   45   83 1
  49   45   84 1
  50   46   47 1
  51   46   85 1
  52   46   86 1
  53   47   48 1
  54   47   87 1
  55   47   88 1
  56   48   49 1
  57   48   89 1
  58   48   90 1
  59   49   50 1
  60   49   91 1
  61   49   92 1
  62   50   51 1
  63   50   93 1
  64   50   94 1
  65   51   52 1
  66   51   95 1
  67   52   53 1
  68   52   96 1
  69   52   97 1
  70   53   56 ar
  71   53   55 ar
  72   54   55 ar
  73   54   58 ar
  74   54   98 1
  75   55   99 1
  76   56   57 ar
  77   56  100 1
  78   57   58 ar
  79   57  101 1
  80   58   59 1
  81   59   60 1
  82   59   63 2
  83   60   61 1
  84   61   62 2
  85   61   70 1
  86   62   63 1
  87   62   71 1
  88   63   64 1
  89   64   65 ar
  90   64   69 ar
  91   65   66 ar
  92   65  102 1
  93   66   67 ar
  94   66  103 1
  95   67   68 ar
  96   67  104 1
  97   68   69 ar
  98   68   79 1
  99   69  105 1
 100   70  106 1
 101   70  107 1
 102   71   72 2
 103   71   73 1
 104   73   76 ar
 105   73   75 ar
 106   74   75 ar
 107   74   78 ar
 108   74  108 1
 109   75  109 1
 110   76   77 ar
 111   76  110 1
 112   77   78 ar
 113   77  111 1
 114   78  112 1
 115   79   80 1
 116   79   81 1
 117   79   82 1
 118  113  114 1
 119  113  115 1

#	End of record

