#	Name: ASD01910821
#	Creating user name:	WinNT
#	Creation time:	15. 06. 2019 19:56

#	Modifying user name:	WinNT
#	Modification time:	15. 06. 2019 19:56

#	Program:	/corina/corina34_cracker 3.40 0067  02.08.2006

@<TRIPOS>MOLECULE
ASD01910821
  20   20    0    0    0
SMALL
NO_CHARGES


@<TRIPOS>ATOM
   1 C1            -0.0168     1.3900     0.0097 C.ar    
   2 C2             0.0021    -0.0041     0.0020 C.ar    
   3 C3             1.2210    -0.6607    -0.0132 C.ar    
   4 C4             2.3830     0.1002    -0.0202 C.ar    
   5 C5             2.2882     1.4860    -0.0119 C.ar    
   6 N6             1.1167     2.0816     0.0026 N.ar    
   7 C7            -1.3118     2.1054     0.0197 C.2     
   8 O8            -2.3519     1.4784     0.0212 O.2     
   9 O9            -1.3372     3.4520     0.0271 O.3     
  10 C10            1.2854    -2.1663    -0.0214 C.3     
  11 F11            3.5927    -0.5012    -0.0346 F       
  12 C12           -2.6431     4.0866     0.0368 C.3     
  13 H13           -0.9214    -0.5641     0.0082 H       
  14 H14            3.1890     2.0818    -0.0173 H       
  15 H15            1.2909    -2.5241    -1.0510 H       
  16 H16            2.1951    -2.4938     0.4819 H       
  17 H17            0.4168    -2.5700     0.4989 H       
  18 H18           -3.1987     3.7881    -0.8522 H       
  19 H19           -3.1903     3.7785     0.9277 H       
  20 H20           -2.5207     5.1697     0.0421 H       
@<TRIPOS>BOND
   1    1    2 ar
   2    1    6 ar
   3    1    7 1
   4    2    3 ar
   5    2   13 1
   6    3    4 ar
   7    3   10 1
   8    4    5 ar
   9    4   11 1
  10    5    6 ar
  11    5   14 1
  12    7    8 2
  13    7    9 1
  14    9   12 1
  15   10   15 1
  16   10   16 1
  17   10   17 1
  18   12   18 1
  19   12   19 1
  20   12   20 1

#	End of record

