#	Name: ASD04590289
#	Creating user name:	WinNT
#	Creation time:	15. 06. 2019 20:50

#	Modifying user name:	WinNT
#	Modification time:	15. 06. 2019 20:50

#	Program:	/corina/corina34_cracker 3.40 0067  02.08.2006

@<TRIPOS>MOLECULE
ASD04590289
  40   43    0    0    0
SMALL
NO_CHARGES


@<TRIPOS>ATOM
   1 C1            -0.0167     1.3832     0.0096 C.ar    
   2 C2             0.0021    -0.0041     0.0020 C.ar    
   3 C3             1.1969    -0.6869    -0.0130 C.ar    
   4 C4             2.4020     0.0223    -0.0207 C.ar    
   5 C5             2.3769     1.4283    -0.0129 C.ar    
   6 C6             1.1624     2.0986     0.0022 C.ar    
   7 N7             3.7040    -0.3551    -0.0356 N.2     
   8 C8             4.4709     0.7083    -0.0374 C.2     
   9 N9             3.6969     1.8375    -0.0237 N.pl3   
  10 C10            5.9482     0.6906    -0.0521 C.2     
  11 C11            6.7657    -0.4631    -0.0668 C.2     
  12 C12            8.0579    -0.0539    -0.0772 C.2     
  13 N13            8.0646     1.3050    -0.0694 N.pl3   
  14 N14            6.7360     1.7480    -0.0595 N.2     
  15 N15            6.3189    -1.7943    -0.0698 N.am    
  16 C16            7.2109    -2.8045    -0.0845 C.2     
  17 C17            6.7409    -4.2046    -0.0875 C.ar    
  18 O18            8.4026    -2.5632    -0.0952 O.2     
  19 C19            7.2182    -6.5639    -0.1112 C.ar    
  20 C20            5.8635    -6.8366    -0.0932 C.ar    
  21 C21            4.9405    -5.7993    -0.0781 C.ar    
  22 C22            5.3734    -4.4850    -0.0752 C.ar    
  23 C23            7.6639    -5.2551    -0.1085 C.ar    
  24 F24            8.9888    -4.9914    -0.1266 F       
  25 O25            3.6094    -6.0754    -0.0609 O.3     
  26 C26            3.2327    -7.4539    -0.0594 C.3     
  27 H27           -0.9614     1.9066     0.0169 H       
  28 H28           -0.9283    -0.5525     0.0083 H       
  29 H29            1.2037    -1.7669    -0.0185 H       
  30 H30            1.1403     3.1784     0.0079 H       
  31 H31            4.0155     2.7537    -0.0223 H       
  32 H32            8.9276    -0.6941    -0.0895 H       
  33 H33            8.8529     1.8702    -0.0739 H       
  34 H34            5.3682    -1.9868    -0.0612 H       
  35 H35            7.9307    -7.3754    -0.1226 H       
  36 H36            5.5212    -7.8609    -0.0954 H       
  37 H37            4.6554    -3.6784    -0.0631 H       
  38 H38            3.6206    -7.9375    -0.9560 H       
  39 H39            3.6446    -7.9421     0.8238 H       
  40 H40            2.1457    -7.5335    -0.0450 H       
@<TRIPOS>BOND
   1    1    2 ar
   2    1    6 ar
   3    1   27 1
   4    2    3 ar
   5    2   28 1
   6    3    4 ar
   7    3   29 1
   8    4    5 ar
   9    4    7 1
  10    5    6 ar
  11    5    9 1
  12    6   30 1
  13    7    8 2
  14    8    9 1
  15    8   10 1
  16    9   31 1
  17   10   11 1
  18   10   14 2
  19   11   12 2
  20   11   15 1
  21   12   13 1
  22   12   32 1
  23   13   14 1
  24   13   33 1
  25   15   16 am
  26   15   34 1
  27   16   17 1
  28   16   18 2
  29   17   22 ar
  30   17   23 ar
  31   19   20 ar
  32   19   23 ar
  33   19   35 1
  34   20   21 ar
  35   20   36 1
  36   21   22 ar
  37   21   25 1
  38   22   37 1
  39   23   24 1
  40   25   26 1
  41   26   38 1
  42   26   39 1
  43   26   40 1

#	End of record

