#	Name: ASD02448156
#	Creating user name:	WinNT
#	Creation time:	15. 06. 2019 20:21

#	Modifying user name:	WinNT
#	Modification time:	15. 06. 2019 20:21

#	Program:	/corina/corina34_cracker 3.40 0067  02.08.2006

@<TRIPOS>MOLECULE
ASD02448156
  84   90    0    0    0
SMALL
NO_CHARGES


@<TRIPOS>ATOM
   1 C1            -0.2034    -6.4682     3.4829 C.ar    
   2 C2             0.3212    -5.4167     2.7566 C.ar    
   3 C3             0.2194    -5.4081     1.3713 C.ar    
   4 C4            -0.4098    -6.4564     0.7170 C.ar    
   5 C5            -0.9361    -7.5118     1.4492 C.ar    
   6 C6            -0.8311    -7.5145     2.8345 C.ar    
   7 N7            -1.5710    -8.5695     0.7940 N.am    
   8 C8            -1.7375    -9.9515     1.2623 C.3     
   9 C9            -2.4792   -10.7786     0.2623 C.2     
  10 N10           -2.8454   -10.1227    -0.8479 N.am    
  11 S11           -2.3202    -8.5504    -0.6965 S.o2    
  12 O12           -2.7297   -11.9517     0.4412 O.2     
  13 O13           -3.4759    -7.7315    -0.5825 O.2     
  14 O14           -1.3014    -8.3533    -1.6673 O.2     
  15 N15            0.7518    -4.3402     0.6353 N.pl3   
  16 C16            1.6699    -4.4295    -0.3768 C.2     
  17 C17            0.4484    -3.0245     0.7897 C.2     
  18 N18            1.1383    -2.3289    -0.0704 N.2     
  19 C19            1.9024    -3.1617    -0.8061 C.2     
  20 C20            2.8323    -2.7639    -1.8915 C.ar    
  21 C21            2.9757    -1.4190    -2.2324 C.ar    
  22 C22            3.5697    -3.7319    -2.5700 C.ar    
  23 C23            4.4336    -3.3569    -3.5791 C.ar    
  24 C24            4.5688    -2.0215    -3.9176 C.ar    
  25 C25            3.8427    -1.0545    -3.2435 C.ar    
  26 C26           -1.8704    -2.2762     1.1353 C.ar    
  27 C27           -2.7605    -3.3333     1.0773 C.ar    
  28 C28           -2.2115    -1.0479     0.5983 C.ar    
  29 C29           -3.4433    -0.8709     0.0016 C.ar    
  30 C30           -4.3439    -1.9323    -0.0596 C.ar    
  31 C31           -3.9947    -3.1677     0.4822 C.ar    
  32 C32           -5.6700    -1.7479    -0.6995 C.ar    
  33 Cl33           5.6576    -1.5571    -5.1874 Cl      
  34 Cl34           2.0656    -0.2058    -1.3876 Cl      
  35 C35           -0.5265    -2.4615     1.7916 C.3     
  36 C36           -6.5706    -2.8093    -0.7607 C.ar    
  37 C37           -7.8028    -2.6320    -1.3566 C.ar    
  38 C38           -8.1444    -1.4034    -1.8924 C.ar    
  39 C39           -7.2542    -0.3463    -1.8344 C.ar    
  40 C40           -6.0214    -0.5109    -1.2362 C.ar    
  41 C41           -9.4911    -1.2160    -2.5422 C.3     
  42 C42          -10.5039    -0.7538    -1.4927 C.3     
  43 C43          -11.8712    -0.5636    -2.1524 C.3     
  44 C44          -12.9106    -0.2228    -1.0827 C.3     
  45 C45          -14.2779    -0.0325    -1.7424 C.3     
  46 C46          -14.1994     1.1082    -2.7590 C.3     
  47 C47          -13.1600     0.7673    -3.8287 C.3     
  48 C48          -11.7927     0.5771    -3.1690 C.3     
  49 H49           -0.1189    -6.4746     4.5596 H       
  50 H50            0.8108    -4.6002     3.2664 H       
  51 H51           -0.4904    -6.4517    -0.3600 H       
  52 H52           -1.2402    -8.3351     3.4051 H       
  53 H53           -0.7549   -10.3920     1.4314 H       
  54 H54           -2.2906    -9.9460     2.2015 H       
  55 H55           -3.3306   -10.4954    -1.6006 H       
  56 H56            2.1218    -5.3327    -0.7594 H       
  57 H57            3.4658    -4.7741    -2.3065 H       
  58 H58            5.0054    -4.1068    -4.1054 H       
  59 H59            3.9515    -0.0140    -3.5116 H       
  60 H60           -2.4892    -4.2902     1.4982 H       
  61 H61           -1.5126    -0.2259     0.6463 H       
  62 H62           -3.7089     0.0887    -0.4168 H       
  63 H63           -4.6889    -3.9938     0.4371 H       
  64 H64           -0.6238    -3.1505     2.6306 H       
  65 H65           -0.1623    -1.4994     2.1518 H       
  66 H66           -6.3047    -3.7691    -0.3429 H       
  67 H67           -8.5015    -3.4542    -1.4049 H       
  68 H68           -7.5259     0.6108    -2.2547 H       
  69 H69           -5.3271     0.3151    -1.1914 H       
  70 H70           -9.4139    -0.4648    -3.3282 H       
  71 H71           -9.8208    -2.1610    -2.9739 H       
  72 H72          -10.5811    -1.5051    -0.7067 H       
  73 H73          -10.1742     0.1911    -1.0610 H       
  74 H74          -12.1607    -1.4836    -2.6602 H       
  75 H75          -12.9666    -1.0354    -0.3584 H       
  76 H76          -12.6211     0.6972    -0.5748 H       
  77 H77          -14.5674    -0.9525    -2.2502 H       
  78 H78          -15.0184     0.2103    -0.9803 H       
  79 H79          -15.1735     1.2437    -3.2290 H       
  80 H80          -13.9098     2.0282    -2.2511 H       
  81 H81          -13.4495    -0.1526    -4.3366 H       
  82 H82          -13.1040     1.5800    -4.5530 H       
  83 H83          -11.5031     1.4971    -2.6612 H       
  84 H84          -11.0522     0.3343    -3.9311 H       
@<TRIPOS>BOND
   1    1    2 ar
   2    1    6 ar
   3    1   49 1
   4    2    3 ar
   5    2   50 1
   6    3    4 ar
   7    3   15 1
   8    4    5 ar
   9    4   51 1
  10    5    6 ar
  11    5    7 1
  12    6   52 1
  13    7    8 1
  14    7   11 am
  15    8    9 1
  16    8   53 1
  17    8   54 1
  18    9   10 am
  19    9   12 2
  20   10   11 am
  21   10   55 1
  22   11   13 2
  23   11   14 2
  24   15   16 1
  25   15   17 1
  26   16   19 2
  27   16   56 1
  28   17   18 2
  29   17   35 1
  30   18   19 1
  31   19   20 1
  32   20   21 ar
  33   20   22 ar
  34   21   34 1
  35   21   25 ar
  36   22   23 ar
  37   22   57 1
  38   23   24 ar
  39   23   58 1
  40   24   25 ar
  41   24   33 1
  42   25   59 1
  43   26   27 ar
  44   26   28 ar
  45   26   35 1
  46   27   31 ar
  47   27   60 1
  48   28   29 ar
  49   28   61 1
  50   29   30 ar
  51   29   62 1
  52   30   31 ar
  53   30   32 1
  54   31   63 1
  55   32   36 ar
  56   32   40 ar
  57   35   64 1
  58   35   65 1
  59   36   37 ar
  60   36   66 1
  61   37   38 ar
  62   37   67 1
  63   38   39 ar
  64   38   41 1
  65   39   40 ar
  66   39   68 1
  67   40   69 1
  68   41   42 1
  69   41   70 1
  70   41   71 1
  71   42   43 1
  72   42   72 1
  73   42   73 1
  74   43   44 1
  75   43   48 1
  76   43   74 1
  77   44   45 1
  78   44   75 1
  79   44   76 1
  80   45   46 1
  81   45   77 1
  82   45   78 1
  83   46   47 1
  84   46   79 1
  85   46   80 1
  86   47   48 1
  87   47   81 1
  88   47   82 1
  89   48   83 1
  90   48   84 1

#	End of record

