#	Name: ASD03092044
#	Creating user name:	WinNT
#	Creation time:	15. 06. 2019 20:31

#	Modifying user name:	WinNT
#	Modification time:	15. 06. 2019 20:31

#	Program:	/corina/corina34_cracker 3.40 0067  02.08.2006

@<TRIPOS>MOLECULE
ASD03092044
  43   45    0    0    0
SMALL
NO_CHARGES


@<TRIPOS>ATOM
   1 N1            -0.1608     0.9630     0.1783 N.am    
   2 C2            -0.3578    -0.3894     0.0729 C.2     
   3 C3            -1.7014    -0.5983    -0.0258 C.2     
   4 C4            -2.3355     0.6536     0.0205 C.2     
   5 N5            -1.4170     1.5819     0.1482 N.2     
   6 C6             1.0288     1.5856     0.2958 C.2     
   7 N7             1.0894     2.9319     0.2785 N.am    
   8 N8            -3.7136     0.8736    -0.0515 N.pl3   
   9 C9            -4.2251     2.1649     0.1127 C.ar    
  10 C10           -5.5994     2.3669     0.1788 C.ar    
  11 C11           -6.1011     3.6463     0.3418 C.ar    
  12 C12           -5.2361     4.7223     0.4383 C.ar    
  13 C13           -3.8694     4.5228     0.3722 C.ar    
  14 C14           -3.3617     3.2477     0.2158 C.ar    
  15 Cl15          -7.8162     3.9017     0.4247 Cl      
  16 C16            0.6931    -1.4298     0.0669 C.ar    
  17 C17            0.4943    -2.6567     0.7102 C.ar    
  18 C18            1.5015    -3.5987     0.6796 C.ar    
  19 N19            2.6382    -3.3552     0.0557 N.ar    
  20 C20            2.8666    -2.2122    -0.5631 C.ar    
  21 C21            1.9123    -1.2170    -0.5874 C.ar    
  22 C22            2.3824     3.6087     0.4062 C.3     
  23 C23            4.1860    -1.9938    -1.2577 C.3     
  24 O24            2.0467     0.9331     0.4173 O.2     
  25 C25            2.1723     5.1234     0.3567 C.3     
  26 F26           -6.4432     1.3161     0.0836 F       
  27 H27           -2.1908    -1.5562    -0.1227 H       
  28 H28            0.2768     3.4528     0.1815 H       
  29 H29           -4.3154     0.1307    -0.2154 H       
  30 H30           -5.6294     5.7201     0.5651 H       
  31 H31           -3.1976     5.3651     0.4472 H       
  32 H32           -2.2939     3.0939     0.1647 H       
  33 H33           -0.4336    -2.8627     1.2231 H       
  34 H34            1.3578    -4.5484     1.1733 H       
  35 H35            2.1059    -0.2842    -1.0961 H       
  36 H36            2.8427     3.3365     1.3560 H       
  37 H37            3.0338     3.3052    -0.4134 H       
  38 H38            4.1129    -2.3320    -2.2913 H       
  39 H39            4.4351    -0.9328    -1.2392 H       
  40 H40            4.9645    -2.5588    -0.7449 H       
  41 H41            1.5209     5.4268     1.1763 H       
  42 H42            3.1344     5.6269     0.4517 H       
  43 H43            1.7120     5.3955    -0.5931 H       
@<TRIPOS>BOND
   1    1    2 1
   2    1    6 am
   3    1    5 1
   4    2    3 2
   5    2   16 1
   6    3    4 1
   7    3   27 1
   8    4    5 2
   9    4    8 1
  10    6    7 am
  11    6   24 2
  12    7   22 1
  13    7   28 1
  14    8    9 1
  15    8   29 1
  16    9   10 ar
  17    9   14 ar
  18   10   11 ar
  19   10   26 1
  20   11   12 ar
  21   11   15 1
  22   12   13 ar
  23   12   30 1
  24   13   14 ar
  25   13   31 1
  26   14   32 1
  27   16   17 ar
  28   16   21 ar
  29   17   18 ar
  30   17   33 1
  31   18   19 ar
  32   18   34 1
  33   19   20 ar
  34   20   21 ar
  35   20   23 1
  36   21   35 1
  37   22   25 1
  38   22   36 1
  39   22   37 1
  40   23   38 1
  41   23   39 1
  42   23   40 1
  43   25   41 1
  44   25   42 1
  45   25   43 1

#	End of record

