#	Name: ASD01140596
#	Creating user name:	WinNT
#	Creation time:	15. 06. 2019 19:01

#	Modifying user name:	WinNT
#	Modification time:	15. 06. 2019 19:01

#	Program:	/corina/corina34_cracker 3.40 0067  02.08.2006

@<TRIPOS>MOLECULE
ASD01140596
  41   43    0    0    0
SMALL
NO_CHARGES


@<TRIPOS>ATOM
   1 C1            -0.0184     1.5053     0.0103 C.2     
   2 C2             0.0021    -0.0041     0.0020 C.3     
   3 C3             1.2149    -0.5285     0.7670 C.3     
   4 C4             2.5141    -0.0735     0.0936 C.3     
   5 C5             1.2343     2.1872     0.0020 C.2     
   6 C6             1.4269     3.5517    -0.0390 C.2     
   7 C7             2.4948     1.4464     0.0358 C.2     
   8 C8             3.5635     2.2526     0.0121 C.2     
   9 S9             3.0855     3.9385    -0.0445 S.3     
  10 C10            4.9577     1.7845     0.0311 C.2     
  11 S11            6.3840     2.8182     0.0009 S.3     
  12 C12            7.4151     1.3898     0.0518 C.2     
  13 C13            6.6316     0.3082     0.0855 C.2     
  14 N14            5.3374     0.5368     0.0789 N.2     
  15 C15            1.1762     0.0043     2.2007 C.3     
  16 C16            1.1704    -2.0576     0.7964 C.3     
  17 O17           -1.0669     2.1188     0.0187 O.2     
  18 S18            0.1269     4.7403    -0.0807 S.3     
  19 C19            1.0981     6.2671    -0.1235 C.3     
  20 C20            0.1546     7.4708    -0.1642 C.3     
  21 C21            0.9756     8.7614    -0.2003 C.3     
  22 O22            0.0943     9.8856    -0.2384 O.3     
  23 H23           -0.9080    -0.3785     0.4707 H       
  24 H24            0.0466    -0.3573    -1.0282 H       
  25 H25            3.3708    -0.4105     0.6772 H       
  26 H26            2.5699    -0.4812    -0.9158 H       
  27 H27            8.4951     1.3889     0.0551 H       
  28 H28            7.0368    -0.6923     0.1202 H       
  29 H29            0.2622    -0.3334     2.6893 H       
  30 H30            2.0408    -0.3681     2.7501 H       
  31 H31            1.1981     1.0940     2.1841 H       
  32 H32            1.1881    -2.4412    -0.2237 H       
  33 H33            2.0350    -2.4358     1.3419 H       
  34 H34            0.2565    -2.3850     1.2919 H       
  35 H35            1.7230     6.3252     0.7678 H       
  36 H36            1.7304     6.2708    -1.0114 H       
  37 H37           -0.4703     7.4126    -1.0554 H       
  38 H38           -0.4777     7.4671     0.7237 H       
  39 H39            1.6004     8.8195     0.6909 H       
  40 H40            1.6078     8.7650    -1.0882 H       
  41 H41            0.5472    10.7397    -0.2627 H       
@<TRIPOS>BOND
   1    1    2 1
   2    1    5 1
   3    1   17 2
   4    2    3 1
   5    2   23 1
   6    2   24 1
   7    3    4 1
   8    3   15 1
   9    3   16 1
  10    4    7 1
  11    4   25 1
  12    4   26 1
  13    5    7 1
  14    5    6 2
  15    6    9 1
  16    6   18 1
  17    7    8 2
  18    8    9 1
  19    8   10 1
  20   10   11 1
  21   10   14 2
  22   11   12 1
  23   12   13 2
  24   12   27 1
  25   13   14 1
  26   13   28 1
  27   15   29 1
  28   15   30 1
  29   15   31 1
  30   16   32 1
  31   16   33 1
  32   16   34 1
  33   18   19 1
  34   19   20 1
  35   19   35 1
  36   19   36 1
  37   20   21 1
  38   20   37 1
  39   20   38 1
  40   21   22 1
  41   21   39 1
  42   21   40 1
  43   22   41 1

#	End of record

