#	Name: ASD09080075
#	Creating user name:	WinNT
#	Creation time:	15. 06. 2019 21:20

#	Modifying user name:	WinNT
#	Modification time:	15. 06. 2019 21:20

#	Program:	/corina/corina34_cracker 3.40 0067  02.08.2006

@<TRIPOS>MOLECULE
ASD09080075
  53   54    0    0    0
SMALL
NO_CHARGES


@<TRIPOS>ATOM
   1 C1            -0.4502     1.4810     0.3238 C.ar    
   2 C2            -0.3678     0.1035     0.2588 C.ar    
   3 C3            -1.5313    -0.6629     0.2701 C.ar    
   4 C4            -2.7727    -0.0353     0.3470 C.ar    
   5 C5            -2.8447     1.3427     0.4115 C.ar    
   6 C6            -1.6858     2.0996     0.4053 C.ar    
   7 Cl7            0.9985     2.4373     0.3103 Cl      
   8 Cl8           -4.3909     2.1263     0.5067 Cl      
   9 C9            -1.4484    -2.1429     0.2001 C.ar    
  10 C10           -2.6117    -2.9097     0.2114 C.ar    
  11 C11           -0.2072    -2.7706     0.1170 C.ar    
  12 C12           -0.1359    -4.1474     0.0522 C.ar    
  13 C13           -1.2938    -4.9039     0.0695 C.ar    
  14 C14           -2.5288    -4.2858     0.1461 C.ar    
  15 C15           -1.2096    -6.4069    -0.0016 C.3     
  16 C16           -1.1174    -6.9801     1.4140 C.3     
  17 N17           -2.3587    -6.6952     2.1380 N.am    
  18 C18           -0.9067    -8.4936     1.3387 C.3     
  19 C19           -0.8401    -9.0703     2.7542 C.3     
  20 O20           -1.9951    -9.0914     0.6315 O.3     
  21 C21           -0.6326   -10.5612     2.6800 C.2     
  22 O22            0.2483    -8.4726     3.4614 O.3     
  23 C23           -2.3168    -6.0441     3.3173 C.2     
  24 O24           -1.2482    -5.7753     3.8239 O.2     
  25 C25           -3.5978    -5.6502     4.0064 C.3     
  26 Br26          -3.9184    -6.8507     5.5299 Br      
  27 C27           -3.4849    -4.2090     4.5077 C.3     
  28 N28           -1.5864   -11.3484     2.1443 N.am    
  29 O29            0.3926   -11.0525     3.1024 O.2     
  30 C30           -1.3847   -12.7977     2.0722 C.3     
  31 H31            0.5968    -0.3784     0.1990 H       
  32 H32           -3.6774    -0.6252     0.3557 H       
  33 H33           -1.7461     3.1767     0.4559 H       
  34 H34           -3.5765    -2.4281     0.2715 H       
  35 H35            0.6975    -2.1808     0.1031 H       
  36 H36            0.8256    -4.6349    -0.0126 H       
  37 H37           -3.4297    -4.8813     0.1596 H       
  38 H38           -2.0997    -6.7978    -0.4946 H       
  39 H39           -0.3243    -6.6948    -0.5685 H       
  40 H40           -0.2782    -6.5220     1.9375 H       
  41 H41           -3.2108    -6.9752     1.7686 H       
  42 H42            0.0261    -8.7051     0.8159 H       
  43 H43           -1.7729    -8.8589     3.2770 H       
  44 H44           -2.8649    -8.8825     0.9988 H       
  45 H45            1.1118    -8.6204     3.0521 H       
  46 H46           -4.4270    -5.7263     3.3031 H       
  47 H47           -3.3071    -3.5434     3.6631 H       
  48 H48           -4.4114    -3.9241     5.0062 H       
  49 H49           -2.6556    -4.1330     5.2111 H       
  50 H50           -2.4064   -10.9555     1.8065 H       
  51 H51           -0.4994   -13.0120     1.4735 H       
  52 H52           -1.2485   -13.1960     3.0776 H       
  53 H53           -2.2561   -13.2633     1.6118 H       
@<TRIPOS>BOND
   1    1    2 ar
   2    1    7 1
   3    1    6 ar
   4    2    3 ar
   5    2   31 1
   6    3    4 ar
   7    3    9 1
   8    4    5 ar
   9    4   32 1
  10    5    6 ar
  11    5    8 1
  12    6   33 1
  13    9   10 ar
  14    9   11 ar
  15   10   14 ar
  16   10   34 1
  17   11   12 ar
  18   11   35 1
  19   12   13 ar
  20   12   36 1
  21   13   14 ar
  22   13   15 1
  23   14   37 1
  24   15   16 1
  25   15   38 1
  26   15   39 1
  27   16   17 1
  28   16   18 1
  29   16   40 1
  30   17   23 am
  31   17   41 1
  32   18   19 1
  33   18   20 1
  34   18   42 1
  35   19   21 1
  36   19   22 1
  37   19   43 1
  38   20   44 1
  39   21   28 am
  40   21   29 2
  41   22   45 1
  42   23   24 2
  43   23   25 1
  44   25   26 1
  45   25   27 1
  46   25   46 1
  47   27   47 1
  48   27   48 1
  49   27   49 1
  50   28   30 1
  51   28   50 1
  52   30   51 1
  53   30   52 1
  54   30   53 1

#	End of record

