#	Name: ASD03090296
#	Creating user name:	WinNT
#	Creation time:	15. 06. 2019 20:28

#	Modifying user name:	WinNT
#	Modification time:	15. 06. 2019 20:28

#	Program:	/corina/corina34_cracker 3.40 0067  02.08.2006

@<TRIPOS>MOLECULE
ASD03090296
  50   53    0    0    0
SMALL
NO_CHARGES


@<TRIPOS>ATOM
   1 N1             0.4080     1.4836     1.4572 N.ar    
   2 C2             0.3802     0.1648     1.4331 C.ar    
   3 C3             1.5122    -0.5622     1.1276 C.ar    
   4 C4             2.6998     0.1199     0.8413 C.ar    
   5 C5             2.6834     1.5182     0.8785 C.ar    
   6 C6             1.5059     2.1653     1.1937 C.ar    
   7 C7             3.9392    -0.6175     0.5086 C.2     
   8 N8             5.7382    -3.4563    -0.5207 N.pl3   
   9 C9             4.8194    -4.4496    -0.8693 C.ar    
  10 C10            3.6047    -4.1018    -1.4471 C.ar    
  11 C11            2.6966    -5.0842    -1.7921 C.ar    
  12 C12            2.9934    -6.4142    -1.5634 C.ar    
  13 C13            4.2052    -6.7677    -0.9861 C.ar    
  14 C14            5.1215    -5.7860    -0.6441 C.ar    
  15 N15            4.0121    -1.8729     0.1145 N.2     
  16 C16            5.2863    -2.2051    -0.0964 C.2     
  17 N17            6.0479    -1.1661     0.1601 N.2     
  18 N18            5.1955    -0.1204     0.5500 N.pl3   
  19 C19            5.5902     1.2371     0.9339 C.3     
  20 C20            5.6871     2.1130    -0.3168 C.3     
  21 C21            5.9768     3.5581     0.0938 C.3     
  22 O22            4.4953    -8.0763    -0.7614 O.3     
  23 O23            6.7427     1.6346    -1.1528 O.3     
  24 C24           -0.9055    -0.5573     1.7440 C.3     
  25 C25           -1.7880    -0.9686     0.5638 C.3     
  26 C26           -1.0046    -2.0295     1.3394 C.3     
  27 C27            3.5069    -9.0348    -1.1442 C.3     
  28 F28            3.2669    -8.9336    -2.5187 F       
  29 F29            3.9651   -10.3222    -0.8444 F       
  30 F30            2.3213    -8.7870    -0.4442 F       
  31 H31            1.4822    -1.6417     1.1101 H       
  32 H32            3.5788     2.0827     0.6642 H       
  33 H33            1.4832     3.2446     1.2250 H       
  34 H34            6.6900    -3.6359    -0.5734 H       
  35 H35            3.3700    -3.0630    -1.6262 H       
  36 H36            1.7529    -4.8120    -2.2412 H       
  37 H37            2.2813    -7.1798    -1.8340 H       
  38 H38            6.0648    -6.0592    -0.1948 H       
  39 H39            4.8458     1.6537     1.6124 H       
  40 H40            6.5592     1.2066     1.4321 H       
  41 H41            4.7445     2.0725    -0.8627 H       
  42 H42            5.1717     3.9231     0.7314 H       
  43 H43            6.9194     3.5987     0.6397 H       
  44 H44            6.0459     4.1821    -0.7973 H       
  45 H45            6.8619     2.1439    -1.9661 H       
  46 H46           -1.4050    -0.2531     2.6639 H       
  47 H47           -2.8680    -0.9354     0.7073 H       
  48 H48           -1.4386    -0.7169    -0.4376 H       
  49 H49           -0.1398    -2.4758     0.8484 H       
  50 H50           -1.5692    -2.6942     1.9932 H       
@<TRIPOS>BOND
   1    1    2 ar
   2    1    6 ar
   3    2    3 ar
   4    2   24 1
   5    3    4 ar
   6    3   31 1
   7    4    5 ar
   8    4    7 1
   9    5    6 ar
  10    5   32 1
  11    6   33 1
  12    7   15 2
  13    7   18 1
  14    8    9 1
  15    8   16 1
  16    8   34 1
  17    9   10 ar
  18    9   14 ar
  19   10   11 ar
  20   10   35 1
  21   11   12 ar
  22   11   36 1
  23   12   13 ar
  24   12   37 1
  25   13   14 ar
  26   13   22 1
  27   14   38 1
  28   15   16 1
  29   16   17 2
  30   17   18 1
  31   18   19 1
  32   19   20 1
  33   19   39 1
  34   19   40 1
  35   20   21 1
  36   20   23 1
  37   20   41 1
  38   21   42 1
  39   21   43 1
  40   21   44 1
  41   22   27 1
  42   23   45 1
  43   24   25 1
  44   24   26 1
  45   24   46 1
  46   25   26 1
  47   25   47 1
  48   25   48 1
  49   26   49 1
  50   26   50 1
  51   27   28 1
  52   27   29 1
  53   27   30 1

#	End of record

