#	Name: ASD01230268
#	Creating user name:	WinNT
#	Creation time:	15. 06. 2019 19:12

#	Modifying user name:	WinNT
#	Modification time:	15. 06. 2019 19:12

#	Program:	/corina/corina34_cracker 3.40 0067  02.08.2006

@<TRIPOS>MOLECULE
ASD01230268
  58   63    0    0    0
SMALL
NO_CHARGES


@<TRIPOS>ATOM
   1 N1            -0.7067     0.9644     0.1378 N.am    
   2 C2            -0.6669    -0.3607    -0.1053 C.2     
   3 C3             0.3485     1.8424    -0.3832 C.3     
   4 C4            -1.8087     1.5386     0.9198 C.3     
   5 C5             0.9781     2.6060     0.7923 C.3     
   6 C6            -0.1555     3.2476     1.5772 C.2     
   7 C7            -1.2183     2.2965     2.1190 C.3     
   8 C8            -0.5058     1.2842     3.0293 C.3     
   9 N9             0.6247     0.7045     2.2933 N.am    
  10 C10            1.6617     1.5896     1.7201 C.3     
  11 C11            1.9643     3.6633     0.2919 C.3     
  12 C12           -2.3082     3.0614     2.8727 C.3     
  13 O13           -0.2145     4.4401     1.7579 O.2     
  14 C14            0.7166    -0.6307     2.1344 C.2     
  15 O15            0.2760    -0.8409    -0.7042 O.2     
  16 O16           -0.1672    -1.3547     2.5504 O.2     
  17 C17           -1.7679    -1.2290     0.3557 C.ar    
  18 C18            1.8901    -1.2141     1.4552 C.ar    
  19 C19            3.1753    -0.7604     1.7638 C.ar    
  20 C20            1.7192    -2.2251     0.5066 C.ar    
  21 C21            2.8158    -2.7684    -0.1265 C.ar    
  22 C22            4.2707    -1.3087     1.1261 C.ar    
  23 C23           -3.0956    -0.8344     0.1706 C.ar    
  24 C24           -4.1230    -1.6499     0.6029 C.ar    
  25 C25           -2.5145    -3.2596     1.4016 C.ar    
  26 C26           -1.4854    -2.4499     0.9728 C.ar    
  27 O27            5.6065    -1.0504     1.2416 O.3     
  28 C28            4.0927    -2.3145     0.1749 C.ar    
  29 O29            5.3158    -2.6818    -0.3033 O.3     
  30 C30            6.2690    -2.1863     0.6554 C.3     
  31 O31           -5.4791    -1.5020     0.5454 O.3     
  32 C32           -6.0082    -2.4418     1.4994 C.3     
  33 O33           -5.0083    -3.4762     1.5524 O.3     
  34 C34           -3.8339    -2.8662     1.2235 C.ar    
  35 H35            1.1110     1.2427    -0.8802 H       
  36 H36           -0.0817     2.5510    -1.0910 H       
  37 H37           -2.3792     2.2274     0.2967 H       
  38 H38           -2.4592     0.7399     1.2762 H       
  39 H39           -0.1397     1.7901     3.9227 H       
  40 H40           -1.2014     0.4942     3.3126 H       
  41 H41            2.3788     0.9987     1.1502 H       
  42 H42            2.1754     2.1164     2.5243 H       
  43 H43            1.4412     4.3745    -0.3474 H       
  44 H44            2.3959     4.1894     1.1434 H       
  45 H45            2.7584     3.1794    -0.2767 H       
  46 H46           -3.0586     2.3598     3.2371 H       
  47 H47           -1.8641     3.5891     3.7168 H       
  48 H48           -2.7782     3.7801     2.2014 H       
  49 H49            3.3117     0.0183     2.4996 H       
  50 H50            0.7275    -2.5811     0.2697 H       
  51 H51            2.6815    -3.5502    -0.8595 H       
  52 H52           -3.3180     0.1071    -0.3094 H       
  53 H53           -2.2939    -4.2035     1.8780 H       
  54 H54           -0.4603    -2.7595     1.1132 H       
  55 H55            7.1881    -1.8783     0.1569 H       
  56 H56            6.4779    -2.9410     1.4137 H       
  57 H57           -6.1248    -1.9716     2.4758 H       
  58 H58           -6.9590    -2.8458     1.1519 H       
@<TRIPOS>BOND
   1    1    2 am
   2    1    3 1
   3    1    4 1
   4    2   15 2
   5    2   17 1
   6    3    5 1
   7    3   35 1
   8    3   36 1
   9    4    7 1
  10    4   37 1
  11    4   38 1
  12    5    6 1
  13    5   10 1
  14    5   11 1
  15    6    7 1
  16    6   13 2
  17    7    8 1
  18    7   12 1
  19    8    9 1
  20    8   39 1
  21    8   40 1
  22    9   10 1
  23    9   14 am
  24   10   41 1
  25   10   42 1
  26   11   43 1
  27   11   44 1
  28   11   45 1
  29   12   46 1
  30   12   47 1
  31   12   48 1
  32   14   16 2
  33   14   18 1
  34   17   23 ar
  35   17   26 ar
  36   18   20 ar
  37   18   19 ar
  38   19   22 ar
  39   19   49 1
  40   20   21 ar
  41   20   50 1
  42   21   28 ar
  43   21   51 1
  44   22   28 ar
  45   22   27 1
  46   23   24 ar
  47   23   52 1
  48   24   31 1
  49   24   34 ar
  50   25   26 ar
  51   25   34 ar
  52   25   53 1
  53   26   54 1
  54   27   30 1
  55   28   29 1
  56   29   30 1
  57   30   55 1
  58   30   56 1
  59   31   32 1
  60   32   33 1
  61   32   57 1
  62   32   58 1
  63   33   34 1

#	End of record

