#	Name: ASD01908207
#	Creating user name:	WinNT
#	Creation time:	15. 06. 2019 19:54

#	Modifying user name:	WinNT
#	Modification time:	15. 06. 2019 19:54

#	Program:	/corina/corina34_cracker 3.40 0067  02.08.2006

@<TRIPOS>MOLECULE
ASD01908207
  27   28    0    0    0
SMALL
NO_CHARGES


@<TRIPOS>ATOM
   1 O1            -0.0807     1.4331     0.0227 O.3     
   2 C2            -1.1950     1.6312     0.7582 C.2     
   3 C3            -1.0297     2.7826     1.4748 C.2     
   4 C4             0.2384     3.2842     1.1463 C.2     
   5 C5             0.7865     2.4276     0.2536 C.2     
   6 C6            -2.3754     0.7636     0.7832 C.2     
   7 O7            -3.3248     1.0478     1.4900 O.2     
   8 N8            -2.4101    -0.3492     0.0236 N.am    
   9 C9            -3.4934    -1.2279     0.1199 C.ar    
  10 C10           -4.7722    -0.7335     0.3376 C.ar    
  11 C11           -5.8434    -1.6076     0.4320 C.ar    
  12 C12           -5.6357    -2.9746     0.3087 C.ar    
  13 C13           -4.3622    -3.4650     0.0920 C.ar    
  14 C14           -3.2923    -2.5965    -0.0080 C.ar    
  15 O15           -7.0964    -1.1269     0.6456 O.3     
  16 C16           -8.1529    -2.0851     0.7321 C.3     
  17 Br17           2.4952     2.6049    -0.5370 Br      
  18 H18           -1.7385     3.2217     2.1612 H       
  19 H19            0.6918     4.1849     1.5329 H       
  20 H20           -1.6835    -0.5404    -0.5899 H       
  21 H21           -4.9319     0.3303     0.4337 H       
  22 H22           -6.4705    -3.6557     0.3827 H       
  23 H23           -4.2034    -4.5290    -0.0035 H       
  24 H24           -2.2986    -2.9821    -0.1818 H       
  25 H25           -9.0979    -1.5696     0.9037 H       
  26 H26           -8.2101    -2.6480    -0.1996 H       
  27 H27           -7.9567    -2.7687     1.5581 H       
@<TRIPOS>BOND
   1    1    2 1
   2    1    5 1
   3    2    3 2
   4    2    6 1
   5    3    4 1
   6    3   18 1
   7    4    5 2
   8    4   19 1
   9    5   17 1
  10    6    7 2
  11    6    8 am
  12    8    9 1
  13    8   20 1
  14    9   10 ar
  15    9   14 ar
  16   10   11 ar
  17   10   21 1
  18   11   12 ar
  19   11   15 1
  20   12   13 ar
  21   12   22 1
  22   13   14 ar
  23   13   23 1
  24   14   24 1
  25   15   16 1
  26   16   25 1
  27   16   26 1
  28   16   27 1

#	End of record

