#	Name: ASD01883828
#	Creating user name:	WinNT
#	Creation time:	15. 06. 2019 19:47

#	Modifying user name:	WinNT
#	Modification time:	15. 06. 2019 19:47

#	Program:	/corina/corina34_cracker 3.40 0067  02.08.2006

@<TRIPOS>MOLECULE
ASD01883828
  48   50    0    0    0
SMALL
NO_CHARGES


@<TRIPOS>ATOM
   1 N1             0.0878     1.4226     0.6931 N.ar    
   2 C2             0.0632     0.1052     0.6220 C.ar    
   3 C3             1.2292    -0.6181     0.4812 C.ar    
   4 C4             2.4471     0.0648     0.4140 C.ar    
   5 C5             2.4269     1.4599     0.4932 C.ar    
   6 C6             1.2153     2.1050     0.6337 C.ar    
   7 C7             3.7264    -0.6715     0.2631 C.2     
   8 C8             3.8629    -2.0596     0.0748 C.2     
   9 C9             5.1905    -2.3373    -0.0187 C.2     
  10 N10            5.8676    -1.1655     0.1063 N.pl3   
  11 N11            4.9301    -0.1390     0.2764 N.2     
  12 C12            1.1794     3.6090     0.7204 C.3     
  13 C13            7.3231    -1.0038     0.0658 C.3     
  14 C14            7.7824    -0.8812    -1.3885 C.3     
  15 C15            9.3024    -0.7124    -1.4307 C.3     
  16 N16            5.7551    -3.5962    -0.2080 N.pl3   
  17 C17            6.1849    -4.3417     0.8926 C.ar    
  18 C18            6.6547    -5.6370     0.7152 C.ar    
  19 C19            7.0796    -6.3722     1.8047 C.ar    
  20 C20            7.0378    -5.8213     3.0718 C.ar    
  21 C21            6.5700    -4.5299     3.2535 C.ar    
  22 C22            6.1487    -3.7871     2.1657 C.ar    
  23 C23            7.5013    -6.6271     4.2579 C.3     
  24 F24            7.9245    -7.8892     3.8275 F       
  25 F25            8.5645    -5.9670     4.8833 F       
  26 F26            6.4454    -6.7732     5.1639 F       
  27 F27            6.5300    -3.9944     4.4932 F       
  28 C28            5.8984    -4.1388    -1.5612 C.3     
  29 H29           -0.8825    -0.4136     0.6752 H       
  30 H30            1.2017    -1.6963     0.4240 H       
  31 H31            3.3462     2.0248     0.4456 H       
  32 H32            3.0571    -2.7762     0.0157 H       
  33 H33            1.2590     3.9149     1.7636 H       
  34 H34            2.0130     4.0256     0.1550 H       
  35 H35            0.2402     3.9746     0.3053 H       
  36 H36            7.6040    -0.1038     0.6127 H       
  37 H37            7.7978    -1.8710     0.5249 H       
  38 H38            7.5014    -1.7812    -1.9354 H       
  39 H39            7.3076    -0.0140    -1.8475 H       
  40 H40            9.5834     0.1876    -0.8838 H       
  41 H41            9.7772    -1.5796    -0.9717 H       
  42 H42            9.6296    -0.6250    -2.4668 H       
  43 H43            6.6873    -6.0691    -0.2740 H       
  44 H44            7.4447    -7.3792     1.6663 H       
  45 H45            5.7840    -2.7804     2.3069 H       
  46 H46            6.9004    -3.9261    -1.9337 H       
  47 H47            5.7403    -5.2171    -1.5390 H       
  48 H48            5.1610    -3.6770    -2.2178 H       
@<TRIPOS>BOND
   1    1    2 ar
   2    1    6 ar
   3    2    3 ar
   4    2   29 1
   5    3    4 ar
   6    3   30 1
   7    4    5 ar
   8    4    7 1
   9    5    6 ar
  10    5   31 1
  11    6   12 1
  12    7    8 1
  13    7   11 2
  14    8    9 2
  15    8   32 1
  16    9   10 1
  17    9   16 1
  18   10   11 1
  19   10   13 1
  20   12   33 1
  21   12   34 1
  22   12   35 1
  23   13   14 1
  24   13   36 1
  25   13   37 1
  26   14   15 1
  27   14   38 1
  28   14   39 1
  29   15   40 1
  30   15   41 1
  31   15   42 1
  32   16   17 1
  33   16   28 1
  34   17   18 ar
  35   17   22 ar
  36   18   19 ar
  37   18   43 1
  38   19   20 ar
  39   19   44 1
  40   20   21 ar
  41   20   23 1
  42   21   22 ar
  43   21   27 1
  44   22   45 1
  45   23   24 1
  46   23   25 1
  47   23   26 1
  48   28   46 1
  49   28   47 1
  50   28   48 1

#	End of record

