#	Name: ASD01150740
#	Creating user name:	WinNT
#	Creation time:	15. 06. 2019 19:04

#	Modifying user name:	WinNT
#	Modification time:	15. 06. 2019 19:04

#	Program:	/corina/corina34_cracker 3.40 0067  02.08.2006

@<TRIPOS>MOLECULE
ASD01150740
  39   41    0    0    0
SMALL
NO_CHARGES


@<TRIPOS>ATOM
   1 C1            -0.0034     1.4274     0.0440 C.2     
   2 C2            -0.5031     1.0184    -1.3176 C.3     
   3 F3            -1.6217     0.1904    -1.1745 F       
   4 F4            -0.8573     2.1588    -2.0464 F       
   5 F5             0.5058     0.3261    -1.9960 F       
   6 N6             3.5640     2.3091     0.4783 N.ar    
   7 C7             2.4626     1.6142     0.3666 C.ar    
   8 C8             1.2156     2.2341     0.1660 C.ar    
   9 C9             1.1522     3.6369     0.0835 C.ar    
  10 C10            2.3644     4.3593     0.2086 C.ar    
  11 C11            2.3841     5.7583     0.1369 C.ar    
  12 C12            3.5820     6.4273     0.2625 C.ar    
  13 C13            4.7714     5.7212     0.4596 C.ar    
  14 C14            4.7757     4.3620     0.5319 C.ar    
  15 C15            3.5727     3.6474     0.4089 C.ar    
  16 O16            3.6069     7.7843     0.1938 O.3     
  17 C17            4.8805     8.4176     0.3314 C.3     
  18 F18            5.7341     7.9740    -0.6843 F       
  19 F19            4.7243     9.8046     0.2367 F       
  20 F20            5.4300     8.0941     1.5767 F       
  21 C21            2.5301     0.1113     0.4549 C.3     
  22 C22           -0.1342     4.3329    -0.1269 C.ar    
  23 C23           -1.1328     4.2709     0.8476 C.ar    
  24 C24           -2.3318     4.9238     0.6446 C.ar    
  25 C25           -2.5451     5.6390    -0.5224 C.ar    
  26 C26           -1.5597     5.7035    -1.4913 C.ar    
  27 C27           -0.3546     5.0602    -1.2984 C.ar    
  28 Cl28          -3.5751     4.8481     1.8538 Cl      
  29 O29           -0.6121     1.0938     1.0390 O.2     
  30 H30            1.4673     6.3082    -0.0160 H       
  31 H31            5.7013     6.2619     0.5556 H       
  32 H32            5.7047     3.8326     0.6843 H       
  33 H33            2.4881    -0.1935     1.5006 H       
  34 H34            1.6878    -0.3225    -0.0841 H       
  35 H35            3.4631    -0.2371     0.0121 H       
  36 H36           -0.9673     3.7132     1.7575 H       
  37 H37           -3.4849     6.1482    -0.6766 H       
  38 H38           -1.7327     6.2626    -2.3990 H       
  39 H39            0.4151     5.1154    -2.0539 H       
@<TRIPOS>BOND
   1    1    2 1
   2    1    8 1
   3    1   29 2
   4    2    3 1
   5    2    4 1
   6    2    5 1
   7    6    7 ar
   8    6   15 ar
   9    7    8 ar
  10    7   21 1
  11    8    9 ar
  12    9   10 ar
  13    9   22 1
  14   10   11 ar
  15   10   15 ar
  16   11   12 ar
  17   11   30 1
  18   12   13 ar
  19   12   16 1
  20   13   14 ar
  21   13   31 1
  22   14   15 ar
  23   14   32 1
  24   16   17 1
  25   17   18 1
  26   17   19 1
  27   17   20 1
  28   21   33 1
  29   21   34 1
  30   21   35 1
  31   22   23 ar
  32   22   27 ar
  33   23   24 ar
  34   23   36 1
  35   24   25 ar
  36   24   28 1
  37   25   26 ar
  38   25   37 1
  39   26   27 ar
  40   26   38 1
  41   27   39 1

#	End of record

