#	Name: ASD08150436
#	Creating user name:	WinNT
#	Creation time:	15. 06. 2019 21:16

#	Modifying user name:	WinNT
#	Modification time:	15. 06. 2019 21:16

#	Program:	/corina/corina34_cracker 3.40 0067  02.08.2006

@<TRIPOS>MOLECULE
ASD08150436
  33   36    0    0    0
SMALL
NO_CHARGES


@<TRIPOS>ATOM
   1 N1            -0.0162     1.3429     0.0094 N.am    
   2 C2             0.0572     0.0885     0.4951 C.2     
   3 C3             1.2769    -0.6184     0.4920 C.2     
   4 C4             2.4003    -0.0402    -0.0038 C.2     
   5 C5             2.3268     1.2793    -0.5161 C.ar    
   6 C6             3.4623     1.9246    -1.0422 C.ar    
   7 N7             3.3915     3.1417    -1.5144 N.ar    
   8 C8             2.2460     3.8402    -1.5258 C.ar    
   9 C9             1.0541     3.2700    -1.0167 C.ar    
  10 C10            1.0970     1.9554    -0.4982 C.ar    
  11 C11           -0.1335     4.0115    -1.0343 C.ar    
  12 C12           -0.1321     5.2775    -1.5421 C.ar    
  13 C13            1.0367     5.8408    -2.0436 C.ar    
  14 C14            2.2088     5.1452    -2.0408 C.ar    
  15 O15           -0.9445    -0.4423     0.9437 O.2     
  16 C16           -1.2408     2.0222     0.0189 C.ar    
  17 C17           -2.1002     1.9211    -1.0669 C.ar    
  18 C18           -3.3085     2.5920    -1.0552 C.ar    
  19 C19           -3.6617     3.3652     0.0392 C.ar    
  20 C20           -2.8053     3.4667     1.1227 C.ar    
  21 C21           -1.5998     2.7933     1.1170 C.ar    
  22 Cl22          -4.3839     2.4664    -2.4122 Cl      
  23 F23           -4.8427     4.0212     0.0489 F       
  24 H24            1.3175    -1.6233     0.8857 H       
  25 H25            3.3370    -0.5778    -0.0076 H       
  26 H26            4.4090     1.4050    -1.0555 H       
  27 H27           -1.0464     3.5829    -0.6480 H       
  28 H28           -1.0486     5.8486    -1.5553 H       
  29 H29            1.0150     6.8446    -2.4416 H       
  30 H30            3.1074     5.5978    -2.4334 H       
  31 H31           -1.8245     1.3190    -1.9201 H       
  32 H32           -3.0822     4.0701     1.9745 H       
  33 H33           -0.9326     2.8727     1.9625 H       
@<TRIPOS>BOND
   1    1    2 am
   2    1   10 1
   3    1   16 1
   4    2    3 1
   5    2   15 2
   6    3    4 2
   7    3   24 1
   8    4    5 1
   9    4   25 1
  10    5    6 ar
  11    5   10 ar
  12    6    7 ar
  13    6   26 1
  14    7    8 ar
  15    8    9 ar
  16    8   14 ar
  17    9   10 ar
  18    9   11 ar
  19   11   12 ar
  20   11   27 1
  21   12   13 ar
  22   12   28 1
  23   13   14 ar
  24   13   29 1
  25   14   30 1
  26   16   17 ar
  27   16   21 ar
  28   17   18 ar
  29   17   31 1
  30   18   19 ar
  31   18   22 1
  32   19   20 ar
  33   19   23 1
  34   20   21 ar
  35   20   32 1
  36   21   33 1

#	End of record

