#	Name: ASD00170213
#	Creating user name:	WinNT
#	Creation time:	15. 06. 2019 18:31

#	Modifying user name:	WinNT
#	Modification time:	15. 06. 2019 18:31

#	Program:	/corina/corina34_cracker 3.40 0067  02.08.2006

@<TRIPOS>MOLECULE
ASD00170213
  48   50    0    0    0
SMALL
NO_CHARGES


@<TRIPOS>ATOM
   1 C1             0.0778     1.2353    -0.0707 C.2     
   2 C2            -0.0892    -0.1171     0.0238 C.2     
   3 C3            -1.4859    -0.4953     0.1071 C.2     
   4 C4            -2.3364     0.5835     0.0732 C.2     
   5 S5            -1.4767     2.0482    -0.0507 S.3     
   6 C6             1.0290    -1.0861     0.0388 C.ar    
   7 C7             1.2950    -1.8312     1.1882 C.ar    
   8 C8             2.3392    -2.7331     1.1957 C.ar    
   9 C9             3.1219    -2.8991     0.0672 C.ar    
  10 C10            2.8633    -2.1632    -1.0759 C.ar    
  11 C11            1.8186    -1.2628    -1.0984 C.ar    
  12 N12           -3.7094     0.4920     0.1370 N.pl3   
  13 C13           -1.9423    -1.8804     0.2154 C.2     
  14 O14           -2.2021    -2.5942    -0.8995 O.3     
  15 O15           -2.0878    -2.3891     1.3110 O.2     
  16 C16            1.3785     1.9150    -0.1690 C.ar    
  17 C17            1.5819     2.8999    -1.1444 C.ar    
  18 C18            2.7876     3.5300    -1.2364 C.ar    
  19 C19            3.8240     3.1924    -0.3541 C.ar    
  20 C20            3.6196     2.2068     0.6223 C.ar    
  21 C21            2.4116     1.5811     0.7165 C.ar    
  22 C22           -2.6443    -3.9410    -0.7192 C.3     
  23 C23           -2.8864    -4.5856    -2.0855 C.3     
  24 C24            5.1213     3.8694    -0.4527 C.2     
  25 C25            6.1930     3.5974     0.5712 C.3     
  26 O26            5.3317     4.6485    -1.3588 O.2     
  27 C27            2.6279    -3.5387     2.4362 C.3     
  28 F28            1.9028    -4.7344     2.3949 F       
  29 F29            3.9959    -3.8248     2.4985 F       
  30 F30            2.2530    -2.8048     3.5666 F       
  31 H31            0.6851    -1.7020     2.0701 H       
  32 H32            3.9384    -3.6059     0.0784 H       
  33 H33            3.4780    -2.2975    -1.9537 H       
  34 H34            1.6176    -0.6893    -1.9912 H       
  35 H35           -4.1347    -0.3767     0.2110 H       
  36 H36           -4.2509     1.2962     0.1078 H       
  37 H37            0.7837     3.1598    -1.8238 H       
  38 H38            2.9445     4.2888    -1.9888 H       
  39 H39            4.4173     1.9462     1.3021 H       
  40 H40            2.2539     0.8223     1.4686 H       
  41 H41           -1.8821    -4.5049    -0.1814 H       
  42 H42           -3.5714    -3.9454    -0.1460 H       
  43 H43           -3.6487    -4.0217    -2.6233 H       
  44 H44           -1.9593    -4.5812    -2.6587 H       
  45 H45           -3.2237    -5.6129    -1.9480 H       
  46 H46            5.8577     2.8116     1.2481 H       
  47 H47            7.1048     3.2777     0.0667 H       
  48 H48            6.3917     4.5061     1.1395 H       
@<TRIPOS>BOND
   1    1    2 2
   2    1   16 1
   3    1    5 1
   4    2    3 1
   5    2    6 1
   6    3    4 2
   7    3   13 1
   8    4    5 1
   9    4   12 1
  10    6    7 ar
  11    6   11 ar
  12    7    8 ar
  13    7   31 1
  14    8    9 ar
  15    8   27 1
  16    9   10 ar
  17    9   32 1
  18   10   11 ar
  19   10   33 1
  20   11   34 1
  21   12   35 1
  22   12   36 1
  23   13   14 1
  24   13   15 2
  25   14   22 1
  26   16   17 ar
  27   16   21 ar
  28   17   18 ar
  29   17   37 1
  30   18   19 ar
  31   18   38 1
  32   19   20 ar
  33   19   24 1
  34   20   21 ar
  35   20   39 1
  36   21   40 1
  37   22   23 1
  38   22   41 1
  39   22   42 1
  40   23   43 1
  41   23   44 1
  42   23   45 1
  43   24   25 1
  44   24   26 2
  45   25   46 1
  46   25   47 1
  47   25   48 1
  48   27   28 1
  49   27   29 1
  50   27   30 1

#	End of record

