#	Name: ASD02560067
#	Creating user name:	WinNT
#	Creation time:	15. 06. 2019 20:24

#	Modifying user name:	WinNT
#	Modification time:	15. 06. 2019 20:24

#	Program:	/corina/corina34_cracker 3.40 0067  02.08.2006

@<TRIPOS>MOLECULE
ASD02560067
  40   41    0    0    0
SMALL
NO_CHARGES


@<TRIPOS>ATOM
   1 C1             0.1112     0.2624    -1.8340 C.ar    
   2 C2             0.0483    -0.6482    -0.7803 C.ar    
   3 N3             1.1618    -0.9559    -0.1264 N.ar    
   4 C4             2.3184    -0.4075    -0.4672 C.ar    
   5 N5             2.4087     0.4611    -1.4637 N.ar    
   6 C6             1.3374     0.8123    -2.1584 C.ar    
   7 N7             3.4617    -0.7502     0.2358 N.pl3   
   8 C8             4.6684    -0.0946    -0.0292 C.ar    
   9 C9             4.6678     1.2518    -0.3704 C.ar    
  10 C10            5.8599     1.8997    -0.6322 C.ar    
  11 C11            7.0556     1.2102    -0.5548 C.ar    
  12 C12            7.0618    -0.1362    -0.2136 C.ar    
  13 C13            5.8686    -0.7875     0.0542 C.ar    
  14 Cl14           8.5510     2.0278    -0.8850 Cl      
  15 O15            8.2380    -0.8132    -0.1378 O.3     
  16 O16           -1.1331    -1.2111    -0.4283 O.3     
  17 C17           -1.1124    -2.1343     0.6622 C.3     
  18 C18            8.1692    -2.1954     0.2186 C.3     
  19 C19            9.5598    -2.7753     0.2523 C.2     
  20 C20            9.8040    -3.9251    -0.3259 C.2     
  21 C21            8.7399    -4.5900    -1.1605 C.3     
  22 C22           11.1492    -4.5831    -0.1562 C.3     
  23 H23           -0.7772     0.5288    -2.3873 H       
  24 H24            1.4207     1.5209    -2.9692 H       
  25 H25            3.4254    -1.4448     0.9118 H       
  26 H26            3.7349     1.7925    -0.4315 H       
  27 H27            5.8575     2.9464    -0.8981 H       
  28 H28            5.8714    -1.8344     0.3197 H       
  29 H29           -0.7496    -1.6305     1.5581 H       
  30 H30           -2.1202    -2.5098     0.8395 H       
  31 H31           -0.4517    -2.9670     0.4209 H       
  32 H32            7.7103    -2.2945     1.2024 H       
  33 H33            7.5698    -2.7310    -0.5175 H       
  34 H34           10.3549    -2.2429     0.7530 H       
  35 H35            7.8780    -3.9281    -1.2449 H       
  36 H36            9.1358    -4.7995    -2.1543 H       
  37 H37            8.4364    -5.5232    -0.6862 H       
  38 H38           11.1276    -5.2340     0.7178 H       
  39 H39           11.3794    -5.1732    -1.0433 H       
  40 H40           11.9134    -3.8178    -0.0206 H       
@<TRIPOS>BOND
   1    1    2 ar
   2    1    6 ar
   3    1   23 1
   4    2    3 ar
   5    2   16 1
   6    3    4 ar
   7    4    5 ar
   8    4    7 1
   9    5    6 ar
  10    6   24 1
  11    7    8 1
  12    7   25 1
  13    8    9 ar
  14    8   13 ar
  15    9   10 ar
  16    9   26 1
  17   10   11 ar
  18   10   27 1
  19   11   12 ar
  20   11   14 1
  21   12   13 ar
  22   12   15 1
  23   13   28 1
  24   15   18 1
  25   16   17 1
  26   17   29 1
  27   17   30 1
  28   17   31 1
  29   18   19 1
  30   18   32 1
  31   18   33 1
  32   19   20 2
  33   19   34 1
  34   20   21 1
  35   20   22 1
  36   21   35 1
  37   21   36 1
  38   21   37 1
  39   22   38 1
  40   22   39 1
  41   22   40 1

#	End of record

