#	Name: ASD04220025
#	Creating user name:	WinNT
#	Creation time:	15. 06. 2019 20:48

#	Modifying user name:	WinNT
#	Modification time:	15. 06. 2019 20:48

#	Program:	/corina/corina34_cracker 3.40 0067  02.08.2006

@<TRIPOS>MOLECULE
ASD04220025
  43   45    0    0    0
SMALL
NO_CHARGES


@<TRIPOS>ATOM
   1 C1             0.0501     1.6663    -0.0415 C.3     
   2 N2            -0.0574     0.2109     0.1048 N.am    
   3 C3             0.7951    -0.6197    -0.7621 C.3     
   4 C4             2.2513    -0.3433    -0.3912 C.3     
   5 C5             2.5094     1.1378    -0.2981 C.ar    
   6 C6             3.8291     1.5665    -0.3857 C.ar    
   7 C7             4.1400     2.9103    -0.2989 C.ar    
   8 C8             3.1220     3.8430    -0.1216 C.ar    
   9 C9             1.8104     3.4137    -0.0390 C.ar    
  10 C10            1.5029     2.0623    -0.1302 C.ar    
  11 C11            0.4805    -2.0769    -0.5417 C.2     
  12 O12            1.1360    -2.7251     0.2393 O.2     
  13 O13           -0.5281    -2.6547    -1.2130 O.3     
  14 O14            3.4157     5.1677    -0.0299 O.3     
  15 O15            5.4341     3.3193    -0.3857 O.3     
  16 C16           -0.9018    -0.3438     0.9968 C.2     
  17 O17           -1.0421    -1.5480     1.0315 O.2     
  18 C18           -1.6718     0.5323     1.9511 C.3     
  19 C19           -2.5373    -0.3278     2.8356 C.ar    
  20 C20           -2.0083    -0.8903     3.9880 C.ar    
  21 C21           -2.8049    -1.6813     4.8021 C.ar    
  22 C22           -4.1255    -1.9087     4.4658 C.ar    
  23 C23           -4.6544    -1.3460     3.3140 C.ar    
  24 C24           -3.8587    -0.5512     2.5018 C.ar    
  25 O25           -5.9541    -1.5698     2.9829 O.3     
  26 O26           -0.7086    -0.6665     4.3191 O.3     
  27 H27           -0.4670     1.9788    -0.9487 H       
  28 H28           -0.4062     2.1522     0.8209 H       
  29 H29            0.6246    -0.3586    -1.8065 H       
  30 H30            2.4702    -0.8065     0.5709 H       
  31 H31            2.9028    -0.7736    -1.1518 H       
  32 H32            4.6187     0.8425    -0.5227 H       
  33 H33            1.0184     4.1350     0.0980 H       
  34 H34           -0.6919    -3.5915    -1.0383 H       
  35 H35            3.4200     5.6293    -0.8796 H       
  36 H36            5.7256     3.5134    -1.2870 H       
  37 H37           -0.9740     1.0999     2.5668 H       
  38 H38           -2.3004     1.2204     1.3860 H       
  39 H39           -2.3929    -2.1199     5.6990 H       
  40 H40           -4.7457    -2.5251     5.0996 H       
  41 H41           -4.2717    -0.1095     1.6070 H       
  42 H42           -6.5703    -0.9194     3.3468 H       
  43 H43           -0.5728     0.1135     4.8743 H       
@<TRIPOS>BOND
   1    1    2 1
   2    1   10 1
   3    1   27 1
   4    1   28 1
   5    2    3 1
   6    2   16 am
   7    3    4 1
   8    3   11 1
   9    3   29 1
  10    4    5 1
  11    4   30 1
  12    4   31 1
  13    5    6 ar
  14    5   10 ar
  15    6    7 ar
  16    6   32 1
  17    7    8 ar
  18    7   15 1
  19    8    9 ar
  20    8   14 1
  21    9   10 ar
  22    9   33 1
  23   11   12 2
  24   11   13 1
  25   13   34 1
  26   14   35 1
  27   15   36 1
  28   16   17 2
  29   16   18 1
  30   18   19 1
  31   18   37 1
  32   18   38 1
  33   19   20 ar
  34   19   24 ar
  35   20   21 ar
  36   20   26 1
  37   21   22 ar
  38   21   39 1
  39   22   23 ar
  40   22   40 1
  41   23   24 ar
  42   23   25 1
  43   24   41 1
  44   25   42 1
  45   26   43 1

#	End of record

