#	Name: ASD03430381
#	Creating user name:	WinNT
#	Creation time:	15. 06. 2019 20:41

#	Modifying user name:	WinNT
#	Modification time:	15. 06. 2019 20:41

#	Program:	/corina/corina34_cracker 3.40 0067  02.08.2006

@<TRIPOS>MOLECULE
ASD03430381
  57   62    0    0    0
SMALL
NO_CHARGES


@<TRIPOS>ATOM
   1 N1            -0.0157     1.4932     0.4901 N.am    
   2 C2             0.0409     0.2263     0.9344 C.2     
   3 C3             1.4805    -0.0488     1.3137 C.3     
   4 C4             2.1943     1.2487     1.0117 C.ar    
   5 C5             3.5076     1.6467     1.1355 C.ar    
   6 C6             3.8773     2.9304     0.7695 C.ar    
   7 C7             2.9258     3.8070     0.2813 C.ar    
   8 C8             1.6104     3.4107     0.1570 C.ar    
   9 C9             1.2302     2.1206     0.5226 C.ar    
  10 O10           -0.8869    -0.5506     1.0164 O.2     
  11 O11            1.9489    -1.4961     6.7418 O.3     
  12 C12            2.9074    -2.5666     6.6966 C.3     
  13 C13            2.7493    -3.1078     5.2560 C.3     
  14 C14            2.2150    -1.8929     4.5220 C.ar    
  15 C15            1.7737    -0.9961     5.4877 C.ar    
  16 C16            1.2412     0.2233     5.0806 C.ar    
  17 C17            1.1485     0.5278     3.7331 C.ar    
  18 C18            1.5861    -0.3805     2.7800 C.ar    
  19 C19            2.1190    -1.5919     3.1813 C.ar    
  20 O20            0.6266     1.7203     3.3428 O.3     
  21 O21            2.0136    -1.1102     0.5192 O.3     
  22 C22           -1.2434     2.1395     0.0197 C.3     
  23 C23           -0.9991     2.7578    -1.3327 C.ar    
  24 C24           -1.5151     4.0065    -1.6251 C.ar    
  25 C25           -1.2911     4.5737    -2.8657 C.ar    
  26 C26           -0.5507     3.8925    -3.8136 C.ar    
  27 C27           -0.0340     2.6442    -3.5209 C.ar    
  28 C28           -0.2544     2.0789    -2.2788 C.ar    
  29 C29           -2.3417     1.1133    -0.0881 C.ar    
  30 C30           -3.4804     1.2356     0.6860 C.ar    
  31 C31           -4.4879     0.2943     0.5871 C.ar    
  32 C32           -4.3568    -0.7692    -0.2863 C.ar    
  33 C33           -3.2185    -0.8911    -1.0610 C.ar    
  34 C34           -2.2130     0.0526    -0.9653 C.ar    
  35 Cl35           4.6969     0.5412     1.7498 Cl      
  36 H36            4.9057     3.2460     0.8656 H       
  37 H37            3.2141     4.8079    -0.0040 H       
  38 H38            0.8733     4.1017    -0.2246 H       
  39 H39            3.9167    -2.1882     6.8583 H       
  40 H40            2.6609    -3.3366     7.4276 H       
  41 H41            3.7116    -3.4173     4.8483 H       
  42 H42            2.0325    -3.9284     5.2246 H       
  43 H43            0.8992     0.9344     5.8180 H       
  44 H44            2.4610    -2.3021     2.4430 H       
  45 H45            1.2813     2.4267     3.2560 H       
  46 H46            1.5528    -1.9532     0.6289 H       
  47 H47           -1.5391     2.9153     0.7259 H       
  48 H48           -2.0935     4.5388    -0.8845 H       
  49 H49           -1.6948     5.5490    -3.0944 H       
  50 H50           -0.3763     4.3353    -4.7831 H       
  51 H51            0.5442     2.1118    -4.2616 H       
  52 H52            0.1525     1.1052    -2.0488 H       
  53 H53           -3.5828     2.0665     1.3683 H       
  54 H54           -5.3772     0.3895     1.1924 H       
  55 H55           -5.1436    -1.5051    -0.3630 H       
  56 H56           -3.1160    -1.7221    -1.7431 H       
  57 H57           -1.3253    -0.0406    -1.5733 H       
@<TRIPOS>BOND
   1    1    2 am
   2    1    9 1
   3    1   22 1
   4    2    3 1
   5    2   10 2
   6    3    4 1
   7    3   18 1
   8    3   21 1
   9    4    5 ar
  10    4    9 ar
  11    5    6 ar
  12    5   35 1
  13    6    7 ar
  14    6   36 1
  15    7    8 ar
  16    7   37 1
  17    8    9 ar
  18    8   38 1
  19   11   12 1
  20   11   15 1
  21   12   13 1
  22   12   39 1
  23   12   40 1
  24   13   14 1
  25   13   41 1
  26   13   42 1
  27   14   15 ar
  28   14   19 ar
  29   15   16 ar
  30   16   17 ar
  31   16   43 1
  32   17   18 ar
  33   17   20 1
  34   18   19 ar
  35   19   44 1
  36   20   45 1
  37   21   46 1
  38   22   23 1
  39   22   29 1
  40   22   47 1
  41   23   24 ar
  42   23   28 ar
  43   24   25 ar
  44   24   48 1
  45   25   26 ar
  46   25   49 1
  47   26   27 ar
  48   26   50 1
  49   27   28 ar
  50   27   51 1
  51   28   52 1
  52   29   30 ar
  53   29   34 ar
  54   30   31 ar
  55   30   53 1
  56   31   32 ar
  57   31   54 1
  58   32   33 ar
  59   32   55 1
  60   33   34 ar
  61   33   56 1
  62   34   57 1

#	End of record

