#	Name: ASD01040023
#	Creating user name:	WinNT
#	Creation time:	15. 06. 2019 18:58

#	Modifying user name:	WinNT
#	Modification time:	15. 06. 2019 18:58

#	Program:	/corina/corina34_cracker 3.40 0067  02.08.2006

@<TRIPOS>MOLECULE
ASD01040023
  58   62    0    0    0
SMALL
NO_CHARGES


@<TRIPOS>ATOM
   1 C1             0.1654     0.5576    -1.9479 C.3     
   2 C2            -0.9101     1.0507    -2.8812 C.ar    
   3 C3            -2.1384     1.4226    -2.3799 C.ar    
   4 C4            -0.6597     1.1349    -4.2450 C.ar    
   5 O5             0.5548     0.7719    -4.7341 O.3     
   6 C6            -1.6468     1.5885    -5.1101 C.ar    
   7 C7            -2.8803     1.9579    -4.6187 C.ar    
   8 C8            -3.1354     1.8798    -3.2467 C.ar    
   9 C9            -4.4524     2.2736    -2.7163 C.2     
  10 C10           -5.3044     1.4210    -2.1260 C.2     
  11 C11           -5.0274    -0.0135    -1.9355 C.ar    
  12 C12           -5.1580    -0.5907    -0.6689 C.ar    
  13 C13           -4.8978    -1.9326    -0.4957 C.ar    
  14 C14           -5.0383    -2.5561     0.8691 C.3     
  15 C15           -4.5066    -2.7119    -1.5771 C.ar    
  16 O16           -4.2520    -4.0348    -1.4016 O.3     
  17 C17           -4.3754    -2.1430    -2.8372 C.ar    
  18 C18           -4.6386    -0.8027    -3.0215 C.ar    
  19 C19           -6.6069     2.1118    -1.6687 C.3     
  20 S20           -6.7975     3.3096    -3.0792 S.o     
  21 O21           -7.6056     4.4030    -2.6662 O.2     
  22 C22           -5.0040     3.7142    -2.7713 C.3     
  23 C23           -5.0789     4.0663    -1.2456 C.3     
  24 C24           -6.0566     3.0899    -0.5743 C.3     
  25 S25           -5.1920     2.1436     0.7094 S.o2    
  26 O26           -6.1110     1.3512     1.4489 O.2     
  27 O27           -3.9920     1.5842     0.1933 O.2     
  28 O28           -4.7191     3.1953     1.7027 O.3     
  29 C29           -5.7068     3.6946     2.4913 C.ar    
  30 C30           -6.0000     3.0893     3.7047 C.ar    
  31 C31           -7.0046     3.5988     4.5045 C.ar    
  32 C32           -7.7176     4.7110     4.0966 C.ar    
  33 C33           -7.4276     5.3158     2.8875 C.ar    
  34 C34           -6.4199     4.8139     2.0869 C.ar    
  35 H35            0.0852    -0.5242    -1.8403 H       
  36 H36            1.1441     0.8106    -2.3554 H       
  37 H37            0.0447     1.0295    -0.9728 H       
  38 H38           -2.3309     1.3606    -1.3190 H       
  39 H39            0.6168    -0.1613    -4.9800 H       
  40 H40           -1.4474     1.6523    -6.1696 H       
  41 H41           -3.6473     2.3109    -5.2922 H       
  42 H42           -5.4621     0.0143     0.1724 H       
  43 H43           -6.0566    -2.9232     0.9978 H       
  44 H44           -4.3382    -3.3862     0.9631 H       
  45 H45           -4.8218    -1.8098     1.6335 H       
  46 H46           -5.0246    -4.6036    -1.5230 H       
  47 H47           -4.0707    -2.7528    -3.6749 H       
  48 H48           -4.5410    -0.3623    -4.0027 H       
  49 H49           -7.4569     1.4765    -1.4197 H       
  50 H50           -4.5164     4.4187    -3.4451 H       
  51 H51           -4.0909     3.9661    -0.7962 H       
  52 H52           -5.4375     5.0880    -1.1211 H       
  53 H53           -6.8821     3.6446    -0.1281 H       
  54 H54           -5.4436     2.2204     4.0236 H       
  55 H55           -7.2335     3.1278     5.4490 H       
  56 H56           -8.5026     5.1078     4.7232 H       
  57 H57           -7.9865     6.1840     2.5707 H       
  58 H58           -6.1937     5.2866     1.1426 H       
@<TRIPOS>BOND
   1    1   35 1
   2    1   36 1
   3    1   37 1
   4    1    2 1
   5    2    3 ar
   6    2    4 ar
   7    3   38 1
   8    3    8 ar
   9    4    5 1
  10    4    6 ar
  11    5   39 1
  12    6   40 1
  13    6    7 ar
  14    7    8 ar
  15    7   41 1
  16    8    9 1
  17    9   10 2
  18    9   22 1
  19   10   11 1
  20   10   19 1
  21   11   18 ar
  22   11   12 ar
  23   12   13 ar
  24   12   42 1
  25   13   15 ar
  26   13   14 1
  27   14   43 1
  28   14   44 1
  29   14   45 1
  30   15   16 1
  31   15   17 ar
  32   16   46 1
  33   17   47 1
  34   17   18 ar
  35   18   48 1
  36   19   20 1
  37   19   49 1
  38   19   24 1
  39   20   22 1
  40   20   21 2
  41   22   50 1
  42   22   23 1
  43   23   51 1
  44   23   52 1
  45   23   24 1
  46   24   53 1
  47   24   25 1
  48   25   27 2
  49   25   26 2
  50   25   28 1
  51   28   29 1
  52   29   30 ar
  53   29   34 ar
  54   30   54 1
  55   30   31 ar
  56   31   55 1
  57   31   32 ar
  58   32   56 1
  59   32   33 ar
  60   33   34 ar
  61   33   57 1
  62   34   58 1

#	End of record

