#	Name: ASD07300408
#	Creating user name:	WinNT
#	Creation time:	15. 06. 2019 21:09

#	Modifying user name:	WinNT
#	Modification time:	15. 06. 2019 21:09

#	Program:	/corina/corina34_cracker 3.40 0067  02.08.2006

@<TRIPOS>MOLECULE
ASD07300408
  18   19    0    0    0
SMALL
NO_CHARGES


@<TRIPOS>ATOM
   1 C1            -0.0169     1.3940     0.0097 C.ar    
   2 C2             0.0021    -0.0041     0.0020 C.ar    
   3 C3             1.2199    -0.6675    -0.0128 C.ar    
   4 C4             2.3808     0.0921    -0.0194 C.ar    
   5 C5             2.2879     1.4710    -0.0111 C.ar    
   6 N6             1.1161     2.0766     0.0026 N.ar    
   7 C7            -2.1133     0.6627     0.0346 C.2     
   8 N8            -1.3530     1.7733     0.0301 N.am    
   9 N9            -1.3234    -0.4278     0.0124 N.am    
  10 O10           -3.3299     0.6465     0.0513 O.2     
  11 C11           -1.7804    -1.8197     0.0085 C.3     
  12 H12            1.2634    -1.7466    -0.0186 H       
  13 H13            3.3475    -0.3893    -0.0305 H       
  14 H14            3.1909     2.0634    -0.0159 H       
  15 H15           -1.6827     2.6855     0.0398 H       
  16 H16           -1.8837    -2.1711     1.0352 H       
  17 H17           -2.7442    -1.8843    -0.4963 H       
  18 H18           -1.0532    -2.4395    -0.5161 H       
@<TRIPOS>BOND
   1    1    2 ar
   2    1    6 ar
   3    1    8 1
   4    2    3 ar
   5    2    9 1
   6    3    4 ar
   7    3   12 1
   8    4    5 ar
   9    4   13 1
  10    5    6 ar
  11    5   14 1
  12    7    8 am
  13    7    9 am
  14    7   10 2
  15    8   15 1
  16    9   11 1
  17   11   16 1
  18   11   17 1
  19   11   18 1

#	End of record

