#	Name: ASD02039264
#	Creating user name:	WinNT
#	Creation time:	15. 06. 2019 20:18

#	Modifying user name:	WinNT
#	Modification time:	15. 06. 2019 20:18

#	Program:	/corina/corina34_cracker 3.40 0067  02.08.2006

@<TRIPOS>MOLECULE
ASD02039264
  47   50    0    0    0
SMALL
NO_CHARGES


@<TRIPOS>ATOM
   1 N1             0.0022     1.2683     0.3698 N.2     
   2 C2             0.0063    -0.0134     0.0883 C.2     
   3 N3             1.3072    -0.3752    -0.1106 N.pl3   
   4 C4             2.0407     0.7639     0.0719 C.2     
   5 N5             1.2048     1.7216     0.3587 N.2     
   6 N6            -1.1014    -0.8434     0.0087 N.pl3   
   7 C7            -2.3885    -0.3063     0.1299 C.ar    
   8 C8            -2.6361     1.0012    -0.2675 C.ar    
   9 C9            -3.9061     1.5301    -0.1476 C.ar    
  10 C10           -4.9343     0.7559     0.3695 C.ar    
  11 C11           -4.6879    -0.5501     0.7670 C.ar    
  12 C12           -3.4199    -1.0826     0.6421 C.ar    
  13 O13           -6.1847     1.2775     0.4872 O.3     
  14 C14            3.5385     0.8889    -0.0383 C.3     
  15 O15            3.8914     1.2160    -1.3839 O.3     
  16 C16            5.2151     1.3658    -1.6557 C.ar    
  17 C17            5.6218     1.6819    -2.9367 C.ar    
  18 C18            6.1537     1.2054    -0.6395 C.ar    
  19 C19            7.4989     1.3543    -0.8963 C.ar    
  20 C20            7.9304     1.6674    -2.1807 C.ar    
  21 C21            6.9848     1.8352    -3.2100 C.ar    
  22 N22            9.2738     1.8203    -2.4584 N.am    
  23 C23            9.6934     2.1225    -3.6994 C.2     
  24 C24            8.7863     2.2963    -4.7664 C.2     
  25 C25            7.4530     2.1642    -4.5577 C.2     
  26 O26           10.8876     2.2500    -3.9081 O.2     
  27 C27           -7.1954     0.4242     1.0277 C.3     
  28 F28           -6.8301     0.0285     2.3189 F       
  29 F29           -8.4110     1.1149     1.0780 F       
  30 F30           -7.3347    -0.7063     0.2154 F       
  31 C31            1.8128    -1.7080    -0.4490 C.3     
  32 H32           -0.9845    -1.7961    -0.1309 H       
  33 H33           -1.8355     1.6042    -0.6698 H       
  34 H34           -4.0987     2.5470    -0.4562 H       
  35 H35           -5.4889    -1.1519     1.1702 H       
  36 H36           -3.2282    -2.0995     0.9513 H       
  37 H37            3.8876     1.6758     0.6304 H       
  38 H38            4.0035    -0.0569     0.2396 H       
  39 H39            4.8922     1.8096    -3.7226 H       
  40 H40            5.8237     0.9623     0.3597 H       
  41 H41            8.2181     1.2284    -0.1005 H       
  42 H42            9.9245     1.7084    -1.7478 H       
  43 H43            9.1551     2.5391    -5.7520 H       
  44 H44            6.7519     2.2952    -5.3687 H       
  45 H45            1.8466    -1.8194    -1.5327 H       
  46 H46            2.8155    -1.8309    -0.0396 H       
  47 H47            1.1524    -2.4652    -0.0263 H       
@<TRIPOS>BOND
   1    1    2 2
   2    1    5 1
   3    2    3 1
   4    2    6 1
   5    3    4 1
   6    3   31 1
   7    4    5 2
   8    4   14 1
   9    6    7 1
  10    6   32 1
  11    7    8 ar
  12    7   12 ar
  13    8    9 ar
  14    8   33 1
  15    9   10 ar
  16    9   34 1
  17   10   11 ar
  18   10   13 1
  19   11   12 ar
  20   11   35 1
  21   12   36 1
  22   13   27 1
  23   14   15 1
  24   14   37 1
  25   14   38 1
  26   15   16 1
  27   16   17 ar
  28   16   18 ar
  29   17   21 ar
  30   17   39 1
  31   18   19 ar
  32   18   40 1
  33   19   20 ar
  34   19   41 1
  35   20   21 ar
  36   20   22 1
  37   21   25 1
  38   22   23 am
  39   22   42 1
  40   23   24 1
  41   23   26 2
  42   24   25 2
  43   24   43 1
  44   25   44 1
  45   27   28 1
  46   27   29 1
  47   27   30 1
  48   31   45 1
  49   31   46 1
  50   31   47 1

#	End of record

