#	Name: ASD00170160
#	Creating user name:	WinNT
#	Creation time:	15. 06. 2019 18:31

#	Modifying user name:	WinNT
#	Modification time:	15. 06. 2019 18:31

#	Program:	/corina/corina34_cracker 3.40 0067  02.08.2006

@<TRIPOS>MOLECULE
ASD00170160
  38   39    0    0    0
SMALL
NO_CHARGES


@<TRIPOS>ATOM
   1 C1             0.9955    -1.2996     2.7869 C.2     
   2 C2             0.5868    -1.4534     1.5372 C.2     
   3 C3            -0.6733    -2.1585     1.4318 C.2     
   4 C4            -1.1821    -2.5213     2.6575 C.2     
   5 S5            -0.1422    -2.0200     3.9115 S.3     
   6 N6            -2.3680    -3.2017     2.8455 N.pl3   
   7 C7            -1.3340    -2.4524     0.1606 C.2     
   8 C8            -2.6329    -3.1603     0.1484 C.ar    
   9 O9            -0.8149    -2.1145    -0.8878 O.2     
  10 C10            2.2705    -0.6043     3.1894 C.3     
  11 C11            1.3552    -0.9451     0.3446 C.3     
  12 C12           -2.6710    -4.5554     0.1607 C.ar    
  13 C13           -3.8856    -5.2094     0.1496 C.ar    
  14 C14           -5.0644    -4.4853     0.1260 C.ar    
  15 C15           -5.0337    -3.1021     0.1132 C.ar    
  16 C16           -3.8258    -2.4358     0.1303 C.ar    
  17 C17           -6.3877    -5.2064     0.1135 C.3     
  18 C18           -1.3880    -5.3457     0.1854 C.3     
  19 C19           -3.7941    -0.9292     0.1164 C.3     
  20 H20           -3.0298    -3.2278     2.1368 H       
  21 H21           -2.5397    -3.6539     3.6862 H       
  22 H22            2.0733     0.4569     3.3415 H       
  23 H23            2.6455    -1.0405     4.1153 H       
  24 H24            3.0149    -0.7264     2.4026 H       
  25 H25            2.0453    -1.7159     0.0016 H       
  26 H26            0.6596    -0.6973    -0.4571 H       
  27 H27            1.9166    -0.0544     0.6268 H       
  28 H28           -3.9165    -6.2889     0.1591 H       
  29 H29           -5.9573    -2.5427     0.0944 H       
  30 H30           -6.7215    -5.3708     1.1381 H       
  31 H31           -7.1250    -4.6035    -0.4165 H       
  32 H32           -6.2736    -6.1664    -0.3899 H       
  33 H33           -1.0955    -5.5312     1.2189 H       
  34 H34           -1.5370    -6.2965    -0.3263 H       
  35 H35           -0.6037    -4.7809    -0.3184 H       
  36 H36           -3.7899    -0.5564     1.1407 H       
  37 H37           -2.8950    -0.5894    -0.3976 H       
  38 H38           -4.6745    -0.5521    -0.4039 H       
@<TRIPOS>BOND
   1    1    2 2
   2    1   10 1
   3    1    5 1
   4    2    3 1
   5    2   11 1
   6    3    4 2
   7    3    7 1
   8    4    5 1
   9    4    6 1
  10    6   20 1
  11    6   21 1
  12    7    8 1
  13    7    9 2
  14    8   12 ar
  15    8   16 ar
  16   10   22 1
  17   10   23 1
  18   10   24 1
  19   11   25 1
  20   11   26 1
  21   11   27 1
  22   12   13 ar
  23   12   18 1
  24   13   14 ar
  25   13   28 1
  26   14   15 ar
  27   14   17 1
  28   15   16 ar
  29   15   29 1
  30   16   19 1
  31   17   30 1
  32   17   31 1
  33   17   32 1
  34   18   33 1
  35   18   34 1
  36   18   35 1
  37   19   36 1
  38   19   37 1
  39   19   38 1

#	End of record

