#	Name: ASD03091240
#	Creating user name:	WinNT
#	Creation time:	15. 06. 2019 20:30

#	Modifying user name:	WinNT
#	Modification time:	15. 06. 2019 20:30

#	Program:	/corina/corina34_cracker 3.40 0067  02.08.2006

@<TRIPOS>MOLECULE
ASD03091240
  42   44    0    0    0
SMALL
NO_CHARGES


@<TRIPOS>ATOM
   1 C1            -0.0167     1.3781     0.0096 C.ar    
   2 C2             0.0021    -0.0041     0.0020 C.ar    
   3 C3             1.2084    -0.6789    -0.0132 C.ar    
   4 C4             2.3960     0.0285    -0.0212 C.ar    
   5 C5             2.3773     1.4107    -0.0145 C.ar    
   6 C6             1.1710     2.0855     0.0021 C.ar    
   7 C7             3.6720     2.1819    -0.0223 C.3     
   8 C8             3.9214     3.1320    -1.1954 C.3     
   9 C9             3.5941     3.6953     0.1890 C.3     
  10 C10            2.8535     3.2249    -2.2546 C.2     
  11 N11            3.0209     4.0461    -3.3102 N.am    
  12 O12            1.8433     2.5608    -2.1573 O.2     
  13 C13            1.9828     4.1364    -4.3399 C.3     
  14 C14            2.6019     4.5821    -5.6396 C.ar    
  15 C15            2.1896     4.0162    -6.8315 C.ar    
  16 C16            2.7575     4.4250    -8.0236 C.ar    
  17 C17            3.7373     5.4001    -8.0239 C.ar    
  18 C18            4.1489     5.9667    -6.8321 C.ar    
  19 C19            3.5780     5.5610    -5.6404 C.ar    
  20 C20            4.3571     5.8451    -9.3235 C.3     
  21 C21            0.9215     5.1497    -3.9066 C.3     
  22 H22           -0.9592     1.9054     0.0170 H       
  23 H23           -0.9258    -0.5567     0.0083 H       
  24 H24            1.2231    -1.7588    -0.0184 H       
  25 H25            3.3386    -0.4987    -0.0324 H       
  26 H26            1.1563     3.1654     0.0077 H       
  27 H27            4.5332     1.6590     0.3937 H       
  28 H28            4.9466     3.2343    -1.5509 H       
  29 H29            2.6065     4.1331     0.3336 H       
  30 H30            4.4041     4.1682     0.7442 H       
  31 H31            3.8288     4.5772    -3.3880 H       
  32 H32            1.5187     3.1594    -4.4747 H       
  33 H33            1.4240     3.2544    -6.8312 H       
  34 H34            2.4359     3.9823    -8.9548 H       
  35 H35            4.9147     6.7283    -6.8323 H       
  36 H36            3.8970     6.0062    -4.7096 H       
  37 H37            3.7848     6.6776    -9.7327 H       
  38 H38            5.3845     6.1629    -9.1460 H       
  39 H39            4.3503     5.0166   -10.0318 H       
  40 H40            1.3855     6.1267    -3.7718 H       
  41 H41            0.1491     5.2169    -4.6727 H       
  42 H42            0.4737     4.8273    -2.9665 H       
@<TRIPOS>BOND
   1    1    2 ar
   2    1    6 ar
   3    1   22 1
   4    2    3 ar
   5    2   23 1
   6    3    4 ar
   7    3   24 1
   8    4    5 ar
   9    4   25 1
  10    5    6 ar
  11    5    7 1
  12    6   26 1
  13    7    8 1
  14    7    9 1
  15    7   27 1
  16    8    9 1
  17    8   10 1
  18    8   28 1
  19    9   29 1
  20    9   30 1
  21   10   11 am
  22   10   12 2
  23   11   13 1
  24   11   31 1
  25   13   14 1
  26   13   21 1
  27   13   32 1
  28   14   15 ar
  29   14   19 ar
  30   15   16 ar
  31   15   33 1
  32   16   17 ar
  33   16   34 1
  34   17   18 ar
  35   17   20 1
  36   18   19 ar
  37   18   35 1
  38   19   36 1
  39   20   37 1
  40   20   38 1
  41   20   39 1
  42   21   40 1
  43   21   41 1
  44   21   42 1

#	End of record

