#	Name: ASD08150908
#	Creating user name:	WinNT
#	Creation time:	15. 06. 2019 21:16

#	Modifying user name:	WinNT
#	Modification time:	15. 06. 2019 21:16

#	Program:	/corina/corina34_cracker 3.40 0067  02.08.2006

@<TRIPOS>MOLECULE
ASD08150908
  45   49    0    0    0
SMALL
NO_CHARGES


@<TRIPOS>ATOM
   1 N1            -0.2017     1.3845     0.2699 N.2     
   2 C2            -0.5805     0.2691     0.8232 C.2     
   3 N3            -0.2330     0.2616     2.1414 N.pl3   
   4 C4             0.3985     1.4504     2.4070 C.ar    
   5 N5             0.9460     2.0017     3.4851 N.ar    
   6 C6             1.4937     3.1972     3.4226 C.ar    
   7 N7             1.5292     3.9031     2.3073 N.ar    
   8 C8             1.0069     3.4339     1.1788 C.ar    
   9 C9             0.4112     2.1615     1.1951 C.ar    
  10 N10            1.0485     4.1814     0.0148 N.pl3   
  11 C11            1.6735     5.5064     0.0171 C.3     
  12 C12            2.1040     5.8696    -1.4054 C.3     
  13 N13            0.6003     9.7965     2.1284 N.ar    
  14 N14           -0.2547    10.6573     2.5515 N.ar    
  15 C15           -1.5658    10.4822     2.4647 C.ar    
  16 C16           -2.0832     9.3468     1.9058 C.ar    
  17 C17           -1.1736     8.3828     1.4320 C.ar    
  18 C18           -1.5994     7.1830     0.8410 C.ar    
  19 C19           -0.6778     6.2803     0.3968 C.ar    
  20 C20            0.6850     6.5272     0.5189 C.ar    
  21 C21            1.1455     7.6978     1.0956 C.ar    
  22 C22            0.2123     8.6520     1.5651 C.ar    
  23 C23            2.5999     7.9489     1.2203 C.ar    
  24 C24            3.2879     7.5343     2.3633 C.ar    
  25 C25            4.6451     7.7718     2.4722 C.ar    
  26 C26            5.3204     8.4181     1.4527 C.ar    
  27 C27            4.6435     8.8306     0.3190 C.ar    
  28 C28            3.2893     8.5950     0.1951 C.ar    
  29 F29            2.6285     6.9034     3.3594 F       
  30 Cl30          -3.2948     6.8482     0.6761 Cl      
  31 H31           -1.0946    -0.5322     0.3134 H       
  32 H32           -0.4015    -0.4530     2.7753 H       
  33 H33            1.9300     3.6164     4.3172 H       
  34 H34            0.6639     3.8280    -0.8025 H       
  35 H35            2.5468     5.4950     0.6693 H       
  36 H36            2.5691     6.8555    -1.4037 H       
  37 H37            2.8190     5.1313    -1.7683 H       
  38 H38            1.2308     5.8810    -2.0576 H       
  39 H39           -2.2326    11.2445     2.8398 H       
  40 H40           -3.1499     9.1951     1.8310 H       
  41 H41           -1.0123     5.3590    -0.0566 H       
  42 H42            5.1791     7.4525     3.3550 H       
  43 H43            6.3809     8.6018     1.5424 H       
  44 H44            5.1770     9.3350    -0.4730 H       
  45 H45            2.7638     8.9140    -0.6929 H       
@<TRIPOS>BOND
   1    1    2 2
   2    1    9 1
   3    2    3 1
   4    2   31 1
   5    3    4 1
   6    3   32 1
   7    4    5 ar
   8    4    9 ar
   9    5    6 ar
  10    6    7 ar
  11    6   33 1
  12    7    8 ar
  13    8    9 ar
  14    8   10 1
  15   10   11 1
  16   10   34 1
  17   11   12 1
  18   11   20 1
  19   11   35 1
  20   12   36 1
  21   12   37 1
  22   12   38 1
  23   13   14 ar
  24   13   22 ar
  25   14   15 ar
  26   15   16 ar
  27   15   39 1
  28   16   17 ar
  29   16   40 1
  30   17   18 ar
  31   17   22 ar
  32   18   19 ar
  33   18   30 1
  34   19   20 ar
  35   19   41 1
  36   20   21 ar
  37   21   22 ar
  38   21   23 1
  39   23   24 ar
  40   23   28 ar
  41   24   25 ar
  42   24   29 1
  43   25   26 ar
  44   25   42 1
  45   26   27 ar
  46   26   43 1
  47   27   28 ar
  48   27   44 1
  49   28   45 1

#	End of record

