#	Name: ASD02390002
#	Creating user name:	WinNT
#	Creation time:	15. 06. 2019 20:20

#	Modifying user name:	WinNT
#	Modification time:	15. 06. 2019 20:20

#	Program:	/corina/corina34_cracker 3.40 0067  02.08.2006

@<TRIPOS>MOLECULE
ASD02390002
  48   50    0    0    0
SMALL
NO_CHARGES


@<TRIPOS>ATOM
   1 C1            -0.0165     1.3625     0.0095 C.2     
   2 C2             0.0021    -0.0041     0.0020 C.2     
   3 C3            -1.3254    -0.6002     0.0128 C.2     
   4 C4            -2.2946     0.3184     0.0234 C.2     
   5 S5            -1.6164     1.9412     0.0353 S.3     
   6 C6            -1.5580    -2.1014     0.0217 C.3     
   7 C7            -2.9021    -2.4276    -0.6222 C.3     
   8 C8            -3.9955    -2.4252     0.4439 C.3     
   9 C9            -4.0989    -1.0402     1.0767 C.3     
  10 C10           -3.7795     0.0199     0.0240 C.3     
  11 C11            1.2364    -0.7911    -0.0157 C.2     
  12 O12            1.7926    -1.1469    -1.1919 O.3     
  13 O13            1.7605    -1.1240     1.0304 O.2     
  14 C14            3.0160    -1.9268    -1.1334 C.3     
  15 C15            2.7500    -3.2380    -0.3911 C.3     
  16 N16            1.1114     2.1655     0.0031 N.am    
  17 C17            0.9836     3.5071     0.0115 C.2     
  18 O18           -0.1234     4.0128     0.0248 O.2     
  19 C19            2.1777     4.3573     0.0047 C.2     
  20 C20            2.1907     5.7231     0.0119 C.2     
  21 C21            3.5387     6.1137     0.0011 C.2     
  22 C22            4.2802     4.9840    -0.0121 C.2     
  23 O23            3.4566     3.9278    -0.0040 O.3     
  24 C24            3.4939    -2.2331    -2.5542 C.3     
  25 C25            4.0931    -1.1312    -0.3934 C.3     
  26 H26           -0.7612    -2.5939    -0.5357 H       
  27 H27           -1.5530    -2.4619     1.0503 H       
  28 H28           -3.1326    -1.6789    -1.3801 H       
  29 H29           -2.8519    -3.4116    -1.0883 H       
  30 H30           -4.9493    -2.6859    -0.0149 H       
  31 H31           -3.7527    -3.1579     1.2135 H       
  32 H32           -5.1103    -0.8865     1.4528 H       
  33 H33           -3.3881    -0.9620     1.8993 H       
  34 H34           -4.3318     0.9320     0.2501 H       
  35 H35           -4.0753    -0.3459    -0.9592 H       
  36 H36            1.9826    -3.8048    -0.9183 H       
  37 H37            3.6683    -3.8234    -0.3472 H       
  38 H38            2.4095    -3.0198     0.6211 H       
  39 H39            1.9937     1.7624    -0.0075 H       
  40 H40            1.3304     6.3759     0.0233 H       
  41 H41            3.9130     7.1268     0.0024 H       
  42 H42            5.3593     4.9401    -0.0229 H       
  43 H43            3.6834    -1.2991    -3.0831 H       
  44 H44            4.4123    -2.8186    -2.5103 H       
  45 H45            2.7265    -2.7999    -3.0815 H       
  46 H46            3.7526    -0.9130     0.6188 H       
  47 H47            5.0115    -1.7167    -0.3495 H       
  48 H48            4.2826    -0.1972    -0.9223 H       
@<TRIPOS>BOND
   1    1    2 2
   2    1   16 1
   3    1    5 1
   4    2    3 1
   5    2   11 1
   6    3    4 2
   7    3    6 1
   8    4    5 1
   9    4   10 1
  10    6    7 1
  11    6   26 1
  12    6   27 1
  13    7    8 1
  14    7   28 1
  15    7   29 1
  16    8    9 1
  17    8   30 1
  18    8   31 1
  19    9   10 1
  20    9   32 1
  21    9   33 1
  22   10   34 1
  23   10   35 1
  24   11   12 1
  25   11   13 2
  26   12   14 1
  27   14   15 1
  28   14   24 1
  29   14   25 1
  30   15   36 1
  31   15   37 1
  32   15   38 1
  33   16   17 am
  34   16   39 1
  35   17   18 2
  36   17   19 1
  37   19   20 2
  38   19   23 1
  39   20   21 1
  40   20   40 1
  41   21   22 2
  42   21   41 1
  43   22   23 1
  44   22   42 1
  45   24   43 1
  46   24   44 1
  47   24   45 1
  48   25   46 1
  49   25   47 1
  50   25   48 1

#	End of record

