#	Name: ASD02508430
#	Creating user name:	WinNT
#	Creation time:	15. 06. 2019 20:24

#	Modifying user name:	WinNT
#	Modification time:	15. 06. 2019 20:24

#	Program:	/corina/corina34_cracker 3.40 0067  02.08.2006

@<TRIPOS>MOLECULE
ASD02508430
  42   44    0    0    0
SMALL
NO_CHARGES


@<TRIPOS>ATOM
   1 N1             0.5779     1.4599     0.6455 N.2     
   2 C2             0.4347     0.1261     0.6359 C.2     
   3 C3             1.5820    -0.4171     0.1879 C.2     
   4 N4             2.4364     0.6226    -0.0781 N.pl3   
   5 C5             1.7718     1.7701     0.2203 C.2     
   6 C6             3.7437     0.5211    -0.5639 C.ar    
   7 C7             4.4874     1.6738    -0.7840 C.ar    
   8 N8             4.2625    -0.6719    -0.8044 N.ar    
   9 C9             5.4914    -0.8126    -1.2625 C.ar    
  10 C10            6.2860     0.2899    -1.5085 C.ar    
  11 C11            5.7804     1.5593    -1.2646 C.ar    
  12 S12            1.9215    -2.1340    -0.0164 S.o2    
  13 O13            1.6426    -2.4391    -1.3760 O.2     
  14 O14            3.1855    -2.3680     0.5892 O.2     
  15 N15            0.8094    -2.9645     0.8868 N.am    
  16 C16            0.7654    -2.7916     2.2721 C.ar    
  17 C17           -0.4517    -2.5882     2.9099 C.ar    
  18 C18           -0.4917    -2.4181     4.2799 C.ar    
  19 C19            0.6782    -2.4500     5.0165 C.ar    
  20 C20            1.8915    -2.6522     4.3847 C.ar    
  21 C21            1.9381    -2.8283     3.0157 C.ar    
  22 C22            3.1638    -2.6862     5.1917 C.3     
  23 C23           -1.8116    -2.1969     4.9727 C.3     
  24 C24            7.6888     0.1164    -2.0309 C.3     
  25 F25            7.9626    -1.2465    -2.1880 F       
  26 F26            7.8096     0.7617    -3.2663 F       
  27 F27            8.5966     0.6728    -1.1234 F       
  28 H28           -0.4486    -0.4180     0.9363 H       
  29 H29            2.1660     2.7708     0.1220 H       
  30 H30            4.0623     2.6461    -0.5831 H       
  31 H31            5.8814    -1.8027    -1.4472 H       
  32 H32            6.3809     2.4379    -1.4489 H       
  33 H33            0.1885    -3.5711     0.4538 H       
  34 H34           -1.3657    -2.5629     2.3351 H       
  35 H35            0.6442    -2.3163     6.0877 H       
  36 H36            2.8860    -2.9866     2.5230 H       
  37 H37            3.3655    -3.7092     5.5092 H       
  38 H38            3.9913    -2.3256     4.5807 H       
  39 H39            3.0549    -2.0483     6.0688 H       
  40 H40           -2.2353    -3.1584     5.2627 H       
  41 H41           -1.6574    -1.5849     5.8614 H       
  42 H42           -2.4967    -1.6875     4.2951 H       
@<TRIPOS>BOND
   1    1    2 1
   2    1    5 2
   3    2    3 2
   4    2   28 1
   5    3    4 1
   6    3   12 1
   7    4    5 1
   8    4    6 1
   9    5   29 1
  10    6    7 ar
  11    6    8 ar
  12    7   11 ar
  13    7   30 1
  14    8    9 ar
  15    9   10 ar
  16    9   31 1
  17   10   11 ar
  18   10   24 1
  19   11   32 1
  20   12   13 2
  21   12   14 2
  22   12   15 am
  23   15   16 1
  24   15   33 1
  25   16   17 ar
  26   16   21 ar
  27   17   18 ar
  28   17   34 1
  29   18   19 ar
  30   18   23 1
  31   19   20 ar
  32   19   35 1
  33   20   21 ar
  34   20   22 1
  35   21   36 1
  36   22   37 1
  37   22   38 1
  38   22   39 1
  39   23   40 1
  40   23   41 1
  41   23   42 1
  42   24   25 1
  43   24   26 1
  44   24   27 1

#	End of record

