#	Name: ASD01914170
#	Creating user name:	WinNT
#	Creation time:	15. 06. 2019 20:03

#	Modifying user name:	WinNT
#	Modification time:	15. 06. 2019 20:03

#	Program:	/corina/corina34_cracker 3.40 0067  02.08.2006

@<TRIPOS>MOLECULE
ASD01914170
  48   51    0    0    0
SMALL
NO_CHARGES


@<TRIPOS>ATOM
   1 C1             1.9861     0.6394     0.6281 C.2     
   2 C2             1.6540    -0.7903     0.5806 C.2     
   3 N3             0.4525    -1.3189     0.3993 N.2     
   4 C4             0.6365    -2.6470     0.4299 C.2     
   5 N5             1.9042    -2.8661     0.6226 N.2     
   6 O6             2.5098    -1.8186     0.7065 O.3     
   7 C7            -0.4328    -3.6967     0.2697 C.3     
   8 C8            -0.1113    -4.5725    -0.9434 C.3     
   9 C9            -1.2137    -5.6181    -1.1264 C.3     
  10 C10           -1.2731    -6.5142     0.1147 C.3     
  11 N11           -1.4373    -5.6659     1.3030 N.am    
  12 C12           -0.4834    -4.5710     1.5267 C.3     
  13 C13           -2.4438    -5.8878     2.1715 C.2     
  14 C14           -2.5250    -5.1084     3.4214 C.ar    
  15 O15           -3.2849    -6.7305     1.9248 O.2     
  16 C16           -1.5273    -4.2101     5.3989 C.ar    
  17 N17           -3.8026    -3.8188     4.9377 N.ar    
  18 C18           -3.7342    -4.5166     3.8168 C.ar    
  19 C19           -1.3987    -4.9506     4.2370 C.ar    
  20 C20            0.0252    -7.3151     0.2317 C.3     
  21 C21           -2.7522    -3.6527     5.7182 C.ar    
  22 C22            3.2401     1.1775     0.8173 C.2     
  23 C23            3.0990     2.5710     0.7932 C.2     
  24 C24            1.7898     2.8517     0.5940 C.2     
  25 N25            1.1028     1.6835     0.4860 N.pl3   
  26 Cl26           4.3758     3.7315     0.9851 Cl      
  27 O27           -4.8380    -4.6607     3.0454 O.3     
  28 C28           -6.0368    -4.0330     3.5044 C.3     
  29 H29           -1.3985    -3.2128     0.1235 H       
  30 H30           -0.0504    -3.9490    -1.8354 H       
  31 H31            0.8431    -5.0748    -0.7859 H       
  32 H32           -2.1723    -5.1166    -1.2593 H       
  33 H33           -0.9961    -6.2264    -2.0043 H       
  34 H34           -2.1195    -7.1961     0.0328 H       
  35 H35            0.5060    -4.9831     1.7251 H       
  36 H36           -0.8087    -3.9708     2.3764 H       
  37 H37           -0.6771    -4.0650     6.0488 H       
  38 H38           -0.4528    -5.3960     3.9665 H       
  39 H39            0.8682    -6.6298     0.3196 H       
  40 H40           -0.0191    -7.9519     1.1152 H       
  41 H41            0.1514    -7.9342    -0.6565 H       
  42 H42           -2.8516    -3.0749     6.6252 H       
  43 H43            4.1592     0.6282     0.9584 H       
  44 H44            1.3619     3.8411     0.5272 H       
  45 H45            0.1476     1.6004     0.3396 H       
  46 H46           -6.8423    -4.2261     2.7959 H       
  47 H47           -6.3071    -4.4358     4.4805 H       
  48 H48           -5.8755    -2.9581     3.5870 H       
@<TRIPOS>BOND
   1    1    2 1
   2    1   22 2
   3    1   25 1
   4    2    3 2
   5    2    6 1
   6    3    4 1
   7    4    5 2
   8    4    7 1
   9    5    6 1
  10    7    8 1
  11    7   12 1
  12    7   29 1
  13    8    9 1
  14    8   30 1
  15    8   31 1
  16    9   10 1
  17    9   32 1
  18    9   33 1
  19   10   11 1
  20   10   20 1
  21   10   34 1
  22   11   12 1
  23   11   13 am
  24   12   35 1
  25   12   36 1
  26   13   14 1
  27   13   15 2
  28   14   19 ar
  29   14   18 ar
  30   16   21 ar
  31   16   19 ar
  32   16   37 1
  33   17   18 ar
  34   17   21 ar
  35   18   27 1
  36   19   38 1
  37   20   39 1
  38   20   40 1
  39   20   41 1
  40   21   42 1
  41   22   23 1
  42   22   43 1
  43   23   24 2
  44   23   26 1
  45   24   25 1
  46   24   44 1
  47   25   45 1
  48   27   28 1
  49   28   46 1
  50   28   47 1
  51   28   48 1

#	End of record

