#	Name: ASD05430143
#	Creating user name:	WinNT
#	Creation time:	15. 06. 2019 20:59

#	Modifying user name:	WinNT
#	Modification time:	15. 06. 2019 20:59

#	Program:	/corina/corina34_cracker 3.40 0067  02.08.2006

@<TRIPOS>MOLECULE
ASD05430143
  69   75    0    0    0
SMALL
NO_CHARGES


@<TRIPOS>ATOM
   1 C1            -0.0168     1.3884     0.0097 C.ar    
   2 C2             0.0021    -0.0041     0.0020 C.ar    
   3 C3             1.2145    -0.6775    -0.0132 C.ar    
   4 C4             2.3994     0.0335    -0.0207 C.ar    
   5 C5             2.3802     1.4162    -0.0126 C.ar    
   6 C6             1.1759     2.0942     0.0021 C.ar    
   7 C7             4.2166     0.9684     2.2335 C.3     
   8 C8             4.6398     1.9567     1.1449 C.3     
   9 C9             3.6759     2.1858    -0.0198 C.3     
  10 C10            5.1378     1.0659     3.4434 C.3     
  11 C11            6.5507     1.5533     3.1269 C.3     
  12 N12            6.4635     2.8858     2.5281 N.pl3   
  13 C13            5.4447     3.1389     1.6273 C.2     
  14 C14            8.4841     3.9975     1.7696 C.ar    
  15 C15            9.8050     4.2119     2.1167 C.ar    
  16 C16           10.7790     4.2559     1.1373 C.ar    
  17 C17           10.4314     4.0851    -0.1921 C.ar    
  18 C18            9.1082     3.8705    -0.5385 C.ar    
  19 C19            8.1359     3.8269     0.4427 C.ar    
  20 N20           -1.2028    -0.7242     0.0101 N.pl3   
  21 C21           -1.5470    -1.7458    -0.8364 C.2     
  22 C22           -2.7816    -2.1488    -0.4797 C.2     
  23 N23           -3.1844    -1.3972     0.5555 N.2     
  24 C24           -2.2450    -0.5442     0.8618 C.2     
  25 C25           -3.5734    -3.2532    -1.1310 C.3     
  26 N26            5.1943     4.3326     1.2358 N.2     
  27 C27           -1.1448     3.4816     0.0264 C.3     
  28 O28           -1.2023     2.0537     0.0189 O.3     
  29 C29            7.4238     3.9436     2.8392 C.3     
  30 C30            6.6713     5.2783     2.8884 C.3     
  31 O31            5.9148     5.4520     1.6945 O.3     
  32 F32           11.3827     4.1284    -1.1504 F       
  33 C33            4.5005     1.7901     4.6404 C.3     
  34 O34            5.0669     0.7292     5.4366 O.3     
  35 C35            5.1171    -0.1920     4.3280 C.3     
  36 C36            4.9668     1.3941    -0.2384 C.3     
  37 C37            5.7284     5.2860     4.0932 C.3     
  38 O38            5.1130     6.5705     4.2083 O.3     
  39 H39            1.2325    -1.7573    -0.0188 H       
  40 H40            3.3428    -0.4921    -0.0325 H       
  41 H41            1.1642     3.1741     0.0080 H       
  42 H42            3.1951     1.1908     2.5420 H       
  43 H43            4.2567    -0.0446     1.8332 H       
  44 H44            3.6237     3.1902    -0.4399 H       
  45 H45            7.1349     1.6028     4.0458 H       
  46 H46            7.0255     0.8674     2.4253 H       
  47 H47           10.0758     4.3454     3.1537 H       
  48 H48           11.8108     4.4237     1.4087 H       
  49 H49            8.8360     3.7372    -1.5751 H       
  50 H50            7.1037     3.6595     0.1727 H       
  51 H51           -0.9442    -2.1496    -1.6363 H       
  52 H52           -2.2917     0.1871     1.6552 H       
  53 H53           -3.3539    -4.1988    -0.6352 H       
  54 H54           -4.6381    -3.0364    -1.0450 H       
  55 H55           -3.3008    -3.3233    -2.1841 H       
  56 H56           -0.6126     3.8191     0.9157 H       
  57 H57           -0.6210     3.8288    -0.8642 H       
  58 H58           -2.1570     3.8859     0.0334 H       
  59 H59            7.8865     3.7469     3.8063 H       
  60 H60            7.3874     6.0943     2.9853 H       
  61 H61            4.9304     2.7711     4.8424 H       
  62 H62            3.4106     1.7953     4.6235 H       
  63 H63            4.2168    -0.7961     4.2151 H       
  64 H64            6.0348    -0.7785     4.2828 H       
  65 H65            5.7642     1.8775    -0.8028 H       
  66 H66            4.8789     0.3165    -0.3771 H       
  67 H67            4.9593     4.5255     3.9576 H       
  68 H68            6.2950     5.0721     4.9995 H       
  69 H69            4.5006     6.6481     4.9527 H       
@<TRIPOS>BOND
   1    1    2 ar
   2    1    6 ar
   3    1   28 1
   4    2    3 ar
   5    2   20 1
   6    3    4 ar
   7    3   39 1
   8    4    5 ar
   9    4   40 1
  10    5    6 ar
  11    5    9 1
  12    6   41 1
  13    7    8 1
  14    7   10 1
  15    7   42 1
  16    7   43 1
  17    8    9 1
  18    8   36 1
  19    8   13 1
  20    9   36 1
  21    9   44 1
  22   10   11 1
  23   10   33 1
  24   10   35 1
  25   11   12 1
  26   11   45 1
  27   11   46 1
  28   12   13 1
  29   12   29 1
  30   13   26 2
  31   14   15 ar
  32   14   19 ar
  33   14   29 1
  34   15   16 ar
  35   15   47 1
  36   16   17 ar
  37   16   48 1
  38   17   18 ar
  39   17   32 1
  40   18   19 ar
  41   18   49 1
  42   19   50 1
  43   20   21 1
  44   20   24 1
  45   21   22 2
  46   21   51 1
  47   22   23 1
  48   22   25 1
  49   23   24 2
  50   24   52 1
  51   25   53 1
  52   25   54 1
  53   25   55 1
  54   26   31 1
  55   27   28 1
  56   27   56 1
  57   27   57 1
  58   27   58 1
  59   29   30 1
  60   29   59 1
  61   30   31 1
  62   30   37 1
  63   30   60 1
  64   33   34 1
  65   33   61 1
  66   33   62 1
  67   34   35 1
  68   35   63 1
  69   35   64 1
  70   36   65 1
  71   36   66 1
  72   37   38 1
  73   37   67 1
  74   37   68 1
  75   38   69 1

#	End of record

