#	Name: ASD01913637
#	Creating user name:	WinNT
#	Creation time:	15. 06. 2019 20:01

#	Modifying user name:	WinNT
#	Modification time:	15. 06. 2019 20:01

#	Program:	/corina/corina34_cracker 3.40 0067  02.08.2006

@<TRIPOS>MOLECULE
ASD01913637
  39   41    0    0    0
SMALL
NO_CHARGES


@<TRIPOS>ATOM
   1 C1            -0.0386     1.4086    -0.0778 C.ar    
   2 C2            -0.0115     0.0450     0.1472 C.ar    
   3 C3             1.1955    -0.5991     0.3447 C.ar    
   4 C4             2.3756     0.1204     0.3167 C.ar    
   5 C5             2.3485     1.4839     0.0908 C.ar    
   6 C6             1.1413     2.1282    -0.1053 C.ar    
   7 C7             3.6349     2.2684     0.0608 C.3     
   8 O8             4.1433     2.2987    -1.2744 O.3     
   9 C9             5.3034     2.9693    -1.4758 C.ar    
  10 N10            5.9046     3.5553    -0.4520 N.ar    
  11 C11            7.0331     4.2179    -0.5966 C.ar    
  12 C12            7.6390     4.3251    -1.8490 C.ar    
  13 C13            7.0276     3.7155    -2.9548 C.ar    
  14 C14            5.8488     3.0273    -2.7549 C.ar    
  15 C15            8.9037     5.0690    -2.0080 C.2     
  16 N16            9.4821     5.6512    -0.9389 N.am    
  17 O17            9.4239     5.1567    -3.1036 O.2     
  18 C18           10.7294     6.2724    -1.0698 C.ar    
  19 C19           11.0505     6.9477    -2.2400 C.ar    
  20 C20           12.2819     7.5600    -2.3671 C.ar    
  21 C21           13.1963     7.5005    -1.3289 C.ar    
  22 C22           12.8782     6.8276    -0.1612 C.ar    
  23 C23           11.6455     6.2192    -0.0275 C.ar    
  24 F24           14.4007     8.0994    -1.4556 F       
  25 H25           -0.9814     1.9111    -0.2366 H       
  26 H26           -0.9335    -0.5171     0.1690 H       
  27 H27            1.2167    -1.6643     0.5212 H       
  28 H28            3.3186    -0.3826     0.4717 H       
  29 H29            1.1202     3.1934    -0.2822 H       
  30 H30            3.4475     3.2867     0.4014 H       
  31 H31            4.3649     1.7944     0.7168 H       
  32 H32            7.4940     4.6833     0.2622 H       
  33 H33            7.4708     3.7802    -3.9375 H       
  34 H34            5.3505     2.5457    -3.5833 H       
  35 H35            9.0340     5.6396    -0.0787 H       
  36 H36           10.3379     6.9938    -3.0502 H       
  37 H37           12.5320     8.0854    -3.2770 H       
  38 H38           13.5929     6.7821     0.6472 H       
  39 H39           11.3977     5.6948     0.8835 H       
@<TRIPOS>BOND
   1    1    2 ar
   2    1    6 ar
   3    1   25 1
   4    2    3 ar
   5    2   26 1
   6    3    4 ar
   7    3   27 1
   8    4    5 ar
   9    4   28 1
  10    5    6 ar
  11    5    7 1
  12    6   29 1
  13    7    8 1
  14    7   30 1
  15    7   31 1
  16    8    9 1
  17    9   10 ar
  18    9   14 ar
  19   10   11 ar
  20   11   12 ar
  21   11   32 1
  22   12   13 ar
  23   12   15 1
  24   13   14 ar
  25   13   33 1
  26   14   34 1
  27   15   16 am
  28   15   17 2
  29   16   18 1
  30   16   35 1
  31   18   19 ar
  32   18   23 ar
  33   19   20 ar
  34   19   36 1
  35   20   21 ar
  36   20   37 1
  37   21   22 ar
  38   21   24 1
  39   22   23 ar
  40   22   38 1
  41   23   39 1

#	End of record

