#	Name: ASD01209079
#	Creating user name:	WinNT
#	Creation time:	15. 06. 2019 19:10

#	Modifying user name:	WinNT
#	Modification time:	15. 06. 2019 19:10

#	Program:	/corina/corina34_cracker 3.40 0067  02.08.2006

@<TRIPOS>MOLECULE
ASD01209079
  57   59    0    0    0
SMALL
NO_CHARGES


@<TRIPOS>ATOM
   1 C1            -0.0657     1.4586    -0.0024 C.ar    
   2 C2             0.0532     0.0766    -0.0354 C.ar    
   3 C3            -1.0799    -0.7239     0.0116 C.ar    
   4 C4            -2.3356    -0.1464     0.0912 C.ar    
   5 C5            -2.4611     1.2455     0.1247 C.ar    
   6 C6            -1.3163     2.0466     0.0829 C.ar    
   7 O7             1.0479     2.2364    -0.0483 O.3     
   8 C8             0.8494     3.6485    -0.1416 C.3     
   9 C9             2.0768     4.2944    -0.7877 C.3     
  10 C10           -3.7935     1.8652     0.2089 C.2     
  11 O11           -3.8999     3.0727     0.2378 O.2     
  12 C12           -5.0256     0.9989     0.2591 C.3     
  13 C13           -5.3645     0.6781     1.7162 C.3     
  14 C14           -6.1978     1.7415    -0.3856 C.3     
  15 O15           -0.9564    -2.0769    -0.0211 O.3     
  16 C16           -1.4206    -2.7318    -1.1124 C.ar    
  17 N17           -1.8778    -2.0466    -2.1516 N.ar    
  18 C18           -2.3301    -2.6843    -3.2160 C.ar    
  19 C19           -2.3266    -4.0780    -3.2463 C.ar    
  20 C20            0.6458     4.2286     1.2594 C.3     
  21 N21           -2.8288    -6.1410    -4.4665 N.am    
  22 C22           -2.8324    -4.7936    -4.4377 C.2     
  23 C23           -1.4120    -4.1278    -1.1445 C.ar    
  24 N24           -1.8670    -4.7649    -2.2015 N.ar    
  25 O25           -3.2513    -4.1665    -5.3910 O.2     
  26 C26           -3.2306    -7.1808    -5.4259 C.3     
  27 C27           -3.4647    -8.1161    -4.2315 C.3     
  28 C28           -2.4154    -7.2186    -3.5550 C.3     
  29 O29            3.2089     4.1275     0.0682 O.3     
  30 C30            4.4144     4.6981    -0.4448 C.3     
  31 H31            1.0309    -0.3780    -0.0982 H       
  32 H32           -3.2166    -0.7701     0.1270 H       
  33 H33           -1.4077     3.1224     0.1089 H       
  34 H34           -0.0313     3.8522    -0.7507 H       
  35 H35            2.2743     3.8189    -1.7483 H       
  36 H36            1.8901     5.3575    -0.9400 H       
  37 H37           -4.8403     0.0719    -0.2835 H       
  38 H38           -6.2556     0.0515     1.7525 H       
  39 H39           -4.5294     0.1491     2.1754 H       
  40 H40           -5.5498     1.6051     2.2587 H       
  41 H41           -5.9564     1.9700    -1.4236 H       
  42 H42           -7.0890     1.1149    -0.3493 H       
  43 H43           -6.3831     2.6685     0.1570 H       
  44 H44           -2.7028    -2.1265    -4.0623 H       
  45 H45            0.4945     5.3057     1.1882 H       
  46 H46           -0.2285     3.7684     1.7197 H       
  47 H47            1.5265     4.0249     1.8685 H       
  48 H48           -1.0356    -4.6848    -0.2992 H       
  49 H49           -4.1419    -6.9383    -5.9725 H       
  50 H50           -2.4204    -7.5052    -6.0790 H       
  51 H51           -4.4626    -8.0469    -3.7986 H       
  52 H52           -3.1338    -9.1416    -4.3953 H       
  53 H53           -1.3905    -7.5550    -3.7118 H       
  54 H54           -2.6348    -7.0072    -2.5085 H       
  55 H55            4.2762     5.7695    -0.5900 H       
  56 H56            5.2262     4.5291     0.2628 H       
  57 H57            4.6605     4.2309    -1.3984 H       
@<TRIPOS>BOND
   1    1    2 ar
   2    1    7 1
   3    1    6 ar
   4    2    3 ar
   5    2   31 1
   6    3    4 ar
   7    3   15 1
   8    4    5 ar
   9    4   32 1
  10    5    6 ar
  11    5   10 1
  12    6   33 1
  13    7    8 1
  14    8    9 1
  15    8   20 1
  16    8   34 1
  17    9   29 1
  18    9   35 1
  19    9   36 1
  20   10   11 2
  21   10   12 1
  22   12   13 1
  23   12   14 1
  24   12   37 1
  25   13   38 1
  26   13   39 1
  27   13   40 1
  28   14   41 1
  29   14   42 1
  30   14   43 1
  31   15   16 1
  32   16   17 ar
  33   16   23 ar
  34   17   18 ar
  35   18   19 ar
  36   18   44 1
  37   19   24 ar
  38   19   22 1
  39   20   45 1
  40   20   46 1
  41   20   47 1
  42   21   22 am
  43   21   26 1
  44   21   28 1
  45   22   25 2
  46   23   24 ar
  47   23   48 1
  48   26   27 1
  49   26   49 1
  50   26   50 1
  51   27   28 1
  52   27   51 1
  53   27   52 1
  54   28   53 1
  55   28   54 1
  56   29   30 1
  57   30   55 1
  58   30   56 1
  59   30   57 1

#	End of record

