#	Name: ASD01885664
#	Creating user name:	WinNT
#	Creation time:	15. 06. 2019 19:49

#	Modifying user name:	WinNT
#	Modification time:	15. 06. 2019 19:49

#	Program:	/corina/corina34_cracker 3.40 0067  02.08.2006

@<TRIPOS>MOLECULE
ASD01885664
  53   56    0    0    0
SMALL
NO_CHARGES


@<TRIPOS>ATOM
   1 C1            -0.0170     1.4036     0.0098 C.ar    
   2 C2            -1.2673     2.0758     0.0193 C.ar    
   3 C3            -1.2891     3.4832     0.0271 C.ar    
   4 C4            -0.0968     4.1477     0.0251 C.ar    
   5 C5             1.1050     3.4242     0.0155 C.ar    
   6 N6             1.1159     2.1055     0.0027 N.ar    
   7 C7             0.0021    -0.0041     0.0020 C.ar    
   8 C8            -1.1698    -0.6948     0.0090 C.ar    
   9 C9            -2.3959    -0.0319     0.0237 C.ar    
  10 C10           -2.4557     1.3285     0.0204 C.ar    
  11 C11           -2.5943     4.2365     0.0369 C.3     
  12 C12           -2.6701     5.1092     1.2913 C.3     
  13 C13           -3.9952     5.8740     1.3012 C.3     
  14 C14           -2.6810     5.1229    -1.2071 C.3     
  15 C15            2.3927     4.1592     0.0068 C.2     
  16 N16            3.5564     3.4796    -0.0138 N.am    
  17 O17            2.3989     5.3741     0.0184 O.2     
  18 C18           -1.1418    -2.2016     0.0132 C.3     
  19 N19           -1.1516    -2.6941    -1.3665 N.am    
  20 C20           -0.0310    -2.9168    -2.0642 C.2     
  21 C21           -0.3955    -3.4178    -3.4447 C.3     
  22 C22           -1.9373    -3.4464    -3.4235 C.3     
  23 C23           -2.2819    -2.9638    -2.0314 C.2     
  24 O24            1.0970    -2.7440    -1.6551 O.2     
  25 O25           -3.4037    -2.8350    -1.5904 O.2     
  26 C26           -4.0818     6.7604     0.0572 C.3     
  27 C27           -4.0061     5.8877    -1.1972 C.3     
  28 C28           -5.4070     7.5252     0.0672 C.3     
  29 H29           -0.0787     5.2276     0.0306 H       
  30 H30            0.9434    -0.5334    -0.0098 H       
  31 H31           -3.3110    -0.6052     0.0376 H       
  32 H32           -3.4122     1.8298     0.0279 H       
  33 H33           -3.4227     3.5280     0.0367 H       
  34 H34           -2.6084     4.4777     2.1776 H       
  35 H35           -1.8417     5.8177     1.2916 H       
  36 H36           -4.8236     5.1655     1.3010 H       
  37 H37           -4.0492     6.4958     2.1949 H       
  38 H38           -1.8526     5.8314    -1.2069 H       
  39 H39           -2.6270     4.5012    -2.1008 H       
  40 H40            3.5515     2.5096    -0.0230 H       
  41 H41            4.3989     3.9604    -0.0194 H       
  42 H42           -0.2383    -2.5468     0.5158 H       
  43 H43           -2.0178    -2.5797     0.5403 H       
  44 H44           -0.0350    -2.7303    -4.2099 H       
  45 H45            0.0046    -4.4186    -3.6075 H       
  46 H46           -2.3439    -2.7731    -4.1782 H       
  47 H47           -2.3043    -4.4614    -3.5758 H       
  48 H48           -3.2535     7.4689     0.0575 H       
  49 H49           -4.0678     6.5192    -2.0834 H       
  50 H50           -4.8345     5.1792    -1.1974 H       
  51 H51           -5.4609     8.1469     0.9608 H       
  52 H52           -5.4687     8.1567    -0.8191 H       
  53 H53           -6.2353     6.8167     0.0669 H       
@<TRIPOS>BOND
   1    1    7 ar
   2    1    6 ar
   3    1    2 ar
   4    2    3 ar
   5    2   10 ar
   6    3   11 1
   7    3    4 ar
   8    4    5 ar
   9    4   29 1
  10    5   15 1
  11    5    6 ar
  12    7    8 ar
  13    7   30 1
  14    8    9 ar
  15    8   18 1
  16    9   10 ar
  17    9   31 1
  18   10   32 1
  19   11   12 1
  20   11   14 1
  21   11   33 1
  22   12   13 1
  23   12   34 1
  24   12   35 1
  25   13   26 1
  26   13   36 1
  27   13   37 1
  28   14   27 1
  29   14   38 1
  30   14   39 1
  31   15   16 am
  32   15   17 2
  33   16   40 1
  34   16   41 1
  35   18   19 1
  36   18   42 1
  37   18   43 1
  38   19   20 am
  39   19   23 am
  40   20   21 1
  41   20   24 2
  42   21   22 1
  43   21   44 1
  44   21   45 1
  45   22   23 1
  46   22   46 1
  47   22   47 1
  48   23   25 2
  49   26   27 1
  50   26   28 1
  51   26   48 1
  52   27   49 1
  53   27   50 1
  54   28   51 1
  55   28   52 1
  56   28   53 1

#	End of record

