#	Name: ASD05430420
#	Creating user name:	WinNT
#	Creation time:	15. 06. 2019 21:00

#	Modifying user name:	WinNT
#	Modification time:	15. 06. 2019 21:00

#	Program:	/corina/corina34_cracker 3.40 0067  02.08.2006

@<TRIPOS>MOLECULE
ASD05430420
  62   66    0    0    0
SMALL
NO_CHARGES


@<TRIPOS>ATOM
   1 C1            -0.1258     1.0946    -0.5091 C.ar    
   2 C2            -0.0156    -0.0175     0.3264 C.ar    
   3 C3            -1.1107    -0.4463     1.0670 C.ar    
   4 C4            -2.3103     0.2240     0.9798 C.ar    
   5 C5            -2.4288     1.3409     0.1436 C.ar    
   6 C6            -1.3240     1.7758    -0.5979 C.ar    
   7 C7            -4.8659     1.3645    -0.0466 C.2     
   8 C8            -3.7079     2.0574     0.0485 C.2     
   9 O9             0.9479     1.5110    -1.2316 O.3     
  10 C10            1.8547    -1.0527     1.5722 C.2     
  11 N11            1.2011    -0.7035     0.4185 N.pl3   
  12 C12            2.9792    -1.6955     1.2040 C.2     
  13 N13            3.0165    -1.7405    -0.1361 N.2     
  14 C14            1.9573    -1.1498    -0.6184 C.2     
  15 C15            4.0168    -2.2655     2.1365 C.3     
  16 C16           -4.8036    -0.1211    -0.2197 C.3     
  17 C17           -6.1749    -0.7345    -0.4629 C.3     
  18 C18           -7.2387    -0.0545     0.3982 C.3     
  19 N19           -7.2663     1.3736     0.0809 N.pl3   
  20 C20           -6.0865     2.0694     0.0268 C.2     
  21 C21           -8.5298     2.0606    -0.2007 C.3     
  22 C22           -8.5159     3.4114     0.5263 C.3     
  23 C23           -7.1985     4.0947     0.2638 C.2     
  24 N24           -6.0907     3.3963     0.0669 N.2     
  25 O25           -7.1515     5.3092     0.2373 O.2     
  26 C26            0.7637     2.6563    -2.0661 C.3     
  27 C27           -8.6668     2.2839    -1.6848 C.ar    
  28 C28           -9.8940     2.1144    -2.2984 C.ar    
  29 C29          -10.0209     2.3193    -3.6592 C.ar    
  30 C30           -8.9183     2.6945    -4.4081 C.ar    
  31 C31           -7.6898     2.8639    -3.7924 C.ar    
  32 C32           -7.5664     2.6635    -2.4306 C.ar    
  33 F33           -9.0411     2.8946    -5.7385 F       
  34 C34           -9.6588     4.2851     0.0055 C.3     
  35 O35           -9.7166     5.4953     0.7633 O.3     
  36 H36           -1.0206    -1.3075     1.7124 H       
  37 H37           -3.1597    -0.1120     1.5560 H       
  38 H38           -1.4106     2.6367    -1.2442 H       
  39 H39           -3.7237     3.1372     0.0546 H       
  40 H40            1.5319    -0.8476     2.5822 H       
  41 H41            1.7214    -1.0350    -1.6660 H       
  42 H42            3.7611    -3.2972     2.3776 H       
  43 H43            4.9939    -2.2365     1.6541 H       
  44 H44            4.0460    -1.6749     3.0522 H       
  45 H45           -4.1586    -0.3509    -1.0678 H       
  46 H46           -4.3733    -0.5634     0.6787 H       
  47 H47           -6.4376    -0.6187    -1.5144 H       
  48 H48           -6.1408    -1.7961    -0.2180 H       
  49 H49           -8.2138    -0.4939     0.1878 H       
  50 H50           -6.9958    -0.1895     1.4522 H       
  51 H51           -9.3638     1.4582     0.1593 H       
  52 H52           -8.6365     3.2505     1.5976 H       
  53 H53            1.6953     2.8811    -2.5854 H       
  54 H54           -0.0191     2.4516    -2.7964 H       
  55 H55            0.4744     3.5098    -1.4529 H       
  56 H56          -10.7537     1.8215    -1.7141 H       
  57 H57          -10.9796     2.1865    -4.1384 H       
  58 H58           -6.8291     3.1564    -4.3756 H       
  59 H59           -6.6082     2.7956    -1.9502 H       
  60 H60           -9.4860     4.5218    -1.0443 H       
  61 H61          -10.6019     3.7479     0.1064 H       
  62 H62          -10.4198     6.0990     0.4874 H       
@<TRIPOS>BOND
   1    1    2 ar
   2    1    9 1
   3    1    6 ar
   4    2    3 ar
   5    2   11 1
   6    3    4 ar
   7    3   36 1
   8    4    5 ar
   9    4   37 1
  10    5    6 ar
  11    5    8 1
  12    6   38 1
  13    7    8 2
  14    7   16 1
  15    7   20 1
  16    8   39 1
  17    9   26 1
  18   10   11 1
  19   10   12 2
  20   10   40 1
  21   11   14 1
  22   12   13 1
  23   12   15 1
  24   13   14 2
  25   14   41 1
  26   15   42 1
  27   15   43 1
  28   15   44 1
  29   16   17 1
  30   16   45 1
  31   16   46 1
  32   17   18 1
  33   17   47 1
  34   17   48 1
  35   18   19 1
  36   18   49 1
  37   18   50 1
  38   19   20 1
  39   19   21 1
  40   20   24 2
  41   21   22 1
  42   21   27 1
  43   21   51 1
  44   22   23 1
  45   22   34 1
  46   22   52 1
  47   23   24 1
  48   23   25 2
  49   26   53 1
  50   26   54 1
  51   26   55 1
  52   27   28 ar
  53   27   32 ar
  54   28   29 ar
  55   28   56 1
  56   29   30 ar
  57   29   57 1
  58   30   31 ar
  59   30   33 1
  60   31   32 ar
  61   31   58 1
  62   32   59 1
  63   34   35 1
  64   34   60 1
  65   34   61 1
  66   35   62 1

#	End of record

