#	Name: ASD01200169
#	Creating user name:	WinNT
#	Creation time:	15. 06. 2019 19:08

#	Modifying user name:	WinNT
#	Modification time:	15. 06. 2019 19:08

#	Program:	/corina/corina34_cracker 3.40 0067  02.08.2006

@<TRIPOS>MOLECULE
ASD01200169
  60   62    0    0    0
SMALL
NO_CHARGES


@<TRIPOS>ATOM
   1 C1            -0.0168     1.3858     0.0097 C.2     
   2 N2             0.0021    -0.0041     0.0020 N.am    
   3 C3            -1.1558    -0.6938     0.0094 C.2     
   4 C4            -1.1354    -2.2006     0.0011 C.3     
   5 S5            -2.8372    -2.8285     0.0140 S.3     
   6 C6            -2.6083    -4.6280     0.0021 C.3     
   7 N7            -3.8620    -5.3005     0.3673 N.am    
   8 C8            -4.2232    -6.0703    -0.6764 C.2     
   9 C9            -3.2411    -5.9422    -1.7579 C.2     
  10 C10           -2.2776    -5.1021    -1.3940 C.2     
  11 C11           -3.3132    -6.6564    -3.0830 C.3     
  12 C12           -1.0817    -4.6988    -2.2176 C.3     
  13 O13           -5.2177    -6.7692    -0.7165 O.2     
  14 C14           -4.5858    -5.1593     1.6332 C.3     
  15 C15           -5.5740    -4.0269     1.5232 C.ar    
  16 C16           -6.8606    -4.2742     1.0813 C.ar    
  17 C17           -7.7684    -3.2378     0.9796 C.ar    
  18 C18           -7.3881    -1.9481     1.3212 C.ar    
  19 C19           -6.0966    -1.7027     1.7643 C.ar    
  20 C20           -5.1943    -2.7434     1.8697 C.ar    
  21 O21           -8.2792    -0.9269     1.2216 O.3     
  22 C22           -7.8183     0.3745     1.5903 C.3     
  23 O23           -2.2142    -0.1017     0.0227 O.2     
  24 N24            1.0355     2.1426     0.0037 N.2     
  25 C25            0.8336     3.4470     0.0126 C.2     
  26 C26           -0.4506     3.8094     0.0268 C.2     
  27 S27           -1.4314     2.3459     0.0209 S.3     
  28 C28            1.9618     4.4459     0.0077 C.3     
  29 C29            2.8891     4.1621     1.1612 C.2     
  30 O30            3.9723     4.9304     1.3563 O.3     
  31 C31            4.8208     4.5988     2.4870 C.3     
  32 C32            5.9958     5.5769     2.5471 C.3     
  33 O33            2.6576     3.2429     1.9104 O.2     
  34 F34            5.5102     6.8806     2.6949 F       
  35 F35            6.8132     5.2574     3.6366 F       
  36 F36            6.7383     5.4871     1.3648 F       
  37 H37            0.8486    -0.4776    -0.0086 H       
  38 H38           -0.6252    -2.5521    -0.8957 H       
  39 H39           -0.6082    -2.5617     0.8841 H       
  40 H40           -1.8149    -4.9102     0.6941 H       
  41 H41           -4.2066    -7.2802    -3.1114 H       
  42 H42           -3.3560    -5.9236    -3.8888 H       
  43 H43           -2.4293    -7.2819    -3.2072 H       
  44 H44           -1.1166    -5.2065    -3.1815 H       
  45 H45           -1.0955    -3.6202    -2.3743 H       
  46 H46           -0.1681    -4.9781    -1.6927 H       
  47 H47           -5.1172    -6.0853     1.8530 H       
  48 H48           -3.8782    -4.9475     2.4347 H       
  49 H49           -7.1561    -5.2783     0.8151 H       
  50 H50           -8.7732    -3.4314     0.6340 H       
  51 H51           -5.7982    -0.6995     2.0309 H       
  52 H52           -4.1887    -2.5528     2.2145 H       
  53 H53           -8.6262     1.0953     1.4644 H       
  54 H54           -7.4989     0.3651     2.6325 H       
  55 H55           -6.9782     0.6558     0.9554 H       
  56 H56           -0.8236     4.8229     0.0362 H       
  57 H57            2.5129     4.3670    -0.9294 H       
  58 H58            1.5561     5.4527     0.1069 H       
  59 H59            4.2423     4.6688     3.4082 H       
  60 H60            5.1991     3.5831     2.3719 H       
@<TRIPOS>BOND
   1    1    2 1
   2    1   24 2
   3    1   27 1
   4    2    3 am
   5    2   37 1
   6    3    4 1
   7    3   23 2
   8    4    5 1
   9    4   38 1
  10    4   39 1
  11    5    6 1
  12    6    7 1
  13    6   10 1
  14    6   40 1
  15    7    8 am
  16    7   14 1
  17    8    9 1
  18    8   13 2
  19    9   10 2
  20    9   11 1
  21   10   12 1
  22   11   41 1
  23   11   42 1
  24   11   43 1
  25   12   44 1
  26   12   45 1
  27   12   46 1
  28   14   15 1
  29   14   47 1
  30   14   48 1
  31   15   16 ar
  32   15   20 ar
  33   16   17 ar
  34   16   49 1
  35   17   18 ar
  36   17   50 1
  37   18   19 ar
  38   18   21 1
  39   19   20 ar
  40   19   51 1
  41   20   52 1
  42   21   22 1
  43   22   53 1
  44   22   54 1
  45   22   55 1
  46   24   25 1
  47   25   26 2
  48   25   28 1
  49   26   27 1
  50   26   56 1
  51   28   29 1
  52   28   57 1
  53   28   58 1
  54   29   30 1
  55   29   33 2
  56   30   31 1
  57   31   32 1
  58   31   59 1
  59   31   60 1
  60   32   34 1
  61   32   35 1
  62   32   36 1

#	End of record

