#	Name: ASD03331530
#	Creating user name:	WinNT
#	Creation time:	15. 06. 2019 20:39

#	Modifying user name:	WinNT
#	Modification time:	15. 06. 2019 20:39

#	Program:	/corina/corina34_cracker 3.40 0067  02.08.2006

@<TRIPOS>MOLECULE
ASD03331530
  55   57    0    0    0
SMALL
NO_CHARGES


@<TRIPOS>ATOM
   1 C1             2.3890     1.4151    -0.0171 C.ar    
   2 C2             2.4161     0.0361    -0.0239 C.ar    
   3 C3             1.2207    -0.6838    -0.0132 C.ar    
   4 C4             0.0024    -0.0042     0.0042 C.ar    
   5 C5            -0.0146     1.3770     0.0108 C.ar    
   6 C6             1.1776     2.0871     0.0002 C.ar    
   7 C7             1.2452    -2.1628    -0.0209 C.2     
   8 N8             2.2972    -2.9399    -0.4146 N.pl3   
   9 C9             1.9136    -4.2370    -0.2836 C.2     
  10 C10            0.6413    -4.2338     0.2021 C.2     
  11 N11            0.2621    -2.9462     0.3546 N.2     
  12 C12            3.6043    -2.4684    -0.8808 C.3     
  13 C13            4.2137    -3.5080    -1.8242 C.3     
  14 C14            5.0375    -4.5154    -1.0237 C.3     
  15 C15            4.1512    -5.2616    -0.0314 C.3     
  16 C16            2.7519    -5.4395    -0.6290 C.3     
  17 C17           -0.1741    -5.4219     0.5103 C.2     
  18 O18            0.2823    -6.5352     0.3332 O.2     
  19 N19           -1.4256    -5.2748     0.9884 N.am    
  20 F20            1.1569     3.4379     0.0063 F       
  21 F21           -1.1932     2.0372     0.0277 F       
  22 C22           -2.2362    -6.4560     1.2948 C.3     
  23 C23           -3.6976    -6.0979     1.2108 C.2     
  24 C24           -0.4276    -7.3086     2.7929 C.3     
  25 N25           -4.6360    -7.0340     1.4552 N.am    
  26 O26           -4.0294    -4.9673     0.9234 O.2     
  27 C27           -6.0567    -6.6859     1.3736 C.3     
  28 C28           -1.9113    -6.9450     2.7077 C.3     
  29 C29           -2.2236    -5.8369     3.7153 C.3     
  30 H30            3.3142     1.9722    -0.0208 H       
  31 H31            3.3614    -0.4860    -0.0377 H       
  32 H32           -0.9255    -0.5569     0.0121 H       
  33 H33            3.4820    -1.5239    -1.4110 H       
  34 H34            4.2642    -2.3225    -0.0256 H       
  35 H35            3.4156    -4.0304    -2.3516 H       
  36 H36            4.8572    -3.0074    -2.5477 H       
  37 H37            5.4948    -5.2309    -1.7071 H       
  38 H38            5.8221    -3.9886    -0.4805 H       
  39 H39            4.5838    -6.2399     0.1779 H       
  40 H40            4.0809    -4.6901     0.8941 H       
  41 H41            2.2904    -6.3365    -0.2161 H       
  42 H42            2.8273    -5.5323    -1.7124 H       
  43 H43           -1.7896    -4.3869     1.1296 H       
  44 H44           -2.0138    -7.2455     0.5769 H       
  45 H45            0.1755    -6.4298     2.5649 H       
  46 H46           -0.1961    -7.6570     3.7994 H       
  47 H47           -0.2051    -8.0981     2.0750 H       
  48 H48           -4.3706    -7.9382     1.6851 H       
  49 H49           -6.6598    -7.5647     1.6016 H       
  50 H50           -6.2791    -5.8964     2.0915 H       
  51 H51           -6.2881    -6.3375     0.3670 H       
  52 H52           -2.5144    -7.8239     2.9356 H       
  53 H53           -3.2806    -5.5778     3.6546 H       
  54 H54           -1.9921    -6.1853     4.7219 H       
  55 H55           -1.6204    -4.9580     3.4873 H       
@<TRIPOS>BOND
   1    1    2 ar
   2    1    6 ar
   3    1   30 1
   4    2    3 ar
   5    2   31 1
   6    3    4 ar
   7    3    7 1
   8    4    5 ar
   9    4   32 1
  10    5    6 ar
  11    5   21 1
  12    6   20 1
  13    7    8 1
  14    7   11 2
  15    8    9 1
  16    8   12 1
  17    9   10 2
  18    9   16 1
  19   10   11 1
  20   10   17 1
  21   12   13 1
  22   12   33 1
  23   12   34 1
  24   13   14 1
  25   13   35 1
  26   13   36 1
  27   14   15 1
  28   14   37 1
  29   14   38 1
  30   15   16 1
  31   15   39 1
  32   15   40 1
  33   16   41 1
  34   16   42 1
  35   17   18 2
  36   17   19 am
  37   19   22 1
  38   19   43 1
  39   22   28 1
  40   22   23 1
  41   22   44 1
  42   23   25 am
  43   23   26 2
  44   24   28 1
  45   24   45 1
  46   24   46 1
  47   24   47 1
  48   25   27 1
  49   25   48 1
  50   27   49 1
  51   27   50 1
  52   27   51 1
  53   28   29 1
  54   28   52 1
  55   29   53 1
  56   29   54 1
  57   29   55 1

#	End of record

