#	Name: ASD04880032
#	Creating user name:	WinNT
#	Creation time:	15. 06. 2019 20:52

#	Modifying user name:	WinNT
#	Modification time:	15. 06. 2019 20:52

#	Program:	/corina/corina34_cracker 3.40 0067  02.08.2006

@<TRIPOS>MOLECULE
ASD04880032
  34   36    0    0    0
SMALL
NO_CHARGES


@<TRIPOS>ATOM
   1 C1            -0.0144     1.2117     0.0087 C.2     
   2 O2             0.0480    -0.0024     0.0311 O.2     
   3 N3             1.1159     1.9436    -0.0478 N.am    
   4 N4             1.1786     3.3283    -0.1900 N.2     
   5 C5             2.3767     3.8009    -0.2177 C.2     
   6 C6             3.3696     2.6686    -0.0829 C.3     
   7 C7             2.4853     1.4116     0.0371 C.3     
   8 C8             3.3605     7.8168    -0.6152 C.ar    
   9 N9             2.0885     7.4699    -0.6016 N.ar    
  10 C10            1.7299     6.2042    -0.4774 C.ar    
  11 C11            2.7260     5.2267    -0.3591 C.ar    
  12 C12            4.0634     5.6422    -0.3785 C.ar    
  13 N13            4.3304     6.9300    -0.5067 N.ar    
  14 C14            3.7176     9.2731    -0.7655 C.3     
  15 C15           -1.3299     1.8847     0.0373 C.ar    
  16 C16           -1.4041     3.2736     0.1560 C.ar    
  17 C17           -2.6373     3.8961     0.1821 C.ar    
  18 C18           -3.7977     3.1436     0.0911 C.ar    
  19 C19           -3.7288     1.7673    -0.0267 C.ar    
  20 C20           -2.5031     1.1346    -0.0601 C.ar    
  21 F21           -2.7122     5.2401     0.2970 F       
  22 H22            4.0050     2.6100    -0.9667 H       
  23 H23            3.9735     2.7945     0.8157 H       
  24 H24            2.6461     0.9175     0.9952 H       
  25 H25            2.6822     0.7260    -0.7871 H       
  26 H26            0.6858     5.9280    -0.4669 H       
  27 H27            4.8633     4.9220    -0.2899 H       
  28 H28            3.7845     9.7344     0.2198 H       
  29 H29            4.6778     9.3612    -1.2739 H       
  30 H30            2.9488     9.7771    -1.3512 H       
  31 H31           -0.5000     3.8600     0.2277 H       
  32 H32           -4.7597     3.6340     0.1126 H       
  33 H33           -4.6367     1.1867    -0.0972 H       
  34 H34           -2.4515     0.0602    -0.1570 H       
@<TRIPOS>BOND
   1    1    2 2
   2    1    3 am
   3    1   15 1
   4    3    4 1
   5    3    7 1
   6    4    5 2
   7    5    6 1
   8    5   11 1
   9    6    7 1
  10    6   22 1
  11    6   23 1
  12    7   24 1
  13    7   25 1
  14    8    9 ar
  15    8   13 ar
  16    8   14 1
  17    9   10 ar
  18   10   11 ar
  19   10   26 1
  20   11   12 ar
  21   12   13 ar
  22   12   27 1
  23   14   28 1
  24   14   29 1
  25   14   30 1
  26   15   16 ar
  27   15   20 ar
  28   16   17 ar
  29   16   31 1
  30   17   18 ar
  31   17   21 1
  32   18   19 ar
  33   18   32 1
  34   19   20 ar
  35   19   33 1
  36   20   34 1

#	End of record

