#	Name: ASD07300856
#	Creating user name:	WinNT
#	Creation time:	15. 06. 2019 21:10

#	Modifying user name:	WinNT
#	Modification time:	15. 06. 2019 21:10

#	Program:	/corina/corina34_cracker 3.40 0067  02.08.2006

@<TRIPOS>MOLECULE
ASD07300856
  44   48    0    0    0
SMALL
NO_CHARGES


@<TRIPOS>ATOM
   1 N1            -0.0274     1.3781     0.1553 N.am    
   2 C2            -0.0008     0.0278     0.0243 C.2     
   3 N3             1.1013    -0.6510    -0.1047 N.2     
   4 C4             2.3038    -0.0544    -0.1177 C.2     
   5 C5             2.3767     1.3415     0.0115 C.2     
   6 C6             1.1261     2.0865     0.1559 C.2     
   7 N7             3.5814    -0.5004    -0.2346 N.pl3   
   8 N8             4.4400     0.6047    -0.1790 N.2     
   9 C9             3.7382     1.6947    -0.0340 C.2     
  10 O10            1.1228     3.2993     0.2715 O.2     
  11 C11            3.9912    -1.8982    -0.3916 C.3     
  12 C12            4.6472    -2.0890    -1.7626 C.3     
  13 C13            5.1424    -3.5323    -1.8862 C.3     
  14 O14            6.0544    -3.8143    -0.8228 O.3     
  15 C15            5.4832    -3.6983     0.4819 C.3     
  16 C16            5.0017    -2.2616     0.7007 C.3     
  17 C17           -1.3090    -0.7204     0.0290 C.3     
  18 C18           -1.8260    -1.0484     1.4397 C.3     
  19 C19           -2.2509    -2.4165     0.8804 C.3     
  20 C20           -1.1527    -2.2358    -0.1807 C.3     
  21 C21           -0.7365    -1.1325     2.4775 C.2     
  22 O22           -0.5817    -0.2997     3.5154 O.3     
  23 C23            0.5008    -0.7038     4.2086 C.2     
  24 C24            0.9928    -1.7837     3.5791 C.2     
  25 N25            0.2065    -2.0302     2.5164 N.2     
  26 H26           -0.8767     1.8380     0.2449 H       
  27 H27            4.1343     2.6968     0.0386 H       
  28 H28            3.1177    -2.5453    -0.3120 H       
  29 H29            3.9179    -1.8857    -2.5467 H       
  30 H30            5.4900    -1.4050    -1.8615 H       
  31 H31            4.2939    -4.2140    -1.8277 H       
  32 H32            5.6481    -3.6624    -2.8430 H       
  33 H33            4.6392    -4.3822     0.5714 H       
  34 H34            6.2345    -3.9479     1.2312 H       
  35 H35            5.8517    -1.5811     0.6516 H       
  36 H36            4.5260    -2.1818     1.6782 H       
  37 H37           -2.0598    -0.2641    -0.6161 H       
  38 H38           -2.6637    -0.4257     1.7534 H       
  39 H39           -2.0652    -3.2446     1.5644 H       
  40 H40           -3.2597    -2.4252     0.4677 H       
  41 H41           -1.4469    -2.5716    -1.1751 H       
  42 H42           -0.1806    -2.6212     0.1269 H       
  43 H43            0.8983    -0.2455     5.1021 H       
  44 H44            1.8608    -2.3538     3.8756 H       
@<TRIPOS>BOND
   1    1    2 1
   2    1    6 am
   3    1   26 1
   4    2    3 2
   5    2   17 1
   6    3    4 1
   7    4    5 2
   8    4    7 1
   9    5    6 1
  10    5    9 1
  11    6   10 2
  12    7    8 1
  13    7   11 1
  14    8    9 2
  15    9   27 1
  16   11   12 1
  17   11   16 1
  18   11   28 1
  19   12   13 1
  20   12   29 1
  21   12   30 1
  22   13   14 1
  23   13   31 1
  24   13   32 1
  25   14   15 1
  26   15   16 1
  27   15   33 1
  28   15   34 1
  29   16   35 1
  30   16   36 1
  31   17   18 1
  32   17   20 1
  33   17   37 1
  34   18   19 1
  35   18   21 1
  36   18   38 1
  37   19   20 1
  38   19   39 1
  39   19   40 1
  40   20   41 1
  41   20   42 1
  42   21   22 1
  43   21   25 2
  44   22   23 1
  45   23   24 2
  46   23   43 1
  47   24   25 1
  48   24   44 1

#	End of record

