#	Name: ASD01040036
#	Creating user name:	WinNT
#	Creation time:	15. 06. 2019 18:58

#	Modifying user name:	WinNT
#	Modification time:	15. 06. 2019 18:58

#	Program:	/corina/corina34_cracker 3.40 0067  02.08.2006

@<TRIPOS>MOLECULE
ASD01040036
  50   53    0    0    0
SMALL
NO_CHARGES


@<TRIPOS>ATOM
   1 C1             0.2141     1.7352    -0.1128 C.3     
   2 C2             0.6075     0.2875    -0.3782 C.3     
   3 C3             1.1059    -0.4121     0.8802 C.3     
   4 C4             0.1696    -0.2219     2.0636 C.3     
   5 C5            -1.1736    -0.9129     1.8486 C.3     
   6 C6            -1.9760    -0.2768     0.7203 C.3     
   7 C7            -2.0666     1.2382     0.8546 C.3     
   8 C8            -0.7028     1.8799     1.0919 C.3     
   9 C9            -0.0686     1.2629     2.3385 C.3     
  10 C10            1.2348     1.9680     2.6934 C.3     
  11 C11            0.9613     3.4263     2.9571 C.ar    
  12 C12            1.8275     1.3370     3.9269 C.ar    
  13 C13            3.1429     0.9111     3.9201 C.ar    
  14 C14            3.6903     0.3375     5.0514 C.ar    
  15 C15            2.9191     0.1891     6.1949 C.ar    
  16 C16            1.5995     0.6173     6.1992 C.ar    
  17 C17            1.0568     1.1903     5.0654 C.ar    
  18 C18            1.6948     4.3961     2.2989 C.ar    
  19 C19            1.4460     5.7336     2.5389 C.ar    
  20 C20            0.4592     6.1034     3.4412 C.ar    
  21 C21           -0.2754     5.1284     4.1003 C.ar    
  22 C22           -0.0266     3.7923     3.8526 C.ar    
  23 O23            0.2129     7.4185     3.6793 O.3     
  24 O24            3.4551    -0.3752     7.3090 O.3     
  25 H25            1.1139     2.3408     0.0206 H       
  26 H26           -0.3069     2.1239    -1.0007 H       
  27 H27           -0.1839    -0.2645    -0.8609 H       
  28 H28            1.4497     0.3030    -1.1009 H       
  29 H29            1.1936    -1.4886     0.6698 H       
  30 H30            2.1075    -0.0519     1.1274 H       
  31 H31            0.6424    -0.6612     2.9562 H       
  32 H32           -0.9993    -1.9688     1.6156 H       
  33 H33           -1.7540    -0.8629     2.7760 H       
  34 H34           -1.6129    -0.5749    -0.2510 H       
  35 H35           -3.0105    -0.6742     0.7896 H       
  36 H36           -2.5039     1.6552    -0.0589 H       
  37 H37           -2.7292     1.4868     1.6904 H       
  38 H38           -0.8577     2.9532     1.2852 H       
  39 H39           -0.7684     1.3594     3.1756 H       
  40 H40            1.9362     1.8740     1.8644 H       
  41 H41            3.7428     1.0265     3.0295 H       
  42 H42            4.7177     0.0047     5.0454 H       
  43 H43            0.9969     0.5026     7.0881 H       
  44 H44            0.0308     1.5275     5.0695 H       
  45 H45            2.4631     4.1077     1.5968 H       
  46 H46            2.0195     6.4907     2.0247 H       
  47 H47           -1.0441     5.4138     4.8032 H       
  48 H48           -0.5981     3.0330     4.3655 H       
  49 H49           -0.4531     7.8060     3.0950 H       
  50 H50            3.8701     0.2585     7.9101 H       
@<TRIPOS>BOND
   1    1    2 1
   2    1   25 1
   3    1   26 1
   4    1    8 1
   5    2   27 1
   6    2   28 1
   7    2    3 1
   8    3   29 1
   9    3   30 1
  10    3    4 1
  11    4    5 1
  12    4   31 1
  13    4    9 1
  14    5    6 1
  15    5   32 1
  16    5   33 1
  17    6    7 1
  18    6   34 1
  19    6   35 1
  20    7   36 1
  21    7   37 1
  22    7    8 1
  23    8   38 1
  24    8    9 1
  25    9   39 1
  26    9   10 1
  27   10   11 1
  28   10   40 1
  29   10   12 1
  30   11   18 ar
  31   11   22 ar
  32   12   17 ar
  33   12   13 ar
  34   13   41 1
  35   13   14 ar
  36   14   15 ar
  37   14   42 1
  38   15   16 ar
  39   15   24 1
  40   16   17 ar
  41   16   43 1
  42   17   44 1
  43   18   19 ar
  44   18   45 1
  45   19   46 1
  46   19   20 ar
  47   20   23 1
  48   20   21 ar
  49   21   47 1
  50   21   22 ar
  51   22   48 1
  52   23   49 1
  53   24   50 1

#	End of record

