#	Name: ASD01700009
#	Creating user name:	WinNT
#	Creation time:	15. 06. 2019 19:22

#	Modifying user name:	WinNT
#	Modification time:	15. 06. 2019 19:22

#	Program:	/corina/corina34_cracker 3.40 0067  02.08.2006

@<TRIPOS>MOLECULE
ASD01700009
  78   81    0    0    0
SMALL
NO_CHARGES


@<TRIPOS>ATOM
   1 N1             0.8748     2.7994     0.1983 N.am    
   2 C2             2.0202     2.2106     0.9119 C.3     
   3 C3             1.1665     3.6160    -0.9845 C.3     
   4 C4             2.2012     2.9243    -1.8373 C.ar    
   5 C5             2.9099     1.8291    -1.3915 C.ar    
   6 C6             2.7004     1.2189    -0.0303 C.3     
   7 C7             2.4287     3.4302    -3.1112 C.ar    
   8 C8             3.3648     2.8528    -3.9419 C.ar    
   9 C9             4.0933     1.7471    -3.4955 C.ar    
  10 C10            3.8592     1.2422    -2.2170 C.ar    
  11 Cl11           4.7603    -0.1307    -1.6541 Cl      
  12 Cl12           3.6363     3.4944    -5.5320 Cl      
  13 C13            5.1029     1.1181    -4.3710 C.2     
  14 N14            4.7652     0.0637    -5.1396 N.am    
  15 O15            6.2384     1.5514    -4.3984 O.2     
  16 C16            5.7352    -0.4938    -6.0854 C.3     
  17 C17            5.6463     0.2501    -7.3930 C.2     
  18 C18            5.4270    -1.9741    -6.3189 C.3     
  19 C19            5.6439    -2.7402    -5.0394 C.ar    
  20 C20            4.5767    -3.0018    -4.2011 C.ar    
  21 C21            6.9096    -3.1864    -4.7069 C.ar    
  22 C22            7.1086    -3.8890    -3.5335 C.ar    
  23 C23            6.0420    -4.1453    -2.6919 C.ar    
  24 C24            4.7757    -3.7046    -3.0273 C.ar    
  25 O25            4.8541     1.1533    -7.5216 O.2     
  26 O26            6.4473    -0.0906    -8.4148 O.3     
  27 C27            6.3069     0.6691    -9.6442 C.3     
  28 C28            7.2799     0.1483   -10.6704 C.ar    
  29 C29            6.9023    -0.8683   -11.5276 C.ar    
  30 C30            7.7948    -1.3460   -12.4689 C.ar    
  31 C31            9.0648    -0.8068   -12.5533 C.ar    
  32 C32            9.4422     0.2105   -11.6967 C.ar    
  33 C33            8.5482     0.6911   -10.7583 C.ar    
  34 S34            8.7214    -4.4585    -3.1103 S.o2    
  35 O35            8.4876    -5.5861    -2.2776 O.2     
  36 O36            9.3838    -4.5955    -4.3600 O.2     
  37 C37            9.4447    -3.0987    -2.1521 C.3     
  38 O38           -1.4183     3.1432    -0.0611 O.3     
  39 C39           -2.7544     2.8770     0.4413 C.3     
  40 C40           -2.8739     3.3995     1.8743 C.3     
  41 C41           -3.7827     3.5815    -0.4459 C.3     
  42 C42           -3.0144     1.3693     0.4249 C.3     
  43 C43           -0.3910     2.5916     0.6120 C.2     
  44 O44           -0.6050     1.9064     1.5924 O.2     
  45 H45            2.7232     2.9952     1.1917 H       
  46 H46            1.6713     1.6914     1.8046 H       
  47 H47            0.2535     3.7551    -1.5634 H       
  48 H48            1.5469     4.5877    -0.6695 H       
  49 H49            3.6660     0.9331     0.3868 H       
  50 H50            2.0760     0.3308    -0.1279 H       
  51 H51            1.8654     4.2853    -3.4545 H       
  52 H52            3.8800    -0.3261    -5.0665 H       
  53 H53            6.7407    -0.3919    -5.6771 H       
  54 H54            4.3901    -2.0837    -6.6366 H       
  55 H55            6.0875    -2.3650    -7.0929 H       
  56 H56            3.5873    -2.6568    -4.4629 H       
  57 H57            7.7428    -2.9861    -5.3643 H       
  58 H58            6.1974    -4.6947    -1.7752 H       
  59 H59            3.9425    -3.9049    -2.3699 H       
  60 H60            5.2898     0.5643   -10.0219 H       
  61 H61            6.5148     1.7208    -9.4472 H       
  62 H62            5.9100    -1.2896   -11.4616 H       
  63 H63            7.5000    -2.1408   -13.1381 H       
  64 H64            9.7624    -1.1805   -13.2883 H       
  65 H65           10.4346     0.6315   -11.7625 H       
  66 H66            8.8430     1.4859   -10.0891 H       
  67 H67            8.8343    -2.9119    -1.2686 H       
  68 H68           10.4554    -3.3678    -1.8452 H       
  69 H69            9.4791    -2.1992    -2.7668 H       
  70 H70           -2.6887     4.4736     1.8860 H       
  71 H71           -3.8768     3.1996     2.2515 H       
  72 H72           -2.1413     2.8976     2.5064 H       
  73 H73           -3.6975     3.2093    -1.4668 H       
  74 H74           -4.7856     3.3817    -0.0687 H       
  75 H75           -3.5974     4.6556    -0.4342 H       
  76 H76           -2.2818     0.8674     1.0569 H       
  77 H77           -4.0173     1.1694     0.8020 H       
  78 H78           -2.9292     0.9970    -0.5961 H       
@<TRIPOS>BOND
   1    1    2 1
   2    1    3 1
   3    1   43 am
   4    2    6 1
   5    2   45 1
   6    2   46 1
   7    3    4 1
   8    3   47 1
   9    3   48 1
  10    4    5 ar
  11    4    7 ar
  12    5    6 1
  13    5   10 ar
  14    6   49 1
  15    6   50 1
  16    7    8 ar
  17    7   51 1
  18    8    9 ar
  19    8   12 1
  20    9   10 ar
  21    9   13 1
  22   10   11 1
  23   13   14 am
  24   13   15 2
  25   14   16 1
  26   14   52 1
  27   16   17 1
  28   16   18 1
  29   16   53 1
  30   17   25 2
  31   17   26 1
  32   18   19 1
  33   18   54 1
  34   18   55 1
  35   19   20 ar
  36   19   21 ar
  37   20   24 ar
  38   20   56 1
  39   21   22 ar
  40   21   57 1
  41   22   23 ar
  42   22   34 1
  43   23   24 ar
  44   23   58 1
  45   24   59 1
  46   26   27 1
  47   27   28 1
  48   27   60 1
  49   27   61 1
  50   28   29 ar
  51   28   33 ar
  52   29   30 ar
  53   29   62 1
  54   30   31 ar
  55   30   63 1
  56   31   32 ar
  57   31   64 1
  58   32   33 ar
  59   32   65 1
  60   33   66 1
  61   34   35 2
  62   34   36 2
  63   34   37 1
  64   37   67 1
  65   37   68 1
  66   37   69 1
  67   38   39 1
  68   38   43 1
  69   39   40 1
  70   39   41 1
  71   39   42 1
  72   40   70 1
  73   40   71 1
  74   40   72 1
  75   41   73 1
  76   41   74 1
  77   41   75 1
  78   42   76 1
  79   42   77 1
  80   42   78 1
  81   43   44 2

#	End of record

