#	Name: ASD01913009
#	Creating user name:	WinNT
#	Creation time:	15. 06. 2019 20:00

#	Modifying user name:	WinNT
#	Modification time:	15. 06. 2019 20:00

#	Program:	/corina/corina34_cracker 3.40 0067  02.08.2006

@<TRIPOS>MOLECULE
ASD01913009
  36   38    0    0    0
SMALL
NO_CHARGES


@<TRIPOS>ATOM
   1 C1            -0.0173     1.4278     0.0099 C.2     
   2 C2             0.0021    -0.0041     0.0020 C.1     
   3 C3             0.0180    -1.1779    -0.0044 C.1     
   4 C4             0.0374    -2.6098    -0.0123 C.ar    
   5 C5            -1.1612    -3.3283    -0.0047 C.ar    
   6 C6             1.2547    -3.2952    -0.0335 C.ar    
   7 C7             1.2656    -4.6745    -0.0414 C.ar    
   8 C8             0.0750    -5.3792    -0.0285 C.ar    
   9 C9            -1.1347    -4.7070    -0.0129 C.ar    
  10 C10            1.0858     2.2640     0.0039 C.2     
  11 N11            0.6546     3.5300     0.0135 N.pl3   
  12 C12           -0.7351     3.5310     0.0275 C.2     
  13 C13           -1.1684     2.2521     0.0191 C.2     
  14 C14            1.4184     4.7818     0.0097 C.3     
  15 C15            0.6046     5.8632    -0.6996 C.3     
  16 N16           -0.7784     5.9171    -0.2426 N.am    
  17 C17           -1.4844     4.7969     0.0432 C.2     
  18 C18           -1.4244     7.2227    -0.0870 C.3     
  19 O19           -2.6736     4.8356     0.2985 O.2     
  20 C20            2.5775    -5.4157    -0.0647 C.3     
  21 H21           -2.1060    -2.8051     0.0078 H       
  22 H22            2.1848    -2.7464    -0.0439 H       
  23 H23            0.0896    -6.4591    -0.0348 H       
  24 H24           -2.0602    -5.2636    -0.0029 H       
  25 H25            2.1184     1.9480    -0.0068 H       
  26 H26           -2.1965     1.9212     0.0253 H       
  27 H27            1.6176     5.0902     1.0361 H       
  28 H28            2.3613     4.6317    -0.5161 H       
  29 H29            1.0727     6.8309    -0.5195 H       
  30 H30            0.6136     5.6642    -1.7713 H       
  31 H31           -1.9084     7.5024    -1.0228 H       
  32 H32           -2.1707     7.1666     0.7054 H       
  33 H33           -0.6748     7.9704     0.1721 H       
  34 H34            2.9088    -5.6002     0.9572 H       
  35 H35            2.4486    -6.3664    -0.5821 H       
  36 H36            3.3241    -4.8167    -0.5861 H       
@<TRIPOS>BOND
   1    1    2 1
   2    1   10 2
   3    1   13 1
   4    2    3 3
   5    3    4 1
   6    4    5 ar
   7    4    6 ar
   8    5    9 ar
   9    5   21 1
  10    6    7 ar
  11    6   22 1
  12    7    8 ar
  13    7   20 1
  14    8    9 ar
  15    8   23 1
  16    9   24 1
  17   10   11 1
  18   10   25 1
  19   11   12 1
  20   11   14 1
  21   12   13 2
  22   12   17 1
  23   13   26 1
  24   14   15 1
  25   14   27 1
  26   14   28 1
  27   15   16 1
  28   15   29 1
  29   15   30 1
  30   16   17 am
  31   16   18 1
  32   17   19 2
  33   18   31 1
  34   18   32 1
  35   18   33 1
  36   20   34 1
  37   20   35 1
  38   20   36 1

#	End of record

