#	Name: ASD03240317
#	Creating user name:	WinNT
#	Creation time:	15. 06. 2019 20:34

#	Modifying user name:	WinNT
#	Modification time:	15. 06. 2019 20:34

#	Program:	/corina/corina34_cracker 3.40 0067  02.08.2006

@<TRIPOS>MOLECULE
ASD03240317
 100  107    0    0    0
SMALL
NO_CHARGES


@<TRIPOS>ATOM
   1 C1            -0.0682     1.3661     3.5571 C.2     
   2 N2             0.3038     0.9162     4.8018 N.pl3   
   3 O3            -3.4080     3.4803     2.9705 O.2     
   4 C4            -3.2665     3.1830     4.1377 C.2     
   5 C5            -2.0656     2.3823     4.5711 C.3     
   6 N6            -1.2271     2.0902     3.4058 N.pl3   
   7 N7             0.6807     1.1109     2.5212 N.2     
   8 N8            -4.1833     3.5686     5.0472 N.am    
   9 C9            -5.2344     4.3995     4.6673 C.ar    
  10 C10           -6.4773     4.2955     5.3086 C.ar    
  11 C11           -7.5229     5.1259     4.9269 C.ar    
  12 C12           -7.3306     6.0591     3.9073 C.ar    
  13 C13           -6.0879     6.1554     3.2738 C.ar    
  14 C14           -5.0497     5.3352     3.6570 C.ar    
  15 C15           -8.4387     6.9437     3.4975 C.2     
  16 N16           -8.2526     7.8449     2.5127 N.am    
  17 O17           -9.5195     6.8594     4.0483 O.2     
  18 C18           -9.3349     8.5967     2.0377 C.ar    
  19 C19           -9.1271     9.8785     1.5455 C.ar    
  20 C20          -10.6148     8.0581     2.0537 C.ar    
  21 C21          -11.6815     8.7988     1.5852 C.ar    
  22 C22          -11.4745    10.0828     1.0977 C.ar    
  23 C23          -10.1936    10.6196     1.0773 C.ar    
  24 N24          -12.5552    10.8333     0.6225 N.pl3   
  25 C25          -12.3790    12.2532     0.3079 C.3     
  26 C26          -13.8632    10.1994     0.4395 C.3     
  27 C27           -6.6745     3.3015     6.3906 C.ar    
  28 C28           -7.2327     3.6956     7.6065 C.ar    
  29 C29           -7.4158     2.7719     8.6118 C.ar    
  30 C30           -7.0431     1.4427     8.4139 C.ar    
  31 C31           -6.4850     1.0485     7.1982 C.ar    
  32 C32           -6.3071     1.9709     6.1907 C.ar    
  33 C33          -14.2854    10.3257    -1.0016 C.ar    
  34 C34          -13.1158    13.0880     1.3234 C.ar    
  35 C35          -14.3111    13.6553     1.0049 C.ar    
  36 C36          -15.0070    14.4304     1.9309 C.ar    
  37 C37          -14.5114    14.6425     3.1805 C.ar    
  38 C38          -13.2800    14.0725     3.5461 C.ar    
  39 C39          -12.5749    13.2799     2.6063 C.ar    
  40 C40          -15.2702    11.1972    -1.3519 C.ar    
  41 C41          -15.6740    11.3278    -2.6795 C.ar    
  42 C42          -15.0953    10.5875    -3.6640 C.ar    
  43 C43          -14.0746     9.6772    -3.3407 C.ar    
  44 C44          -13.6603     9.5483    -1.9916 C.ar    
  45 C45          -13.4533     8.8957    -4.3299 C.ar    
  46 C46          -12.4682     8.0245    -3.9796 C.ar    
  47 C47          -12.0645     7.8939    -2.6520 C.ar    
  48 C48          -12.6396     8.6380    -1.6682 C.ar    
  49 C49          -12.7363    14.2691     4.8271 C.ar    
  50 C50          -11.5412    13.7014     5.1458 C.ar    
  51 C51          -10.8453    12.9264     4.2198 C.ar    
  52 C52          -11.3434    12.7099     2.9719 C.ar    
  53 C53           -7.2399     0.4484     9.4965 C.ar    
  54 C54           -6.8684    -0.8808     9.3016 C.ar    
  55 C55           -7.0534    -1.8016    10.3128 C.ar    
  56 C56           -7.6064    -1.4076    11.5180 C.ar    
  57 C57           -7.9770    -0.0898    11.7170 C.ar    
  58 C58           -7.7917     0.8408    10.7149 C.ar    
  59 H59            1.1235     0.4087     4.9091 H       
  60 H60           -0.2535     1.1062     5.5727 H       
  61 H61           -1.4902     2.9551     5.2983 H       
  62 H62           -2.3963     1.4477     5.0242 H       
  63 H63           -1.4895     2.4077     2.5276 H       
  64 H64            1.5003     0.6034     2.6285 H       
  65 H65           -4.1111     3.2673     5.9664 H       
  66 H66           -8.4821     5.0495     5.4174 H       
  67 H67           -5.9402     6.8781     2.4849 H       
  68 H68           -4.0916     5.4139     3.1648 H       
  69 H69           -7.3693     7.9728     2.1329 H       
  70 H70           -8.1311    10.2958     1.5292 H       
  71 H71          -10.7757     7.0595     2.4324 H       
  72 H72          -12.6768     8.3797     1.5973 H       
  73 H73          -10.0326    11.6180     0.6983 H       
  74 H74          -11.3181    12.5022     0.3338 H       
  75 H75          -12.7758    12.4570    -0.6867 H       
  76 H76          -13.7966     9.1449     0.7075 H       
  77 H77          -14.5976    10.6907     1.0777 H       
  78 H78           -7.5210     4.7250     7.7600 H       
  79 H79           -7.8477     3.0771     9.5534 H       
  80 H80           -6.1964     0.0191     7.0451 H       
  81 H81           -5.8752     1.6655     5.2491 H       
  82 H82          -14.7265    13.5028     0.0197 H       
  83 H83          -15.9536    14.8697     1.6525 H       
  84 H84          -15.0614    15.2460     3.8874 H       
  85 H85          -15.7461    11.7964    -0.5898 H       
  86 H86          -16.4582    12.0266    -2.9307 H       
  87 H87          -15.4190    10.6988    -4.6883 H       
  88 H88          -13.7564     8.9858    -5.3626 H       
  89 H89          -11.9925     7.4251    -4.7417 H       
  90 H90          -11.2808     7.1945    -2.4007 H       
  91 H91          -12.3162     8.5263    -0.6438 H       
  92 H92          -13.2641    14.8678     5.5547 H       
  93 H93          -11.1257    13.8541     6.1309 H       
  94 H94           -9.8983    12.4878     4.4979 H       
  95 H95          -10.7932    12.1068     2.2648 H       
  96 H96           -6.4368    -1.1896     8.3609 H       
  97 H97           -6.7662    -2.8318    10.1627 H       
  98 H98           -7.7497    -2.1317    12.3064 H       
  99 H99           -8.4082     0.2122    12.6600 H       
 100 H100          -8.0811     1.8694    10.8715 H       
@<TRIPOS>BOND
   1    1    2 1
   2    1    7 2
   3    1    6 1
   4    2   59 1
   5    2   60 1
   6    3    4 2
   7    4    5 1
   8    4    8 am
   9    5    6 1
  10    5   61 1
  11    5   62 1
  12    6   63 1
  13    7   64 1
  14    8    9 1
  15    8   65 1
  16    9   10 ar
  17    9   14 ar
  18   10   11 ar
  19   10   27 1
  20   11   12 ar
  21   11   66 1
  22   12   13 ar
  23   12   15 1
  24   13   14 ar
  25   13   67 1
  26   14   68 1
  27   15   16 am
  28   15   17 2
  29   16   18 1
  30   16   69 1
  31   18   19 ar
  32   18   20 ar
  33   19   23 ar
  34   19   70 1
  35   20   21 ar
  36   20   71 1
  37   21   22 ar
  38   21   72 1
  39   22   23 ar
  40   22   24 1
  41   23   73 1
  42   24   25 1
  43   24   26 1
  44   25   34 1
  45   25   74 1
  46   25   75 1
  47   26   33 1
  48   26   76 1
  49   26   77 1
  50   27   28 ar
  51   27   32 ar
  52   28   29 ar
  53   28   78 1
  54   29   30 ar
  55   29   79 1
  56   30   31 ar
  57   30   53 1
  58   31   32 ar
  59   31   80 1
  60   32   81 1
  61   33   40 ar
  62   33   44 ar
  63   34   35 ar
  64   34   39 ar
  65   35   36 ar
  66   35   82 1
  67   36   37 ar
  68   36   83 1
  69   37   38 ar
  70   37   84 1
  71   38   39 ar
  72   38   49 ar
  73   39   52 ar
  74   40   41 ar
  75   40   85 1
  76   41   42 ar
  77   41   86 1
  78   42   43 ar
  79   42   87 1
  80   43   44 ar
  81   43   45 ar
  82   44   48 ar
  83   45   46 ar
  84   45   88 1
  85   46   47 ar
  86   46   89 1
  87   47   48 ar
  88   47   90 1
  89   48   91 1
  90   49   50 ar
  91   49   92 1
  92   50   51 ar
  93   50   93 1
  94   51   52 ar
  95   51   94 1
  96   52   95 1
  97   53   54 ar
  98   53   58 ar
  99   54   55 ar
 100   54   96 1
 101   55   56 ar
 102   55   97 1
 103   56   57 ar
 104   56   98 1
 105   57   58 ar
 106   57   99 1
 107   58  100 1

#	End of record

