#	Name: ASD03740053
#	Creating user name:	WinNT
#	Creation time:	15. 06. 2019 20:46

#	Modifying user name:	WinNT
#	Modification time:	15. 06. 2019 20:46

#	Program:	/corina/corina34_cracker 3.40 0067  02.08.2006

@<TRIPOS>MOLECULE
ASD03740053
  57   60    0    0    0
SMALL
NO_CHARGES


@<TRIPOS>ATOM
   1 C1            -0.0168     1.3849     0.0097 C.ar    
   2 C2             0.0021    -0.0041     0.0020 C.ar    
   3 C3             1.1850    -0.6877    -0.0125 C.ar    
   4 C4             2.3894     0.0113    -0.0203 C.ar    
   5 C5             2.3718     1.4195    -0.0131 C.ar    
   6 C6             1.1486     2.0963     0.0023 C.ar    
   7 N7             3.7063    -0.3680    -0.0346 N.pl3   
   8 N8             4.5133     0.7743    -0.0364 N.2     
   9 C9             3.7704     1.8474    -0.0241 C.2     
  10 O10            4.2163     3.1315    -0.0222 O.3     
  11 C11            4.1915    -1.7503    -0.0454 C.3     
  12 C12            4.3443    -2.2179    -1.4698 C.ar    
  13 C13            5.6318     3.3268    -0.0344 C.3     
  14 C14            5.9400     4.8254    -0.0302 C.3     
  15 C15            7.4490     5.0362    -0.1690 C.3     
  16 N16            7.7342     6.4725    -0.2853 N.3     
  17 C17            5.5441    -2.0357    -2.1320 C.ar    
  18 C18            5.6848    -2.4644    -3.4384 C.ar    
  19 C19            4.6247    -3.0760    -4.0834 C.ar    
  20 C20            3.4242    -3.2581    -3.4203 C.ar    
  21 C21            3.2865    -2.8340    -2.1120 C.ar    
  22 C22            9.1926     6.7359    -0.1811 C.3     
  23 Cl23           4.8005    -3.6142    -5.7245 Cl      
  24 C24            5.4578     5.4416     1.2846 C.3     
  25 C25            7.3668     6.9809    -1.6320 C.3     
  26 C26            8.1850     8.2800    -1.7939 C.3     
  27 C27            9.3861     8.1188    -0.8394 C.3     
  28 C28            9.6236     6.7785     1.2863 C.3     
  29 O29            9.0021     7.8908     1.9333 O.3     
  30 H30           -0.9621     1.9071     0.0170 H       
  31 H31           -0.9296    -0.5502     0.0080 H       
  32 H32            1.1859    -1.7677    -0.0176 H       
  33 H33            1.1256     3.1760     0.0077 H       
  34 H34            5.1565    -1.8005     0.4590 H       
  35 H35            3.4771    -2.3902     0.4724 H       
  36 H36            6.0702     2.8632     0.8494 H       
  37 H37            6.0537     2.8716    -0.9305 H       
  38 H38            5.4280     5.3039    -0.8651 H       
  39 H39            7.9542     4.6355     0.7098 H       
  40 H40            7.8074     4.5212    -1.0604 H       
  41 H41            6.3715    -1.5579    -1.6284 H       
  42 H42            6.6221    -2.3216    -3.9557 H       
  43 H43            2.5963    -3.7355    -3.9233 H       
  44 H44            2.3494    -2.9761    -1.5942 H       
  45 H45            9.7559     5.9741    -0.7200 H       
  46 H46            5.9697     4.9630     2.1194 H       
  47 H47            5.6773     6.5092     1.2875 H       
  48 H48            4.3827     5.2914     1.3834 H       
  49 H49            7.6444     6.2586    -2.3997 H       
  50 H50            6.2992     7.1957    -1.6790 H       
  51 H51            8.5302     8.3842    -2.8226 H       
  52 H52            7.5855     9.1434    -1.5056 H       
  53 H53            9.3761     8.9032    -0.0826 H       
  54 H54           10.3208     8.1440    -1.3996 H       
  55 H55            9.3213     5.8553     1.7807 H       
  56 H56           10.7070     6.8836     1.3439 H       
  57 H57            9.2308     7.9799     2.8686 H       
@<TRIPOS>BOND
   1    1    2 ar
   2    1    6 ar
   3    1   30 1
   4    2    3 ar
   5    2   31 1
   6    3    4 ar
   7    3   32 1
   8    4    5 ar
   9    4    7 1
  10    5    6 ar
  11    5    9 1
  12    6   33 1
  13    7    8 1
  14    7   11 1
  15    8    9 2
  16    9   10 1
  17   10   13 1
  18   11   12 1
  19   11   34 1
  20   11   35 1
  21   12   17 ar
  22   12   21 ar
  23   13   14 1
  24   13   36 1
  25   13   37 1
  26   14   24 1
  27   14   15 1
  28   14   38 1
  29   15   16 1
  30   15   39 1
  31   15   40 1
  32   16   22 1
  33   16   25 1
  34   17   18 ar
  35   17   41 1
  36   18   19 ar
  37   18   42 1
  38   19   20 ar
  39   19   23 1
  40   20   21 ar
  41   20   43 1
  42   21   44 1
  43   22   28 1
  44   22   27 1
  45   22   45 1
  46   24   46 1
  47   24   47 1
  48   24   48 1
  49   25   26 1
  50   25   49 1
  51   25   50 1
  52   26   27 1
  53   26   51 1
  54   26   52 1
  55   27   53 1
  56   27   54 1
  57   28   29 1
  58   28   55 1
  59   28   56 1
  60   29   57 1

#	End of record

