#	Name: ASD01890407
#	Creating user name:	WinNT
#	Creation time:	15. 06. 2019 19:50

#	Modifying user name:	WinNT
#	Modification time:	15. 06. 2019 19:50

#	Program:	/corina/corina34_cracker 3.40 0067  02.08.2006

@<TRIPOS>MOLECULE
ASD01890407
  63   65    0    0    0
SMALL
NO_CHARGES


@<TRIPOS>ATOM
   1 C1             0.0439     1.6086     0.2264 C.2     
   2 C2             0.0613     0.1086     0.0825 C.3     
   3 C3             1.4860    -0.3680    -0.0373 C.2     
   4 O4             0.9034     2.1639     0.8688 O.2     
   5 O5            -0.9234     2.3282    -0.3637 O.3     
   6 O6             1.9357    -1.1388     0.7772 O.2     
   7 O7             2.2552     0.0638    -1.0490 O.3     
   8 C8            -0.5881    -0.5293     1.3123 C.3     
   9 C9            -1.9851     0.0607     1.5151 C.3     
  10 C10           -2.5663    -0.4566     2.8057 C.2     
  11 O11           -1.9264    -1.2218     3.4951 O.2     
  12 C12           -0.0706    -2.8616     1.9736 C.ar    
  13 C13           -0.6966    -2.0184     1.1075 C.ar    
  14 C14           -1.4366    -2.5114     0.0348 C.ar    
  15 C15           -1.5547    -3.8507    -0.1785 C.ar    
  16 C16           -0.9222    -4.7521     0.6941 C.ar    
  17 C17           -1.0218    -6.1414     0.5065 C.ar    
  18 C18           -0.3958    -6.9843     1.3724 C.ar    
  19 C19            0.3441    -6.4911     2.4456 C.ar    
  20 C20            0.4623    -5.1522     2.6590 C.ar    
  21 C21           -0.1693    -4.2505     1.7854 C.ar    
  22 C22           -3.9103    -0.0333     3.2291 C.ar    
  23 C23           -4.4531    -0.5114     4.4263 C.ar    
  24 C24           -5.7130    -0.1103     4.8164 C.ar    
  25 C25           -6.4408     0.7637     4.0262 C.ar    
  26 C26           -5.9102     1.2409     2.8394 C.ar    
  27 C27           -4.6492     0.8537     2.4392 C.ar    
  28 I28           -8.3545     1.3664     4.6291 I       
  29 C29           -0.8775     3.7681    -0.1825 C.3     
  30 O30            0.1763     4.3268    -1.0105 O.3     
  31 C31           -0.0640     4.4108    -2.3284 C.2     
  32 O32           -1.1201     4.0302    -2.7754 O.2     
  33 C33            0.9832     4.9799    -3.2505 C.3     
  34 C34            3.6172    -0.4369    -1.1017 C.3     
  35 O35            3.6096    -1.8122    -1.5672 O.3     
  36 C36            3.3912    -2.0112    -2.8765 C.2     
  37 O37            3.2123    -1.0675    -3.6095 O.2     
  38 C38            3.3691    -3.4118    -3.4324 C.3     
  39 H39           -0.4938    -0.1772    -0.8109 H       
  40 H40            0.0230    -0.3271     2.1919 H       
  41 H41           -1.9177     1.1478     1.5570 H       
  42 H42           -2.6272    -0.2318     0.6844 H       
  43 H43            0.5030    -2.4651     2.7983 H       
  44 H44           -1.9241    -1.8207    -0.6373 H       
  45 H45           -2.1319    -4.2184    -1.0140 H       
  46 H46           -1.5923    -6.5380    -0.3203 H       
  47 H47           -0.4740    -8.0515     1.2259 H       
  48 H48            0.8308    -7.1819     3.1182 H       
  49 H49            1.0384    -4.7846     3.4952 H       
  50 H50           -3.8868    -1.1933     5.0433 H       
  51 H51           -6.1336    -0.4789     5.7403 H       
  52 H52           -6.4838     1.9219     2.2283 H       
  53 H53           -4.2345     1.2307     1.5160 H       
  54 H54           -1.8350     4.2014    -0.4717 H       
  55 H55           -0.6768     3.9964     0.8642 H       
  56 H56            1.6303     4.1774    -3.6048 H       
  57 H57            0.4974     5.4573    -4.1015 H       
  58 H58            1.5796     5.7167    -2.7124 H       
  59 H59            4.2031     0.1755    -1.7872 H       
  60 H60            4.0593    -0.3925    -0.1064 H       
  61 H61            2.3530    -3.8037    -3.3896 H       
  62 H62            3.7096    -3.3972    -4.4678 H       
  63 H63            4.0290    -4.0475    -2.8420 H       
@<TRIPOS>BOND
   1    1    2 1
   2    1    4 2
   3    1    5 1
   4    2    3 1
   5    2    8 1
   6    2   39 1
   7    3    6 2
   8    3    7 1
   9    5   29 1
  10    7   34 1
  11    8    9 1
  12    8   13 1
  13    8   40 1
  14    9   10 1
  15    9   41 1
  16    9   42 1
  17   10   11 2
  18   10   22 1
  19   12   13 ar
  20   12   21 ar
  21   12   43 1
  22   13   14 ar
  23   14   15 ar
  24   14   44 1
  25   15   16 ar
  26   15   45 1
  27   16   17 ar
  28   16   21 ar
  29   17   18 ar
  30   17   46 1
  31   18   19 ar
  32   18   47 1
  33   19   20 ar
  34   19   48 1
  35   20   21 ar
  36   20   49 1
  37   22   23 ar
  38   22   27 ar
  39   23   24 ar
  40   23   50 1
  41   24   25 ar
  42   24   51 1
  43   25   26 ar
  44   25   28 1
  45   26   27 ar
  46   26   52 1
  47   27   53 1
  48   29   30 1
  49   29   54 1
  50   29   55 1
  51   30   31 1
  52   31   32 2
  53   31   33 1
  54   33   56 1
  55   33   57 1
  56   33   58 1
  57   34   35 1
  58   34   59 1
  59   34   60 1
  60   35   36 1
  61   36   37 2
  62   36   38 1
  63   38   61 1
  64   38   62 1
  65   38   63 1

#	End of record

