#	Name: ASD01903033
#	Creating user name:	WinNT
#	Creation time:	15. 06. 2019 19:54

#	Modifying user name:	WinNT
#	Modification time:	15. 06. 2019 19:54

#	Program:	/corina/corina34_cracker 3.40 0067  02.08.2006

@<TRIPOS>MOLECULE
ASD01903033
  29   30    0    0    0
SMALL
NO_CHARGES


@<TRIPOS>ATOM
   1 C1             0.0071     1.3744    -0.2056 C.ar    
   2 C2             0.0289    -0.0062    -0.2067 C.ar    
   3 C3             1.2218    -0.6816     0.0065 C.ar    
   4 C4             2.3936     0.0294     0.2205 C.ar    
   5 C5             2.3735     1.4101     0.2214 C.ar    
   6 C6             1.1797     2.0869     0.0085 C.ar    
   7 N7             1.1585     3.4869     0.0093 N.am    
   8 C8             2.2027     4.1769    -0.4907 C.2     
   9 O9             3.1977     3.5875    -0.8642 O.2     
  10 C10            2.1375     5.6538    -0.5850 C.ar    
  11 O11            1.2423    -2.0411     0.0062 O.3     
  12 N12            1.0481     6.2919    -0.1755 N.ar    
  13 C13            0.9498     7.6018    -0.2420 C.ar    
  14 C14            1.9878     8.3687    -0.7462 C.ar    
  15 C15            3.1443     7.7427    -1.1852 C.ar    
  16 C16            3.2225     6.3618    -1.0976 C.ar    
  17 C17            2.5050    -2.6709     0.2322 C.3     
  18 F18            3.0000    -2.2878     1.4833 F       
  19 F19            2.3456    -4.0604     0.1993 F       
  20 F20            3.4056    -2.2811    -0.7650 F       
  21 H21           -0.9209     1.9001    -0.3757 H       
  22 H22           -0.8830    -0.5604    -0.3731 H       
  23 H23            3.3218    -0.4971     0.3867 H       
  24 H24            3.2858     1.9635     0.3883 H       
  25 H25            0.3923     3.9601     0.3696 H       
  26 H26            0.0475     8.0863     0.1008 H       
  27 H27            1.8968     9.4436    -0.7971 H       
  28 H28            3.9673     8.3184    -1.5822 H       
  29 H29            4.1085     5.8413    -1.4299 H       
@<TRIPOS>BOND
   1    1    2 ar
   2    1    6 ar
   3    1   21 1
   4    2    3 ar
   5    2   22 1
   6    3    4 ar
   7    3   11 1
   8    4    5 ar
   9    4   23 1
  10    5    6 ar
  11    5   24 1
  12    6    7 1
  13    7    8 am
  14    7   25 1
  15    8    9 2
  16    8   10 1
  17   10   12 ar
  18   10   16 ar
  19   11   17 1
  20   12   13 ar
  21   13   14 ar
  22   13   26 1
  23   14   15 ar
  24   14   27 1
  25   15   16 ar
  26   15   28 1
  27   16   29 1
  28   17   18 1
  29   17   19 1
  30   17   20 1

#	End of record

