#	Name: ASD06140022
#	Creating user name:	WinNT
#	Creation time:	15. 06. 2019 21:05

#	Modifying user name:	WinNT
#	Modification time:	15. 06. 2019 21:05

#	Program:	/corina/corina34_cracker 3.40 0067  02.08.2006

@<TRIPOS>MOLECULE
ASD06140022
  30   31    0    0    0
SMALL
NO_CHARGES


@<TRIPOS>ATOM
   1 C1            -0.0417     1.3836    -0.3815 C.ar    
   2 C2            -0.0232    -0.0011    -0.3949 C.ar    
   3 C3            -1.2005    -0.7159    -0.2614 C.ar    
   4 C4            -2.4136    -0.0262    -0.1118 C.ar    
   5 C5            -2.4236     1.3802    -0.0987 C.ar    
   6 C6            -1.2284     2.0727    -0.2292 C.ar    
   7 C7            -3.6790    -0.7473     0.0316 C.2     
   8 C8            -4.8189    -0.0214     0.1724 C.2     
   9 C9            -4.7564     1.3872     0.1771 C.2     
  10 O10           -3.5922     2.0419     0.0446 O.3     
  11 O11           -5.7854     2.0264     0.3041 O.2     
  12 C12            1.2492     2.1471    -0.5286 C.3     
  13 C13            1.5160     2.4171    -2.0108 C.3     
  14 C14            2.8266     3.1922    -2.1602 C.3     
  15 O15           -1.1822    -2.0728    -0.2755 O.3     
  16 C16           -3.7168    -2.2538     0.0227 C.3     
  17 H17            0.9140    -0.5252    -0.5105 H       
  18 H18           -1.2273     3.1527    -0.2202 H       
  19 H19           -5.7699    -0.5218     0.2802 H       
  20 H20            1.1740     3.0943     0.0054 H       
  21 H21            2.0681     1.5597    -0.1132 H       
  22 H22            1.5912     1.4698    -2.5449 H       
  23 H23            0.6971     3.0044    -2.4263 H       
  24 H24            2.7514     4.1394    -1.6261 H       
  25 H25            3.6455     2.6049    -1.7447 H       
  26 H26            3.0166     3.3845    -3.2161 H       
  27 H27           -1.0728    -2.4737     0.5977 H       
  28 H28           -3.1290    -2.6369     0.8569 H       
  29 H29           -4.7485    -2.5920     0.1196 H       
  30 H30           -3.3003    -2.6222    -0.9148 H       
@<TRIPOS>BOND
   1    1    2 ar
   2    1   12 1
   3    1    6 ar
   4    2    3 ar
   5    2   17 1
   6    3    4 ar
   7    3   15 1
   8    4    5 ar
   9    4    7 1
  10    5    6 ar
  11    5   10 1
  12    6   18 1
  13    7    8 2
  14    7   16 1
  15    8    9 1
  16    8   19 1
  17    9   10 1
  18    9   11 2
  19   12   13 1
  20   12   20 1
  21   12   21 1
  22   13   14 1
  23   13   22 1
  24   13   23 1
  25   14   24 1
  26   14   25 1
  27   14   26 1
  28   15   27 1
  29   16   28 1
  30   16   29 1
  31   16   30 1

#	End of record

