#	Name: ASD04910540
#	Creating user name:	WinNT
#	Creation time:	15. 06. 2019 20:56

#	Modifying user name:	WinNT
#	Modification time:	15. 06. 2019 20:56

#	Program:	/corina/corina34_cracker 3.40 0067  02.08.2006

@<TRIPOS>MOLECULE
ASD04910540
  26   27    0    0    0
SMALL
NO_CHARGES


@<TRIPOS>ATOM
   1 N1            -0.0169     1.3966     0.0097 N.pl3   
   2 N2             0.0021    -0.0041     0.0020 N.2     
   3 C3             1.2511    -0.3963    -0.0120 C.2     
   4 C4             2.0667     0.7399    -0.0137 C.2     
   5 C5             1.2634     1.8295    -0.0002 C.2     
   6 C6             3.5736     0.7495    -0.0276 C.3     
   7 F7             4.0482    -0.5664    -0.0393 F       
   8 F8             4.0251     1.4184    -1.1704 F       
   9 F9             4.0463     1.4056     1.1140 F       
  10 C10           -1.1634     2.2076     0.0198 C.ar    
  11 C11           -2.4261     1.6268     0.0234 C.ar    
  12 C12           -3.5543     2.4266     0.0333 C.ar    
  13 C13           -3.4261     3.8079     0.0396 C.ar    
  14 C14           -2.1663     4.3889     0.0356 C.ar    
  15 C15           -1.0364     3.5915     0.0319 C.ar    
  16 O16           -4.5358     4.5929     0.0494 O.3     
  17 C17           -4.3302     6.0070     0.0554 C.3     
  18 F18            0.1903     4.1576     0.0340 F       
  19 F19           -2.5513     0.2817     0.0169 F       
  20 H20            1.5928    -1.4208    -0.0205 H       
  21 H21            1.5875     2.8597     0.0019 H       
  22 H22           -4.5356     1.9756     0.0358 H       
  23 H23           -2.0680     5.4644     0.0401 H       
  24 H24           -3.7648     6.2881     0.9439 H       
  25 H25           -3.7741     6.2971    -0.8360 H       
  26 H26           -5.2949     6.5144     0.0630 H       
@<TRIPOS>BOND
   1    1    2 1
   2    1    5 1
   3    1   10 1
   4    2    3 2
   5    3    4 1
   6    3   20 1
   7    4    5 2
   8    4    6 1
   9    5   21 1
  10    6    7 1
  11    6    8 1
  12    6    9 1
  13   10   11 ar
  14   10   15 ar
  15   11   12 ar
  16   11   19 1
  17   12   13 ar
  18   12   22 1
  19   13   14 ar
  20   13   16 1
  21   14   15 ar
  22   14   23 1
  23   15   18 1
  24   16   17 1
  25   17   24 1
  26   17   25 1
  27   17   26 1

#	End of record

