#	Name: ASD01914090
#	Creating user name:	WinNT
#	Creation time:	15. 06. 2019 20:02

#	Modifying user name:	WinNT
#	Modification time:	15. 06. 2019 20:02

#	Program:	/corina/corina34_cracker 3.40 0067  02.08.2006

@<TRIPOS>MOLECULE
ASD01914090
  46   49    0    0    0
SMALL
NO_CHARGES


@<TRIPOS>ATOM
   1 C1            -0.0244     1.3682    -0.2529 C.ar    
   2 C2            -0.0020    -0.0094    -0.1392 C.ar    
   3 C3             2.3927     0.0194    -0.2598 C.ar    
   4 C4             2.3701     1.4012    -0.3744 C.ar    
   5 O5             3.5786    -0.6443    -0.2640 O.3     
   6 C6             1.2029    -0.6849    -0.1423 C.ar    
   7 C7             1.1610     2.0744    -0.3703 C.ar    
   8 F8             1.1371     3.4206    -0.4818 F       
   9 C9             3.5262    -2.0671    -0.1422 C.3     
  10 C10            4.9259    -2.6252    -0.1659 C.ar    
  11 N11            5.1066    -3.9282    -0.0660 N.ar    
  12 C12            6.3082    -4.4669    -0.0813 C.ar    
  13 C13            7.4436    -3.6655    -0.2051 C.ar    
  14 C14            7.2839    -2.2786    -0.3132 C.ar    
  15 C15            6.0000    -1.7632    -0.2979 C.ar    
  16 C16            8.7925    -4.2704    -0.2214 C.2     
  17 N17            8.9331    -5.6066    -0.1162 N.am    
  18 O18            9.7747    -3.5625    -0.3297 O.2     
  19 C19           10.2698    -6.2060    -0.1323 C.3     
  20 C20           10.2553    -7.5749     0.5858 C.3     
  21 C21           10.6796    -8.5995    -0.5103 C.3     
  22 C22            9.4643    -8.6532    -1.4858 C.3     
  23 C23            9.4789    -7.2843    -2.2039 C.3     
  24 C24           10.7015    -6.5325    -1.5946 C.3     
  25 C25           11.6844    -7.7306    -1.3462 C.3     
  26 H26           -0.9677     1.8940    -0.2548 H       
  27 H27           -0.9277    -0.5581    -0.0473 H       
  28 H28            3.2949     1.9513    -0.4663 H       
  29 H29            1.2189    -1.7611    -0.0530 H       
  30 H30            3.0446    -2.3338     0.7986 H       
  31 H31            2.9555    -2.4821    -0.9730 H       
  32 H32            6.4157    -5.5383     0.0029 H       
  33 H33            8.1407    -1.6283    -0.4104 H       
  34 H34            5.8384    -0.6985    -0.3791 H       
  35 H35            8.1493    -6.1715    -0.0297 H       
  36 H36           10.9908    -5.5376     0.3384 H       
  37 H37           10.9706    -7.5801     1.4082 H       
  38 H38            9.2536    -7.8019     0.9508 H       
  39 H39           11.0429    -9.5613    -0.1484 H       
  40 H40            9.5907    -9.4615    -2.2061 H       
  41 H41            8.5357    -8.7806    -0.9295 H       
  42 H42            9.6124    -7.4197    -3.2772 H       
  43 H43            8.5574    -6.7388    -2.0005 H       
  44 H44           11.0839    -5.6942    -2.1769 H       
  45 H45           12.5529    -7.4319    -0.7592 H       
  46 H46           11.9740    -8.2212    -2.2755 H       
@<TRIPOS>BOND
   1    1    2 ar
   2    1    7 ar
   3    1   26 1
   4    2    6 ar
   5    2   27 1
   6    3    4 ar
   7    3    5 1
   8    3    6 ar
   9    4    7 ar
  10    4   28 1
  11    5    9 1
  12    6   29 1
  13    7    8 1
  14    9   10 1
  15    9   30 1
  16    9   31 1
  17   10   11 ar
  18   10   15 ar
  19   11   12 ar
  20   12   13 ar
  21   12   32 1
  22   13   14 ar
  23   13   16 1
  24   14   15 ar
  25   14   33 1
  26   15   34 1
  27   16   17 am
  28   16   18 2
  29   17   19 1
  30   17   35 1
  31   19   20 1
  32   19   24 1
  33   19   36 1
  34   20   21 1
  35   20   37 1
  36   20   38 1
  37   21   22 1
  38   21   25 1
  39   21   39 1
  40   22   23 1
  41   22   40 1
  42   22   41 1
  43   23   24 1
  44   23   42 1
  45   23   43 1
  46   24   25 1
  47   24   44 1
  48   25   45 1
  49   25   46 1

#	End of record

