#	Name: ASD03330484
#	Creating user name:	WinNT
#	Creation time:	15. 06. 2019 20:37

#	Modifying user name:	WinNT
#	Modification time:	15. 06. 2019 20:37

#	Program:	/corina/corina34_cracker 3.40 0067  02.08.2006

@<TRIPOS>MOLECULE
ASD03330484
  64   66    0    0    0
SMALL
NO_CHARGES


@<TRIPOS>ATOM
   1 C1             0.0294     0.4179     0.7309 C.3     
   2 N2            -0.1484    -0.9880     0.3416 N.3     
   3 C3             0.3014    -1.2187    -1.0432 C.3     
   4 C4             1.6806    -0.6294    -1.1885 C.2     
   5 N5             2.2239     0.2506    -0.2987 N.pl3   
   6 C6             1.5229     0.7270     0.8968 C.3     
   7 C7             2.6022    -0.8357    -2.1623 C.2     
   8 N8             3.6908    -0.0916    -1.8633 N.2     
   9 C9             3.4706     0.5636    -0.7434 C.2     
  10 C10            4.4146     1.4812    -0.0832 C.2     
  11 C11            2.4453    -1.7139    -3.3354 C.2     
  12 O12            1.4127    -2.3363    -3.4952 O.2     
  13 C13            3.2901    -2.7004    -5.3970 C.3     
  14 N14            3.4461    -1.8274    -4.2309 N.am    
  15 C15           -1.5438    -1.4111     0.5193 C.3     
  16 C16            2.5744    -1.9373    -6.5134 C.3     
  17 C17            3.3680    -0.6756    -6.8586 C.3     
  18 C18            2.4678    -2.8279    -7.7528 C.3     
  19 C19            1.1716    -1.5452    -6.0450 C.3     
  20 C20            4.6480    -3.1407    -5.8801 C.2     
  21 O21            5.6389    -2.5258    -5.5470 O.2     
  22 N22            4.7612    -4.2179    -6.6822 N.am    
  23 C23            6.0869    -4.7062    -7.0701 C.3     
  24 C24            4.7220     1.2381     1.1716 C.2     
  25 C25            5.7349     2.0345     1.9420 C.3     
  26 C26            5.4386     3.5342     1.8270 C.3     
  27 C27            6.2405     4.0828     0.6488 C.3     
  28 C28            6.3633     3.0060    -0.4335 C.3     
  29 C29            4.9583     2.6202    -0.8952 C.3     
  30 H30           -0.3906     1.0633    -0.0406 H       
  31 H31           -0.4854     0.6005     1.6741 H       
  32 H32            0.3346    -2.2891    -1.2464 H       
  33 H33           -0.3824    -0.7320    -1.7386 H       
  34 H34            1.6664     1.8022     1.0034 H       
  35 H35            1.9089     0.2147     1.7781 H       
  36 H36            2.7018    -3.5752    -5.1198 H       
  37 H37            4.2696    -1.3310    -4.1034 H       
  38 H38           -2.1993    -0.7479    -0.0452 H       
  39 H39           -1.6625    -2.4328     0.1584 H       
  40 H40           -1.8052    -1.3665     1.5766 H       
  41 H41            4.3674    -0.9549    -7.1923 H       
  42 H42            2.8582    -0.1319    -7.6540 H       
  43 H43            3.4440    -0.0411    -5.9756 H       
  44 H44            1.9059    -3.7286    -7.5058 H       
  45 H45            1.9544    -2.2857    -8.5468 H       
  46 H46            3.4673    -3.1040    -8.0889 H       
  47 H47            1.2476    -0.9107    -5.1619 H       
  48 H48            0.6618    -1.0015    -6.8403 H       
  49 H49            0.6062    -2.4440    -5.7990 H       
  50 H50            3.9650    -4.6698    -7.0026 H       
  51 H51            6.6478    -4.9825    -6.1774 H       
  52 H52            5.9784    -5.5779    -7.7154 H       
  53 H53            6.6206    -3.9214    -7.6062 H       
  54 H54            4.2201     0.4243     1.6740 H       
  55 H55            5.7025     1.7403     2.9910 H       
  56 H56            6.7297     1.8324     1.5449 H       
  57 H57            4.3738     3.6873     1.6514 H       
  58 H58            5.7381     4.0407     2.7446 H       
  59 H59            5.7315     4.9546     0.2377 H       
  60 H60            7.2353     4.3705     0.9892 H       
  61 H61            6.9318     3.3967    -1.2775 H       
  62 H62            6.8669     2.1301    -0.0247 H       
  63 H63            4.9938     2.3297    -1.9452 H       
  64 H64            4.2968     3.4794    -0.7848 H       
@<TRIPOS>BOND
   1    1    2 1
   2    1    6 1
   3    1   30 1
   4    1   31 1
   5    2    3 1
   6    2   15 1
   7    3    4 1
   8    3   32 1
   9    3   33 1
  10    4    5 1
  11    4    7 2
  12    5    6 1
  13    5    9 1
  14    6   34 1
  15    6   35 1
  16    7    8 1
  17    7   11 1
  18    8    9 2
  19    9   10 1
  20   10   24 2
  21   10   29 1
  22   11   12 2
  23   11   14 am
  24   13   14 1
  25   13   16 1
  26   13   20 1
  27   13   36 1
  28   14   37 1
  29   15   38 1
  30   15   39 1
  31   15   40 1
  32   16   17 1
  33   16   18 1
  34   16   19 1
  35   17   41 1
  36   17   42 1
  37   17   43 1
  38   18   44 1
  39   18   45 1
  40   18   46 1
  41   19   47 1
  42   19   48 1
  43   19   49 1
  44   20   21 2
  45   20   22 am
  46   22   23 1
  47   22   50 1
  48   23   51 1
  49   23   52 1
  50   23   53 1
  51   24   25 1
  52   24   54 1
  53   25   26 1
  54   25   55 1
  55   25   56 1
  56   26   27 1
  57   26   57 1
  58   26   58 1
  59   27   28 1
  60   27   59 1
  61   27   60 1
  62   28   29 1
  63   28   61 1
  64   28   62 1
  65   29   63 1
  66   29   64 1

#	End of record

