#	Name: ASD05430184
#	Creating user name:	WinNT
#	Creation time:	15. 06. 2019 20:59

#	Modifying user name:	WinNT
#	Modification time:	15. 06. 2019 20:59

#	Program:	/corina/corina34_cracker 3.40 0067  02.08.2006

@<TRIPOS>MOLECULE
ASD05430184
  62   68    0    0    0
SMALL
NO_CHARGES


@<TRIPOS>ATOM
   1 C1            -0.0168     1.3907     0.0097 C.ar    
   2 C2             0.0021    -0.0041     0.0020 C.ar    
   3 C3             1.2137    -0.6728    -0.0132 C.ar    
   4 C4             2.4074     0.0328    -0.0203 C.ar    
   5 C5             2.4074     1.3994    -0.0130 C.ar    
   6 C6             1.1963     2.0964     0.0019 C.ar    
   7 C7             5.3554     3.3783     1.3903 C.3     
   8 C8             4.1031     2.5102     1.4152 C.3     
   9 C9             3.7120     2.1538    -0.0204 C.3     
  10 C10            6.2377     3.1610     2.6092 C.3     
  11 C11            5.5005     2.6200     3.8361 C.3     
  12 N12            4.8967     1.3424     3.4511 N.pl3   
  13 C13            4.3328     1.2416     2.1931 C.2     
  14 N14            4.0251     0.0927     1.7114 N.2     
  15 C15            3.5149     0.0911     5.0060 C.ar    
  16 C16            3.4197    -0.2584     6.3402 C.ar    
  17 N17           -1.2013    -0.7255     0.0101 N.pl3   
  18 C18           -2.2464    -0.5427     0.8578 C.2     
  19 C19           -1.5464    -1.7439    -0.8399 C.2     
  20 C20           -2.7798    -2.1495    -0.4823 C.2     
  21 N21           -3.1825    -1.4005     0.5548 N.2     
  22 C22           -3.5722    -3.2517    -1.1369 C.3     
  23 C23            4.8671     0.1893     4.3480 C.3     
  24 C24            5.1298    -1.0704     3.5141 C.3     
  25 O25            4.2380    -1.1124     2.4053 O.3     
  26 C26            2.1803    -0.3492     6.9446 C.ar    
  27 C27            1.0334    -0.0900     6.2133 C.ar    
  28 C28            1.1299     0.2599     4.8772 C.ar    
  29 C29            2.3702     0.3450     4.2736 C.ar    
  30 F30           -0.1788    -0.1789     6.8030 F       
  31 N31           -0.4476     3.6024     0.0235 N.2     
  32 O32           -1.0081     2.3047     0.0187 O.3     
  33 C33            7.5358     2.3965     2.3015 C.3     
  34 O34            8.1760     3.3739     3.1471 O.3     
  35 C35            7.1450     4.3596     2.9332 C.3     
  36 C36            0.8473     3.5199     0.0123 C.2     
  37 H37            1.2295    -1.7526    -0.0191 H       
  38 H38            3.3454    -0.5024    -0.0314 H       
  39 H39            5.9290     3.1443     0.4935 H       
  40 H40            5.0575     4.4261     1.3528 H       
  41 H41            3.2902     3.0696     1.8781 H       
  42 H42            4.4889     1.5318    -0.4649 H       
  43 H43            3.5999     3.0676    -0.6040 H       
  44 H44            6.2044     2.4662     4.6540 H       
  45 H45            4.7234     3.3209     4.1409 H       
  46 H46            4.3144    -0.4609     6.9103 H       
  47 H47           -2.2947     0.1894     1.6504 H       
  48 H48           -0.9447    -2.1443    -1.6425 H       
  49 H49           -3.3508    -4.1993    -0.6458 H       
  50 H50           -4.6369    -3.0361    -1.0474 H       
  51 H51           -3.3019    -3.3168    -2.1908 H       
  52 H52            5.6405     0.2949     5.1088 H       
  53 H53            6.1576    -1.0568     3.1516 H       
  54 H54            4.9778    -1.9535     4.1346 H       
  55 H55            2.1061    -0.6226     7.9868 H       
  56 H56            0.2361     0.4623     4.3058 H       
  57 H57            2.4458     0.6179     3.2314 H       
  58 H58            7.5571     1.3836     2.7036 H       
  59 H59            7.8416     2.4490     1.2566 H       
  60 H60            7.3309     5.0150     2.0823 H       
  61 H61            6.8571     4.8998     3.8351 H       
  62 H62            1.5405     4.3481     0.0106 H       
@<TRIPOS>BOND
   1    1    2 ar
   2    1    6 ar
   3    1   32 1
   4    2    3 ar
   5    2   17 1
   6    3    4 ar
   7    3   37 1
   8    4    5 ar
   9    4   38 1
  10    5    6 ar
  11    5    9 1
  12    6   36 1
  13    7    8 1
  14    7   10 1
  15    7   39 1
  16    7   40 1
  17    8    9 1
  18    8   13 1
  19    8   41 1
  20    9   42 1
  21    9   43 1
  22   10   11 1
  23   10   33 1
  24   10   35 1
  25   11   12 1
  26   11   44 1
  27   11   45 1
  28   12   13 1
  29   12   23 1
  30   13   14 2
  31   14   25 1
  32   15   16 ar
  33   15   23 1
  34   15   29 ar
  35   16   26 ar
  36   16   46 1
  37   17   18 1
  38   17   19 1
  39   18   21 2
  40   18   47 1
  41   19   20 2
  42   19   48 1
  43   20   21 1
  44   20   22 1
  45   22   49 1
  46   22   50 1
  47   22   51 1
  48   23   24 1
  49   23   52 1
  50   24   25 1
  51   24   53 1
  52   24   54 1
  53   26   27 ar
  54   26   55 1
  55   27   28 ar
  56   27   30 1
  57   28   29 ar
  58   28   56 1
  59   29   57 1
  60   31   32 1
  61   31   36 2
  62   33   34 1
  63   33   58 1
  64   33   59 1
  65   34   35 1
  66   35   60 1
  67   35   61 1
  68   36   62 1

#	End of record

