#	Name: ASD01028785
#	Creating user name:	WinNT
#	Creation time:	15. 06. 2019 18:58

#	Modifying user name:	WinNT
#	Modification time:	15. 06. 2019 18:58

#	Program:	/corina/corina34_cracker 3.40 0067  02.08.2006

@<TRIPOS>MOLECULE
ASD01028785
  20   21    0    0    0
SMALL
NO_CHARGES


@<TRIPOS>ATOM
   1 N1            -0.0169     1.3966     0.0097 N.pl3   
   2 N2             0.0021    -0.0041     0.0020 N.2     
   3 C3             1.2503    -0.3962    -0.0120 C.2     
   4 C4             2.0658     0.7407    -0.0137 C.2     
   5 C5             1.2619     1.8297    -0.0002 C.2     
   6 O6            -1.5866     4.6137     0.1123 O.3     
   7 C7            -0.9635     3.5372     0.8228 C.3     
   8 C8            -1.2132     2.2423     0.0202 C.3     
   9 C9            -1.5161     2.7889    -1.4015 C.3     
  10 C10           -2.2491     4.1103    -1.0586 C.3     
  11 Br11           3.9567     0.7537    -0.0307 Br      
  12 H12            1.5921    -1.4207    -0.0205 H       
  13 H13            1.5853     2.8601     0.0017 H       
  14 H14            0.1078     3.7201     0.9058 H       
  15 H15           -1.4025     3.4469     1.8164 H       
  16 H16           -2.0681     1.6969     0.4199 H       
  17 H17           -0.5957     2.9818    -1.9526 H       
  18 H18           -2.1670     2.1103    -1.9529 H       
  19 H19           -3.2999     3.9154    -0.8444 H       
  20 H20           -2.1550     4.8195    -1.8809 H       
@<TRIPOS>BOND
   1    1    2 1
   2    1    5 1
   3    1    8 1
   4    2    3 2
   5    3    4 1
   6    3   12 1
   7    4    5 2
   8    4   11 1
   9    5   13 1
  10    6    7 1
  11    6   10 1
  12    7    8 1
  13    7   14 1
  14    7   15 1
  15    8    9 1
  16    8   16 1
  17    9   10 1
  18    9   17 1
  19    9   18 1
  20   10   19 1
  21   10   20 1

#	End of record

