#	Name: ASD01812543
#	Creating user name:	WinNT
#	Creation time:	15. 06. 2019 19:28

#	Modifying user name:	WinNT
#	Modification time:	15. 06. 2019 19:28

#	Program:	/corina/corina34_cracker 3.40 0067  02.08.2006

@<TRIPOS>MOLECULE
ASD01812543
  54   58    0    0    0
SMALL
NO_CHARGES


@<TRIPOS>ATOM
   1 C1            -0.0173     1.4248     0.0099 C.3     
   2 O2             0.0021    -0.0041     0.0020 O.3     
   3 C3             0.6048    -0.6061    -1.0540 C.ar    
   4 C4             0.6506    -1.9925    -1.1210 C.ar    
   5 C5             1.2684    -2.5944    -2.2037 C.ar    
   6 C6             1.8211    -1.7837    -3.1853 C.ar    
   7 C7             2.5033    -2.3943    -4.3822 C.3     
   8 C8             1.4949    -2.6043    -5.4823 C.ar    
   9 C9             0.8891    -3.8093    -5.6074 C.ar    
  10 C10           -0.0560    -4.0471    -6.6188 C.ar    
  11 C11           -0.7170    -5.3485    -6.7616 C.2     
  12 O12           -0.4586    -6.2622    -5.9981 O.2     
  13 N13           -1.6165    -5.5161    -7.7530 N.am    
  14 C14           -1.9212    -4.5079    -8.6180 C.2     
  15 C15           -1.3470    -3.2932    -8.5356 C.2     
  16 C16           -0.3934    -3.0276    -7.5284 C.ar    
  17 C17            0.2555    -1.7244    -7.4005 C.ar    
  18 N18           -0.0245    -0.7237    -8.2314 N.ar    
  19 C19            0.5597     0.4462    -8.1138 C.ar    
  20 C20            1.4977     0.6948    -7.1167 C.ar    
  21 C21            1.8294    -0.2926    -6.2308 C.ar    
  22 C22            1.1956    -1.5413    -6.3583 C.ar    
  23 C23           -2.2814    -6.8128    -7.9036 C.3     
  24 H24           -1.9228    -7.4978    -7.1352 H       
  25 C25           -3.7958    -6.6316    -7.7622 C.3     
  26 C26           -4.4872    -7.9769    -7.9990 C.3     
  27 O27           -4.1349    -8.4708    -9.2929 O.3     
  28 C28           -2.7359    -8.7043    -9.4673 C.3     
  29 C29           -1.9724    -7.3893    -9.2887 C.3     
  30 H30           -2.2849    -6.6810   -10.0560 H       
  31 O31           -0.5686    -7.6307    -9.4032 O.3     
  32 C32            1.7386    -0.4115    -3.0535 C.ar    
  33 N33            1.1384     0.1330    -2.0124 N.ar    
  34 H34            1.0053     1.8021     0.0021 H       
  35 H35           -0.5445     1.7859    -0.8732 H       
  36 H36           -0.5275     1.7763     0.9067 H       
  37 H37            0.2104    -2.5930    -0.3388 H       
  38 H38            1.3196    -3.6703    -2.2825 H       
  39 H39            3.2894    -1.7255    -4.7328 H       
  40 H40            2.9400    -3.3528    -4.1018 H       
  41 H41            1.1375    -4.6017    -4.9170 H       
  42 H42           -2.6477    -4.6899    -9.3962 H       
  43 H43           -1.6156    -2.5208    -9.2411 H       
  44 H44            0.3065     1.2341    -8.8077 H       
  45 H45            1.9636     1.6664    -7.0428 H       
  46 H46            2.5557    -0.1167    -5.4511 H       
  47 H47           -4.0279    -6.2745    -6.7589 H       
  48 H48           -4.1463    -5.9076    -8.4977 H       
  49 H49           -4.1668    -8.6890    -7.2385 H       
  50 H50           -5.5677    -7.8453    -7.9419 H       
  51 H51           -2.3927    -9.4260    -8.7260 H       
  52 H52           -2.5549    -9.0968   -10.4679 H       
  53 H53           -0.3009    -7.9970   -10.2571 H       
  54 H54            2.1670     0.2238    -3.8146 H       
@<TRIPOS>BOND
   1    1    2 1
   2    1   34 1
   3    1   35 1
   4    1   36 1
   5    2    3 1
   6    3   33 ar
   7    3    4 ar
   8    4    5 ar
   9    4   37 1
  10    5    6 ar
  11    5   38 1
  12    6    7 1
  13    6   32 ar
  14    7    8 1
  15    7   39 1
  16    7   40 1
  17    8   22 ar
  18    8    9 ar
  19    9   10 ar
  20    9   41 1
  21   10   16 ar
  22   10   11 1
  23   11   12 2
  24   11   13 am
  25   13   14 1
  26   13   23 1
  27   14   15 2
  28   14   42 1
  29   15   16 1
  30   15   43 1
  31   16   17 ar
  32   17   22 ar
  33   17   18 ar
  34   18   19 ar
  35   19   20 ar
  36   19   44 1
  37   20   21 ar
  38   20   45 1
  39   21   22 ar
  40   21   46 1
  41   23   24 1
  42   23   29 1
  43   23   25 1
  44   25   26 1
  45   25   47 1
  46   25   48 1
  47   26   27 1
  48   26   49 1
  49   26   50 1
  50   27   28 1
  51   28   29 1
  52   28   51 1
  53   28   52 1
  54   29   30 1
  55   29   31 1
  56   31   53 1
  57   32   33 ar
  58   32   54 1

#	End of record

