#	Name: ASD02030264
#	Creating user name:	WinNT
#	Creation time:	15. 06. 2019 20:14

#	Modifying user name:	WinNT
#	Modification time:	15. 06. 2019 20:14

#	Program:	/corina/corina34_cracker 3.40 0067  02.08.2006

@<TRIPOS>MOLECULE
ASD02030264
  55   58    0    0    0
SMALL
NO_CHARGES


@<TRIPOS>ATOM
   1 N1            -0.0895     2.3203    -0.4778 N.am    
   2 C2             0.0029     0.9175    -0.9058 C.3     
   3 C3            -0.5862     0.0289     0.1968 C.3     
   4 N4            -1.8984     0.5667     0.5823 N.am    
   5 C5            -1.9909     1.9696     1.0104 C.3     
   6 C6            -1.4008     2.8566    -0.0868 C.3     
   7 C7             1.0094     3.0996    -0.4391 C.2     
   8 C8             2.3328     2.5280    -0.7672 C.2     
   9 N9             3.4913     3.1394    -0.6456 N.2     
  10 N10            2.5650     1.2887    -1.2373 N.2     
  11 C11            3.8583     1.1698    -1.3982 C.2     
  12 N12            4.4246     2.3354    -1.0239 N.pl3   
  13 C13            5.7959     2.6234    -1.0432 C.ar    
  14 O14            0.9125     4.2724    -0.1344 O.2     
  15 C15           -2.9974    -0.2125     0.5437 C.2     
  16 C16           -2.8829    -1.6355     0.1476 C.ar    
  17 O17           -4.0821     0.2521     0.8337 O.2     
  18 C18            6.2509     3.8680    -0.6300 C.ar    
  19 C19            7.6045     4.1490    -0.6502 C.ar    
  20 C20            8.5045     3.1908    -1.0824 C.ar    
  21 C21            8.0531     1.9506    -1.4949 C.ar    
  22 C22            6.7027     1.6622    -1.4704 C.ar    
  23 Cl23           8.1752     5.7050    -0.1338 Cl      
  24 C24           -4.0220    -2.3391    -0.2322 C.ar    
  25 C25           -3.4573     2.3407     1.2402 C.3     
  26 N26           -1.6933    -2.2263     0.1531 N.ar    
  27 C27           -1.5488    -3.4912    -0.1930 C.ar    
  28 C28           -2.6479    -4.2540    -0.5790 C.ar    
  29 C29           -3.9027    -3.6711    -0.6015 C.ar    
  30 O30           -0.3151    -4.0550    -0.1731 O.3     
  31 C31            0.7728    -3.2213     0.2313 C.3     
  32 C32           -1.1991     2.1647     2.3050 C.3     
  33 H33           -0.5611     0.7784    -1.8281 H       
  34 H34            1.0476     0.6531    -1.0696 H       
  35 H35           -0.7032    -0.9884    -0.1768 H       
  36 H36            0.0779     0.0297     1.0611 H       
  37 H37           -1.2844     3.8735     0.2880 H       
  38 H38           -2.0630     2.8568    -0.9527 H       
  39 H39            4.3783     0.2957    -1.7617 H       
  40 H40            5.5484     4.6161    -0.2934 H       
  41 H41            9.5615     3.4122    -1.0979 H       
  42 H42            8.7578     1.2050    -1.8323 H       
  43 H43            6.3512     0.6931    -1.7924 H       
  44 H44           -4.9870    -1.8543    -0.2390 H       
  45 H45           -3.8202     1.8465     2.1414 H       
  46 H46           -3.5445     3.4208     1.3580 H       
  47 H47           -4.0518     2.0192     0.3851 H       
  48 H48           -2.5218    -5.2888    -0.8613 H       
  49 H49           -4.7708    -4.2415    -0.8972 H       
  50 H50            0.8503    -2.3710    -0.4463 H       
  51 H51            0.5982    -2.8628     1.2457 H       
  52 H52            1.6997    -3.7942     0.2028 H       
  53 H53           -0.1541     1.9064     2.1342 H       
  54 H54           -1.2692     3.2057     2.6203 H       
  55 H55           -1.6101     1.5210     3.0827 H       
@<TRIPOS>BOND
   1    1    2 1
   2    1    7 am
   3    1    6 1
   4    2    3 1
   5    2   33 1
   6    2   34 1
   7    3    4 1
   8    3   35 1
   9    3   36 1
  10    4    5 1
  11    4   15 am
  12    5    6 1
  13    5   25 1
  14    5   32 1
  15    6   37 1
  16    6   38 1
  17    7    8 1
  18    7   14 2
  19    8    9 2
  20    8   10 1
  21    9   12 1
  22   10   11 2
  23   11   12 1
  24   11   39 1
  25   12   13 1
  26   13   18 ar
  27   13   22 ar
  28   15   16 1
  29   15   17 2
  30   16   26 ar
  31   16   24 ar
  32   18   19 ar
  33   18   40 1
  34   19   20 ar
  35   19   23 1
  36   20   21 ar
  37   20   41 1
  38   21   22 ar
  39   21   42 1
  40   22   43 1
  41   24   29 ar
  42   24   44 1
  43   25   45 1
  44   25   46 1
  45   25   47 1
  46   26   27 ar
  47   27   28 ar
  48   27   30 1
  49   28   29 ar
  50   28   48 1
  51   29   49 1
  52   30   31 1
  53   31   50 1
  54   31   51 1
  55   31   52 1
  56   32   53 1
  57   32   54 1
  58   32   55 1

#	End of record

