#	Name: ASD04590653
#	Creating user name:	WinNT
#	Creation time:	15. 06. 2019 20:51

#	Modifying user name:	WinNT
#	Modification time:	15. 06. 2019 20:51

#	Program:	/corina/corina34_cracker 3.40 0067  02.08.2006

@<TRIPOS>MOLECULE
ASD04590653
  67   71    0    0    0
SMALL
NO_CHARGES


@<TRIPOS>ATOM
   1 N1            -0.0170     1.3232    -0.0111 N.ar    
   2 C2             0.0017    -0.0035    -0.0048 C.ar    
   3 N3             1.1299    -0.6949    -0.0118 N.ar    
   4 C4             2.3050    -0.0729    -0.0259 C.ar    
   5 C5             2.3189     1.3365    -0.0332 C.ar    
   6 C6             1.1072     2.0202    -0.0251 C.ar    
   7 N7             3.6031    -0.5196    -0.0356 N.pl3   
   8 C8             4.4823     0.5494    -0.0493 C.ar    
   9 C9             3.7313     1.7384    -0.0484 C.ar    
  10 C10            5.8681     0.6417    -0.0622 C.ar    
  11 N11            6.4613     1.8180    -0.0729 N.ar    
  12 C12            5.7851     2.9532    -0.0725 C.ar    
  13 C13            4.4064     2.9584    -0.0605 C.ar    
  14 N14           -1.2019    -0.6887     0.0098 N.pl3   
  15 C15           -2.4022     0.0122     0.1304 C.ar    
  16 C16            4.0018    -1.9293    -0.0316 C.3     
  17 N17           -2.3891     1.3195     0.3310 N.ar    
  18 N18           -3.4683     2.0042     0.4478 N.ar    
  19 C19           -4.6668     1.4483     0.3753 C.ar    
  20 C20           -4.7831     0.0733     0.1655 C.ar    
  21 C21           -3.6194    -0.6637     0.0338 C.ar    
  22 N22           -5.8099     2.2334     0.5087 N.3     
  23 C23            3.4577    -2.6096     1.2263 C.3     
  24 C24            3.4353    -2.6230    -1.2721 C.3     
  25 C25           -6.6945     2.0766    -0.6529 C.3     
  26 C26           -5.4581     3.6431     0.7218 C.3     
  27 C27           -6.7271     4.4492     1.0083 C.3     
  28 C28           -7.6881     4.3170    -0.1764 C.3     
  29 C29           -8.0003     2.8359    -0.4075 C.3     
  30 N30           -8.9322     5.0409     0.1176 N.3     
  31 C31           -9.8314     5.0355    -1.0440 C.3     
  32 C32           -9.5986     4.4829     1.3019 C.3     
  33 C33            4.0743    -2.0252    -2.5272 C.3     
  34 C34            3.9771    -4.0471     1.2938 C.3     
  35 H35            1.0849     3.0999    -0.0307 H       
  36 H36            6.4645    -0.2586    -0.0631 H       
  37 H37            6.3204     3.8911    -0.0816 H       
  38 H38            3.8598     3.8898    -0.0602 H       
  39 H39           -1.2103    -1.6559    -0.0637 H       
  40 H40            5.0895    -1.9993    -0.0410 H       
  41 H41           -5.7518    -0.4003     0.1036 H       
  42 H42           -3.6520    -1.7307    -0.1299 H       
  43 H43            3.7896    -2.0615     2.1081 H       
  44 H44            2.3683    -2.6181     1.1924 H       
  45 H45            3.6560    -3.6894    -1.2247 H       
  46 H46            2.3558    -2.4767    -1.3091 H       
  47 H47           -6.2032     2.4762    -1.5401 H       
  48 H48           -6.9120     1.0192    -0.8036 H       
  49 H49           -4.7777     3.7235     1.5696 H       
  50 H50           -4.9727     4.0354    -0.1718 H       
  51 H51           -7.2057     4.0663     1.9096 H       
  52 H52           -6.4674     5.4981     1.1510 H       
  53 H53           -7.2247     4.7353    -1.0699 H       
  54 H54           -8.6503     2.7322    -1.2763 H       
  55 H55           -8.4990     2.4276     0.4716 H       
  56 H56          -10.0792     4.0071    -1.3069 H       
  57 H57          -10.7445     5.5780    -0.7991 H       
  58 H58           -9.3377     5.5173    -1.8879 H       
  59 H59           -8.9357     4.5631     2.1634 H       
  60 H60          -10.5167     5.0372     1.4970 H       
  61 H61           -9.8380     3.4345     1.1239 H       
  62 H62            3.8536    -0.9589    -2.5746 H       
  63 H63            5.1538    -2.1716    -2.4902 H       
  64 H64            3.6707    -2.5195    -3.4109 H       
  65 H65            3.6452    -4.5951     0.4120 H       
  66 H66            5.0666    -4.0386     1.3276 H       
  67 H67            3.5895    -4.5318     2.1899 H       
@<TRIPOS>BOND
   1    1    2 ar
   2    1    6 ar
   3    2    3 ar
   4    2   14 1
   5    3    4 ar
   6    4    5 ar
   7    4    7 1
   8    5    6 ar
   9    5    9 1
  10    6   35 1
  11    7    8 1
  12    7   16 1
  13    8    9 ar
  14    8   10 ar
  15    9   13 ar
  16   10   11 ar
  17   10   36 1
  18   11   12 ar
  19   12   13 ar
  20   12   37 1
  21   13   38 1
  22   14   15 1
  23   14   39 1
  24   15   17 ar
  25   15   21 ar
  26   16   23 1
  27   16   24 1
  28   16   40 1
  29   17   18 ar
  30   18   19 ar
  31   19   20 ar
  32   19   22 1
  33   20   21 ar
  34   20   41 1
  35   21   42 1
  36   22   26 1
  37   22   25 1
  38   23   34 1
  39   23   43 1
  40   23   44 1
  41   24   33 1
  42   24   45 1
  43   24   46 1
  44   25   29 1
  45   25   47 1
  46   25   48 1
  47   26   27 1
  48   26   49 1
  49   26   50 1
  50   27   28 1
  51   27   51 1
  52   27   52 1
  53   28   29 1
  54   28   30 1
  55   28   53 1
  56   29   54 1
  57   29   55 1
  58   30   31 1
  59   30   32 1
  60   31   56 1
  61   31   57 1
  62   31   58 1
  63   32   59 1
  64   32   60 1
  65   32   61 1
  66   33   62 1
  67   33   63 1
  68   33   64 1
  69   34   65 1
  70   34   66 1
  71   34   67 1

#	End of record

