#	Name: ASD03540586
#	Creating user name:	WinNT
#	Creation time:	15. 06. 2019 20:43

#	Modifying user name:	WinNT
#	Modification time:	15. 06. 2019 20:43

#	Program:	/corina/corina34_cracker 3.40 0067  02.08.2006

@<TRIPOS>MOLECULE
ASD03540586
  64   68    0    0    0
SMALL
NO_CHARGES


@<TRIPOS>ATOM
   1 N1            -1.3080    -0.1363     0.7645 N.pl3   
   2 C2            -0.9753    -1.4428     0.5507 C.2     
   3 N3             0.3435    -1.8471     0.4660 N.am    
   4 C4             1.3512    -0.9589     0.5932 C.2     
   5 C5             1.0236     0.4604     0.8250 C.ar    
   6 C6             2.0228     1.4167     0.9642 C.ar    
   7 C7             1.6731     2.7477     1.1832 C.ar    
   8 C8             0.3243     3.1137     1.2615 C.ar    
   9 C9            -0.6648     2.1662     1.1240 C.ar    
  10 C10           -0.3294     0.8361     0.9050 C.ar    
  11 N11           -3.0992    -1.3119     0.6039 N.2     
  12 N12           -2.1035    -2.1118     0.4610 N.2     
  13 C13           -2.6729    -0.0946     0.7975 C.2     
  14 C14            2.7262     3.7726     1.3332 C.2     
  15 O15            3.8977     3.4549     1.2657 O.2     
  16 N16            2.3882     5.0600     1.5450 N.am    
  17 C17            3.4326     6.0765     1.6938 C.3     
  18 C18            2.7946     7.4230     1.9193 C.ar    
  19 C19            2.5190     7.8495     3.2054 C.ar    
  20 C20            1.9342     9.0834     3.4148 C.ar    
  21 C21            1.6233     9.8948     2.3333 C.ar    
  22 C22            1.9009     9.4646     1.0439 C.ar    
  23 C23            2.4909     8.2323     0.8402 C.ar    
  24 O24            1.0475    11.1089     2.5366 O.3     
  25 C25            0.7552    11.8907     1.3768 C.3     
  26 O26            2.5095    -1.3223     0.5183 O.2     
  27 C27            0.6519    -3.2606     0.2354 C.3     
  28 C28            0.7363    -3.5210    -1.2466 C.ar    
  29 C29            1.9479    -3.3878    -1.9013 C.ar    
  30 C30            2.0320    -3.6247    -3.2578 C.ar    
  31 C31            0.8916    -4.0000    -3.9696 C.ar    
  32 C32           -0.3274    -4.1330    -3.3029 C.ar    
  33 C33           -0.3969    -3.8978    -1.9453 C.ar    
  34 C34            0.9743    -4.2550    -5.4236 C.2     
  35 N35            0.0086    -3.7962    -6.2442 N.am    
  36 O36            1.9132    -4.8784    -5.8788 O.2     
  37 C37            0.1347    -3.9710    -7.6933 C.3     
  38 C38           -1.1672    -3.1228    -5.6872 C.3     
  39 H39            3.0623     1.1302     0.9035 H       
  40 H40            0.0578     4.1465     1.4313 H       
  41 H41           -1.7029     2.4573     1.1865 H       
  42 H42           -3.2843     0.7828     0.9485 H       
  43 H43            1.4535     5.3135     1.5989 H       
  44 H44            4.0643     5.8264     2.5462 H       
  45 H45            4.0396     6.1090     0.7890 H       
  46 H46            2.7609     7.2172     4.0469 H       
  47 H47            1.7188     9.4159     4.4195 H       
  48 H48            1.6598    10.0945     0.2004 H       
  49 H49            2.7115     7.8989    -0.1632 H       
  50 H50            0.0656    11.3435     0.7341 H       
  51 H51            0.2993    12.8334     1.6794 H       
  52 H52            1.6777    12.0916     0.8321 H       
  53 H53            1.6060    -3.5052     0.7022 H       
  54 H54           -0.1338    -3.8793     0.6688 H       
  55 H55            2.8296    -3.0974    -1.3494 H       
  56 H56            2.9782    -3.5197    -3.7679 H       
  57 H57           -1.2136    -4.4231    -3.8479 H       
  58 H58           -1.3387    -4.0040    -1.4275 H       
  59 H59           -0.3198    -4.9175    -7.9860 H       
  60 H60           -0.3718    -3.1517    -8.2035 H       
  61 H61            1.1893    -3.9738    -7.9685 H       
  62 H62           -1.0385    -2.9970    -4.6121 H       
  63 H63           -1.2824    -2.1456    -6.1561 H       
  64 H64           -2.0555    -3.7248    -5.8788 H       
@<TRIPOS>BOND
   1    1    2 1
   2    1   10 1
   3    1   13 1
   4    2    3 1
   5    2   12 2
   6    3    4 am
   7    3   27 1
   8    4    5 1
   9    4   26 2
  10    5    6 ar
  11    5   10 ar
  12    6    7 ar
  13    6   39 1
  14    7    8 ar
  15    7   14 1
  16    8    9 ar
  17    8   40 1
  18    9   10 ar
  19    9   41 1
  20   11   12 1
  21   11   13 2
  22   13   42 1
  23   14   15 2
  24   14   16 am
  25   16   17 1
  26   16   43 1
  27   17   18 1
  28   17   44 1
  29   17   45 1
  30   18   19 ar
  31   18   23 ar
  32   19   20 ar
  33   19   46 1
  34   20   21 ar
  35   20   47 1
  36   21   22 ar
  37   21   24 1
  38   22   23 ar
  39   22   48 1
  40   23   49 1
  41   24   25 1
  42   25   50 1
  43   25   51 1
  44   25   52 1
  45   27   28 1
  46   27   53 1
  47   27   54 1
  48   28   29 ar
  49   28   33 ar
  50   29   30 ar
  51   29   55 1
  52   30   31 ar
  53   30   56 1
  54   31   32 ar
  55   31   34 1
  56   32   33 ar
  57   32   57 1
  58   33   58 1
  59   34   35 am
  60   34   36 2
  61   35   37 1
  62   35   38 1
  63   37   59 1
  64   37   60 1
  65   37   61 1
  66   38   62 1
  67   38   63 1
  68   38   64 1

#	End of record

