#	Name: ASD01150180
#	Creating user name:	WinNT
#	Creation time:	15. 06. 2019 19:03

#	Modifying user name:	WinNT
#	Modification time:	15. 06. 2019 19:03

#	Program:	/corina/corina34_cracker 3.40 0067  02.08.2006

@<TRIPOS>MOLECULE
ASD01150180
  44   46    0    0    0
SMALL
NO_CHARGES


@<TRIPOS>ATOM
   1 N1            -0.0167     1.3827     0.0096 N.pl3   
   2 C2             0.0021    -0.0041     0.0020 C.2     
   3 C3            -1.3270    -0.4122     0.0125 C.2     
   4 N4            -2.0822     0.6881     0.0256 N.2     
   5 C5            -1.3157     1.7570     0.0300 C.2     
   6 C6             1.0189    -0.9766    -0.0125 C.2     
   7 N7             0.6824    -2.2831    -0.0159 N.am    
   8 C8            -0.6060    -2.6662    -0.0061 C.2     
   9 N9            -1.6093    -1.7685     0.0079 N.am    
  10 O10            2.1907    -0.6424    -0.0223 O.2     
  11 C11           -3.0009    -2.2263     0.0187 C.3     
  12 O12           -0.8719    -3.8528    -0.0100 O.2     
  13 C13            1.7372    -3.2997    -0.0310 C.3     
  14 C14            2.1123    -3.6555     1.3845 C.ar    
  15 C15            1.4532    -4.6808     2.0368 C.ar    
  16 C16            1.7967    -5.0082     3.3348 C.ar    
  17 C17            2.8013    -4.3089     3.9819 C.ar    
  18 C18            3.4607    -3.2821     3.3276 C.ar    
  19 C19            3.1191    -2.9600     2.0278 C.ar    
  20 O20           -1.7589     3.0340     0.0428 O.3     
  21 C21           -3.1744     3.2294     0.0517 C.3     
  22 C22            1.1478     2.2715     0.0033 C.3     
  23 C23           -3.4717    -2.3931     1.4649 C.3     
  24 F24            3.1376    -4.6278     5.2509 F       
  25 C25           -4.9251    -2.8712     1.4761 C.3     
  26 H26           -3.6290    -1.4919    -0.4855 H       
  27 H27           -3.0728    -3.1826    -0.4994 H       
  28 H28            1.3764    -4.1901    -0.5460 H       
  29 H29            2.6115    -2.9084    -0.5512 H       
  30 H30            0.6694    -5.2259     1.5320 H       
  31 H31            1.2814    -5.8090     3.8443 H       
  32 H32            4.2444    -2.7360     3.8314 H       
  33 H33            3.6333    -2.1592     1.5173 H       
  34 H34           -3.3938     4.2970     0.0616 H       
  35 H35           -3.6092     2.7774    -0.8398 H       
  36 H36           -3.6000     2.7627     0.9401 H       
  37 H37            1.4268     2.4974    -1.0259 H       
  38 H38            0.9017     3.1966     0.5245 H       
  39 H39            1.9815     1.7817     0.5066 H       
  40 H40           -2.8437    -3.1275     1.9691 H       
  41 H41           -3.3999    -1.4367     1.9829 H       
  42 H42           -5.2605    -2.9900     2.5064 H       
  43 H43           -5.5531    -2.1368     0.9720 H       
  44 H44           -4.9969    -3.8275     0.9581 H       
@<TRIPOS>BOND
   1    1    2 1
   2    1   22 1
   3    1    5 1
   4    2    3 2
   5    2    6 1
   6    3    4 1
   7    3    9 1
   8    4    5 2
   9    5   20 1
  10    6    7 am
  11    6   10 2
  12    7    8 am
  13    7   13 1
  14    8    9 am
  15    8   12 2
  16    9   11 1
  17   11   23 1
  18   11   26 1
  19   11   27 1
  20   13   14 1
  21   13   28 1
  22   13   29 1
  23   14   15 ar
  24   14   19 ar
  25   15   16 ar
  26   15   30 1
  27   16   17 ar
  28   16   31 1
  29   17   18 ar
  30   17   24 1
  31   18   19 ar
  32   18   32 1
  33   19   33 1
  34   20   21 1
  35   21   34 1
  36   21   35 1
  37   21   36 1
  38   22   37 1
  39   22   38 1
  40   22   39 1
  41   23   25 1
  42   23   40 1
  43   23   41 1
  44   25   42 1
  45   25   43 1
  46   25   44 1

#	End of record

