#	Name: ASD01530075
#	Creating user name:	WinNT
#	Creation time:	15. 06. 2019 19:22

#	Modifying user name:	WinNT
#	Modification time:	15. 06. 2019 19:22

#	Program:	/corina/corina34_cracker 3.40 0067  02.08.2006

@<TRIPOS>MOLECULE
ASD01530075
  45   47    0    0    0
SMALL
NO_CHARGES


@<TRIPOS>ATOM
   1 C1            -0.0184     1.5072     0.0103 C.3     
   2 C2             0.0023    -0.0039     0.0359 C.ar    
   3 C3            -0.2527    -0.3961     1.3422 C.ar    
   4 C4             1.3891     2.0456    -0.0002 C.ar    
   5 C5            -0.4379     0.8612     2.1598 C.3     
   6 C6             0.2146    -0.9510    -0.9471 C.ar    
   7 C7            -0.2950    -1.7333     1.6679 C.ar    
   8 C8             1.7985     2.9286     0.9815 C.ar    
   9 C9             2.2721     1.6519    -0.9883 C.ar    
  10 C10            0.1742    -2.2944    -0.6344 C.ar    
  11 C11           -0.0805    -2.6959     0.6787 C.ar    
  12 C12            3.0893     3.4227     0.9722 C.ar    
  13 C13            3.5633     2.1451    -0.9981 C.ar    
  14 C14            3.9717     3.0331    -0.0193 C.ar    
  15 C15           -0.1229    -4.0886     1.0094 C.1     
  16 Br16           5.7376     3.7091    -0.0329 Br      
  17 O17           -0.6960     1.9142     1.2131 O.3     
  18 N18           -1.3584     5.4886    -2.6028 N.3     
  19 N19           -0.1565    -5.1934     1.2717 N.1     
  20 C20           -0.7812     2.0032    -1.2197 C.3     
  21 C21           -0.6865     3.5283    -1.2978 C.3     
  22 C22           -1.4493     4.0243    -2.5279 C.3     
  23 C23            0.0241     5.9182    -2.8521 C.3     
  24 C24           -2.2678     6.0208    -3.6264 C.3     
  25 H25           -1.2852     0.7480     2.8360 H       
  26 H26            0.4679     1.0776     2.7262 H       
  27 H27            0.4121    -0.6396    -1.9621 H       
  28 H28           -0.4932    -2.0370     2.6852 H       
  29 H29            1.1095     3.2327     1.7556 H       
  30 H30            1.9532     0.9585    -1.7525 H       
  31 H31            0.3400    -3.0341    -1.4037 H       
  32 H32            3.4089     4.1131     1.7388 H       
  33 H33            4.2530     1.8377    -1.7703 H       
  34 H34           -0.3457     1.5657    -2.1181 H       
  35 H35           -1.8274     1.7076    -1.1421 H       
  36 H36           -1.1220     3.9658    -0.3994 H       
  37 H37            0.3597     3.8239    -1.3754 H       
  38 H38           -2.4955     3.7287    -2.4502 H       
  39 H39           -1.0138     3.5868    -3.4262 H       
  40 H40            0.3705     5.4977    -3.7962 H       
  41 H41            0.0628     7.0063    -2.9030 H       
  42 H42            0.6646     5.5693    -2.0422 H       
  43 H43           -3.2933     5.7464    -3.3794 H       
  44 H44           -2.1804     7.1067    -3.6608 H       
  45 H45           -2.0043     5.6041    -4.5985 H       
@<TRIPOS>BOND
   1    1    2 1
   2    1    4 1
   3    1   17 1
   4    1   20 1
   5    2    3 ar
   6    2    6 ar
   7    3    5 1
   8    3    7 ar
   9    4    8 ar
  10    4    9 ar
  11    5   25 1
  12    5   26 1
  13    5   17 1
  14    6   10 ar
  15    6   27 1
  16    7   11 ar
  17    7   28 1
  18    8   12 ar
  19    8   29 1
  20    9   13 ar
  21    9   30 1
  22   10   11 ar
  23   10   31 1
  24   11   15 1
  25   12   14 ar
  26   12   32 1
  27   13   14 ar
  28   13   33 1
  29   14   16 1
  30   15   19 3
  31   18   22 1
  32   18   23 1
  33   18   24 1
  34   20   21 1
  35   20   34 1
  36   20   35 1
  37   21   22 1
  38   21   36 1
  39   21   37 1
  40   22   38 1
  41   22   39 1
  42   23   40 1
  43   23   41 1
  44   23   42 1
  45   24   43 1
  46   24   44 1
  47   24   45 1

#	End of record

