#	Name: ASD01914019
#	Creating user name:	WinNT
#	Creation time:	15. 06. 2019 20:02

#	Modifying user name:	WinNT
#	Modification time:	15. 06. 2019 20:02

#	Program:	/corina/corina34_cracker 3.40 0067  02.08.2006

@<TRIPOS>MOLECULE
ASD01914019
  35   37    0    0    0
SMALL
NO_CHARGES


@<TRIPOS>ATOM
   1 C1            -0.0167     1.3784     0.0096 C.ar    
   2 C2             0.0021    -0.0041     0.0020 C.ar    
   3 C3             1.2074    -0.6814    -0.0131 C.ar    
   4 C4             2.3802     1.4093    -0.0131 C.ar    
   5 C5             1.1695     2.0865     0.0021 C.ar    
   6 O6             3.5484     2.1036    -0.0201 O.3     
   7 C7             4.7565     1.3405    -0.0357 C.3     
   8 C8             5.9399     2.2735    -0.0414 C.ar    
   9 N9             7.1605     1.7732    -0.0557 N.ar    
  10 C10            8.2283     2.5440    -0.0613 C.ar    
  11 C11            8.1003     3.9336    -0.0517 C.ar    
  12 C12            6.8172     4.4945    -0.0366 C.ar    
  13 C13            5.7284     3.6408    -0.0374 C.ar    
  14 C14            9.2986     4.7986    -0.0571 C.2     
  15 N15           10.5281     4.2467    -0.0712 N.am    
  16 O16            9.1752     6.0079    -0.0486 O.2     
  17 C17           11.6542     5.0597    -0.0762 C.2     
  18 C18            2.3963     0.0221    -0.0207 C.ar    
  19 N19           12.8783     4.6327    -0.0896 N.2     
  20 C20           13.8300     5.5472    -0.0932 C.2     
  21 C21           13.3893     6.8067    -0.0824 C.2     
  22 S22           11.6280     6.7692    -0.0731 S.3     
  23 H23           -0.9595     1.9052     0.0169 H       
  24 H24           -0.9263    -0.5558     0.0083 H       
  25 H25            1.2194    -1.7613    -0.0187 H       
  26 H26            1.1543     3.1664     0.0077 H       
  27 H27            4.7976     0.7070     0.8504 H       
  28 H28            4.7810     0.7171    -0.9295 H       
  29 H29            9.2113     2.0970    -0.0730 H       
  30 H30            6.6811     5.5658    -0.0285 H       
  31 H31            4.7240     4.0376    -0.0259 H       
  32 H32           10.6265     3.2817    -0.0780 H       
  33 H33            3.3375    -0.5074    -0.0325 H       
  34 H34           14.8804     5.2965    -0.1037 H       
  35 H35           14.0048     7.6942    -0.0825 H       
@<TRIPOS>BOND
   1    1    2 ar
   2    1    5 ar
   3    1   23 1
   4    2    3 ar
   5    2   24 1
   6    3   18 ar
   7    3   25 1
   8    4    5 ar
   9    4    6 1
  10    4   18 ar
  11    5   26 1
  12    6    7 1
  13    7    8 1
  14    7   27 1
  15    7   28 1
  16    8    9 ar
  17    8   13 ar
  18    9   10 ar
  19   10   11 ar
  20   10   29 1
  21   11   12 ar
  22   11   14 1
  23   12   13 ar
  24   12   30 1
  25   13   31 1
  26   14   15 am
  27   14   16 2
  28   15   17 1
  29   15   32 1
  30   17   19 2
  31   17   22 1
  32   18   33 1
  33   19   20 1
  34   20   21 2
  35   20   34 1
  36   21   22 1
  37   21   35 1

#	End of record

