#	Name: ASD01882879
#	Creating user name:	WinNT
#	Creation time:	15. 06. 2019 19:45

#	Modifying user name:	WinNT
#	Modification time:	15. 06. 2019 19:45

#	Program:	/corina/corina34_cracker 3.40 0067  02.08.2006

@<TRIPOS>MOLECULE
ASD01882879
  22   21    0    0    0
SMALL
NO_CHARGES


@<TRIPOS>ATOM
   1 C1            -0.0184     1.5028     0.0103 C.2     
   2 C2             0.0021    -0.0041     0.0020 C.3     
   3 C3             1.4513    -0.4944    -0.0145 C.3     
   4 C4             1.4726    -2.0183    -0.1486 C.3     
   5 O5             1.0197     2.1211     0.0037 O.2     
   6 O6            -1.1898     2.1580     0.0194 O.3     
   7 C7            -0.6897    -0.5226     1.2364 C.2     
   8 O8            -1.6630    -1.2296     1.1311 O.2     
   9 C9            -1.1335     3.6089     0.0270 C.3     
  10 C10           -2.5551     4.1744     0.0369 C.3     
  11 H11           -0.5153    -0.3696    -0.8850 H       
  12 H12            1.9763    -0.0479    -0.8589 H       
  13 H13            1.9435    -0.2044     0.9138 H       
  14 H14            2.5050    -2.3676    -0.1603 H       
  15 H15            0.9476    -2.4648     0.6959 H       
  16 H16            0.9804    -2.3083    -1.0769 H       
  17 H17           -0.3149    -0.2620     2.2152 H       
  18 H18           -0.6017     3.9472     0.9164 H       
  19 H19           -0.6102     3.9569    -0.8636 H       
  20 H20           -3.0869     3.8361    -0.8525 H       
  21 H21           -3.0784     3.8265     0.9275 H       
  22 H22           -2.5128     5.2636     0.0426 H       
@<TRIPOS>BOND
   1    1    2 1
   2    1    5 2
   3    1    6 1
   4    2    3 1
   5    2    7 1
   6    2   11 1
   7    3    4 1
   8    3   12 1
   9    3   13 1
  10    4   14 1
  11    4   15 1
  12    4   16 1
  13    6    9 1
  14    7    8 2
  15    7   17 1
  16    9   10 1
  17    9   18 1
  18    9   19 1
  19   10   20 1
  20   10   21 1
  21   10   22 1

#	End of record

