#	Name: ASD01918085
#	Creating user name:	WinNT
#	Creation time:	15. 06. 2019 20:10

#	Modifying user name:	WinNT
#	Modification time:	15. 06. 2019 20:10

#	Program:	/corina/corina34_cracker 3.40 0067  02.08.2006

@<TRIPOS>MOLECULE
ASD01918085
  28   30    0    0    0
SMALL
NO_CHARGES


@<TRIPOS>ATOM
   1 C1            -0.0168     1.3908     0.0097 C.ar    
   2 C2             0.0021    -0.0041     0.0115 C.ar    
   3 C3             1.2365    -0.6453    -0.0042 C.ar    
   4 N4             2.3451     0.0883    -0.0202 N.ar    
   5 C5             2.2871     1.4046    -0.0213 C.ar    
   6 N6             1.1404     2.0517    -0.0069 N.ar    
   7 C7            -1.3042     2.1264     0.0198 C.ar    
   8 C8            -2.5046     1.4314    -0.0832 C.ar    
   9 C9            -3.7116     2.1293    -0.0731 C.ar    
  10 C10           -3.7098     3.5226     0.0404 C.ar    
  11 C11           -2.5162     4.2075     0.1418 C.ar    
  12 C12           -1.3138     3.5184     0.1385 C.ar    
  13 C13           -4.9511     1.4200    -0.1793 C.1     
  14 N14           -5.9343     0.8573    -0.2635 N.1     
  15 Cl15          -2.5211     5.9379     0.2813 Cl      
  16 F16           -0.1488     4.1943     0.2443 F       
  17 N17            1.3100    -2.0394    -0.0026 N.pl3   
  18 N18            0.2233    -2.9234     0.0133 N.2     
  19 C19            0.6892    -4.1455     0.0089 C.2     
  20 C20            2.0877    -4.0846    -0.0100 C.2     
  21 C21            2.4485    -2.7812    -0.0223 C.2     
  22 H22           -0.9170    -0.5710     0.0251 H       
  23 H23            3.2074     1.9696    -0.0346 H       
  24 H24           -2.5018     0.3550    -0.1710 H       
  25 H25           -4.6442     4.0640     0.0483 H       
  26 H26            0.0960    -5.0480     0.0187 H       
  27 H27            2.7601    -4.9298    -0.0178 H       
  28 H28            3.4585    -2.3992    -0.0420 H       
@<TRIPOS>BOND
   1    1    2 ar
   2    1    6 ar
   3    1    7 1
   4    2    3 ar
   5    2   22 1
   6    3    4 ar
   7    3   17 1
   8    4    5 ar
   9    5    6 ar
  10    5   23 1
  11    7    8 ar
  12    7   12 ar
  13    8    9 ar
  14    8   24 1
  15    9   10 ar
  16    9   13 1
  17   10   11 ar
  18   10   25 1
  19   11   12 ar
  20   11   15 1
  21   12   16 1
  22   13   14 3
  23   17   18 1
  24   17   21 1
  25   18   19 2
  26   19   20 1
  27   19   26 1
  28   20   21 2
  29   20   27 1
  30   21   28 1

#	End of record

