#	Name: ASD01440016
#	Creating user name:	WinNT
#	Creation time:	15. 06. 2019 19:20

#	Modifying user name:	WinNT
#	Modification time:	15. 06. 2019 19:20

#	Program:	/corina/corina34_cracker 3.40 0067  02.08.2006

@<TRIPOS>MOLECULE
ASD01440016
  41   43    0    0    0
SMALL
NO_CHARGES


@<TRIPOS>ATOM
   1 C1             0.9414    -0.2787     0.4801 C.ar    
   2 C2            -0.0423     0.3916     1.1836 C.ar    
   3 N3             0.1949     1.5711     1.7232 N.ar    
   4 C4             1.3698     2.1595     1.6176 C.ar    
   5 C5             2.4079     1.5492     0.9266 C.ar    
   6 C6             2.1912     0.3027     0.3442 C.ar    
   7 N7             3.6536     2.1775     0.8164 N.am    
   8 C8             4.7799     1.4384     0.7768 C.2     
   9 C9             6.1106     2.1050     0.5401 C.3     
  10 O10            4.7226     0.2368     0.9318 O.2     
  11 O11            7.1445     1.1185     0.5418 O.3     
  12 C12            8.4133     1.5555     0.3406 C.ar    
  13 C13            8.6576     2.9111     0.1508 C.ar    
  14 C14            9.4659     0.6471     0.3305 C.ar    
  15 C15           10.7546     1.0862     0.1271 C.ar    
  16 C16           11.0043     2.4481    -0.0694 C.ar    
  17 C17            9.9431     3.3588    -0.0537 C.ar    
  18 C18           12.3836     2.9232    -0.2872 C.2     
  19 C19           12.6332     4.3425    -0.6114 C.ar    
  20 O20           13.3151     2.1466    -0.1999 O.2     
  21 C21           13.3719     6.5298     0.0525 C.ar    
  22 C22           13.1407     5.2059     0.3621 C.ar    
  23 C23           12.3681     4.8269    -1.8959 C.ar    
  24 C24           12.6047     6.1549    -2.1911 C.ar    
  25 C25           13.1025     7.0044    -1.2194 C.ar    
  26 Cl26          11.7439     3.7617    -3.1164 Cl      
  27 H27            0.7389    -1.2464     0.0454 H       
  28 H28           -1.0187    -0.0570     1.2922 H       
  29 H29            1.5263     3.1263     2.0729 H       
  30 H30            2.9783    -0.1984    -0.1996 H       
  31 H31            3.7063     3.1449     0.7685 H       
  32 H32            6.0957     2.6140    -0.4237 H       
  33 H33            6.2994     2.8305     1.3313 H       
  34 H34            7.8375     3.6138     0.1635 H       
  35 H35            9.2722    -0.4044     0.4827 H       
  36 H36           11.5717     0.3800     0.1198 H       
  37 H37           10.1320     4.4118    -0.2013 H       
  38 H38           13.7643     7.1981     0.8047 H       
  39 H39           13.3513     4.8377     1.3553 H       
  40 H40           12.4010     6.5311    -3.1828 H       
  41 H41           13.2854     8.0423    -1.4555 H       
@<TRIPOS>BOND
   1    1    2 ar
   2    1    6 ar
   3    1   27 1
   4    2    3 ar
   5    2   28 1
   6    3    4 ar
   7    4    5 ar
   8    4   29 1
   9    5    6 ar
  10    5    7 1
  11    6   30 1
  12    7    8 am
  13    7   31 1
  14    8    9 1
  15    8   10 2
  16    9   11 1
  17    9   32 1
  18    9   33 1
  19   11   12 1
  20   12   14 ar
  21   12   13 ar
  22   13   17 ar
  23   13   34 1
  24   14   15 ar
  25   14   35 1
  26   15   16 ar
  27   15   36 1
  28   16   17 ar
  29   16   18 1
  30   17   37 1
  31   18   19 1
  32   18   20 2
  33   19   23 ar
  34   19   22 ar
  35   21   22 ar
  36   21   25 ar
  37   21   38 1
  38   22   39 1
  39   23   24 ar
  40   23   26 1
  41   24   25 ar
  42   24   40 1
  43   25   41 1

#	End of record

