#	Name: ASD01916888
#	Creating user name:	WinNT
#	Creation time:	15. 06. 2019 20:08

#	Modifying user name:	WinNT
#	Modification time:	15. 06. 2019 20:08

#	Program:	/corina/corina34_cracker 3.40 0067  02.08.2006

@<TRIPOS>MOLECULE
ASD01916888
  62   66    0    0    0
SMALL
NO_CHARGES


@<TRIPOS>ATOM
   1 C1            -0.0167     1.3813     0.0096 C.ar    
   2 C2             0.0021    -0.0041     0.0020 C.ar    
   3 C3             1.2089    -0.6844    -0.0127 C.ar    
   4 C4             2.3978     0.0157    -0.0199 C.ar    
   5 C5             2.3835     1.4091    -0.0128 C.ar    
   6 C6             1.1675     2.0893     0.0021 C.ar    
   7 C7             3.6597     2.1663    -0.0200 C.2     
   8 N8             3.7758     3.5011    -0.0142 N.2     
   9 N9             4.8641     1.6385    -0.0273 N.2     
  10 N10            5.7738     2.7084    -0.0322 N.pl3   
  11 C11            5.0392     3.8351    -0.0234 C.2     
  12 C12            5.5803     5.2417    -0.0251 C.3     
  13 C13            7.2358     2.6155    -0.0408 C.3     
  14 C14            7.7288     2.5849    -1.4646 C.2     
  15 O15            6.9369     2.6356    -2.3818 O.2     
  16 N16            9.0498     2.5011    -1.7187 N.am    
  17 C17            9.5522     2.4698    -3.1007 C.3     
  18 C18           10.6443     3.5349    -3.2458 C.3     
  19 N19           11.6647     3.3298    -2.2091 N.3     
  20 C20           11.1005     3.5047    -0.8641 C.3     
  21 C21           10.0275     2.4446    -0.6214 C.3     
  22 C22           12.7521     4.1728    -2.4067 C.ar    
  23 N23           12.7550     5.0105    -3.4320 N.ar    
  24 C24           13.8252     4.1329    -1.5219 C.ar    
  25 C25           13.7671     5.8276    -3.6550 C.ar    
  26 C26           14.8663     5.8373    -2.8204 C.ar    
  27 C27           14.9003     4.9775    -1.7302 C.ar    
  28 C28            5.0841     5.9958    -1.2712 C.3     
  29 C29           16.0845     4.9615    -0.7983 C.3     
  30 C30            4.2668     7.2005    -0.7609 C.3     
  31 C31            4.8098     7.4500     0.6681 C.3     
  32 C32            5.0472     6.0144     1.1990 C.3     
  33 F33           -1.1597    -0.6935     0.0095 F       
  34 H34           -0.9597     1.9077     0.0170 H       
  35 H35            1.2191    -1.7644    -0.0183 H       
  36 H36            3.3381    -0.5154    -0.0307 H       
  37 H37            1.1520     3.1692     0.0077 H       
  38 H38            6.6700     5.2222    -0.0097 H       
  39 H39            7.6579     3.4802     0.4713 H       
  40 H40            7.5450     1.7038     0.4704 H       
  41 H41            9.9691     1.4861    -3.3165 H       
  42 H42            8.7370     2.6848    -3.7916 H       
  43 H43           11.1044     3.4523    -4.2304 H       
  44 H44           10.2039     4.5254    -3.1316 H       
  45 H45           11.8915     3.4002    -0.1214 H       
  46 H46           10.6537     4.4956    -0.7831 H       
  47 H47            9.5274     2.6402     0.3272 H       
  48 H48           10.4873     1.4566    -0.5991 H       
  49 H49           13.8185     3.4519    -0.6838 H       
  50 H50           13.7349     6.4971    -4.5018 H       
  51 H51           15.6900     6.5092    -3.0111 H       
  52 H52            5.9330     6.3431    -1.8601 H       
  53 H53            4.4519     5.3445    -1.8748 H       
  54 H54           15.9223     5.6770     0.0077 H       
  55 H55           16.2033     3.9624    -0.3788 H       
  56 H56           16.9846     5.2333    -1.3498 H       
  57 H57            4.4383     8.0726    -1.3918 H       
  58 H58            3.2053     6.9550    -0.7282 H       
  59 H59            5.7451     8.0087     0.6338 H       
  60 H60            4.0702     7.9697     1.2771 H       
  61 H61            4.1117     5.5773     1.5482 H       
  62 H62            5.7882     6.0209     1.9983 H       
@<TRIPOS>BOND
   1    1    2 ar
   2    1    6 ar
   3    1   34 1
   4    2    3 ar
   5    2   33 1
   6    3    4 ar
   7    3   35 1
   8    4    5 ar
   9    4   36 1
  10    5    6 ar
  11    5    7 1
  12    6   37 1
  13    7    8 1
  14    7    9 2
  15    8   11 2
  16    9   10 1
  17   10   11 1
  18   10   13 1
  19   11   12 1
  20   12   28 1
  21   12   32 1
  22   12   38 1
  23   13   14 1
  24   13   39 1
  25   13   40 1
  26   14   15 2
  27   14   16 am
  28   16   17 1
  29   16   21 1
  30   17   18 1
  31   17   41 1
  32   17   42 1
  33   18   19 1
  34   18   43 1
  35   18   44 1
  36   19   20 1
  37   19   22 1
  38   20   21 1
  39   20   45 1
  40   20   46 1
  41   21   47 1
  42   21   48 1
  43   22   23 ar
  44   22   24 ar
  45   23   25 ar
  46   24   27 ar
  47   24   49 1
  48   25   26 ar
  49   25   50 1
  50   26   27 ar
  51   26   51 1
  52   27   29 1
  53   28   30 1
  54   28   52 1
  55   28   53 1
  56   29   54 1
  57   29   55 1
  58   29   56 1
  59   30   31 1
  60   30   57 1
  61   30   58 1
  62   31   32 1
  63   31   59 1
  64   31   60 1
  65   32   61 1
  66   32   62 1

#	End of record

