#	Name: ASD03240249
#	Creating user name:	WinNT
#	Creation time:	15. 06. 2019 20:34

#	Modifying user name:	WinNT
#	Modification time:	15. 06. 2019 20:34

#	Program:	/corina/corina34_cracker 3.40 0067  02.08.2006

@<TRIPOS>MOLECULE
ASD03240249
  90   94    0    0    0
SMALL
NO_CHARGES


@<TRIPOS>ATOM
   1 C1            -0.0161     1.3740    -0.0449 C.2     
   2 N2             0.0028    -0.0006    -0.0572 N.pl3   
   3 C3            -3.6506     2.2724     0.0299 C.3     
   4 C4            -2.4742     1.2946    -0.0003 C.3     
   5 N5            -1.2160     2.0447    -0.0170 N.pl3   
   6 N6             1.1034     2.0414    -0.0544 N.2     
   7 N7            -4.9089     1.5223     0.0466 N.pl3   
   8 C8            -6.1208     2.1998     0.0748 C.ar    
   9 C9            -7.3256     1.4813     0.0908 C.ar    
  10 C10           -8.5347     2.1620     0.1190 C.ar    
  11 C11           -8.5450     3.5579     0.1313 C.ar    
  12 C12           -7.3389     4.2659     0.1152 C.ar    
  13 C13           -6.1398     3.5899     0.0930 C.ar    
  14 C14           -9.8276     4.2861     0.1608 C.2     
  15 N15           -9.8373     5.6337     0.1727 N.am    
  16 O16          -10.8762     3.6703     0.1744 O.2     
  17 C17          -11.0521     6.3262     0.0876 C.ar    
  18 C18          -11.2193     7.5217     0.7741 C.ar    
  19 C19          -12.0870     5.8200    -0.6878 C.ar    
  20 C20          -13.2840     6.5026    -0.7721 C.ar    
  21 C21          -13.4534     7.6953    -0.0810 C.ar    
  22 C22          -12.4166     8.2040     0.6906 C.ar    
  23 N23          -14.6662     8.3874    -0.1668 N.pl3   
  24 C24          -14.8448     9.6455     0.5622 C.3     
  25 C25          -15.7577     7.8539    -0.9855 C.3     
  26 C26           -7.3073    -0.0017     0.0771 C.ar    
  27 C27           -8.0560    -0.7191     1.0083 C.ar    
  28 C28           -8.0356    -2.0990     0.9906 C.ar    
  29 C29           -7.2734    -2.7700     0.0513 C.ar    
  30 C30           -6.5279    -2.0631    -0.8750 C.ar    
  31 C31           -6.5457    -0.6831    -0.8705 C.ar    
  32 C32          -16.6221     6.9510    -0.1437 C.ar    
  33 C33          -14.4159    10.7969    -0.3104 C.ar    
  34 C34          -17.7022     7.4762     0.5432 C.ar    
  35 C35          -18.4979     6.6553     1.3152 C.ar    
  36 C36          -18.2112     5.2916     1.4025 C.ar    
  37 C37          -17.1196     4.7683     0.7066 C.ar    
  38 C38          -16.3353     5.5996    -0.0660 C.ar    
  39 C39          -15.3368    11.4134    -1.1388 C.ar    
  40 C40          -14.9511    12.4682    -1.9398 C.ar    
  41 C41          -13.6279    12.9134    -1.9132 C.ar    
  42 C42          -12.7038    12.2865    -1.0748 C.ar    
  43 C43          -13.1044    11.2363    -0.2752 C.ar    
  44 C44           -7.2548    -4.2768     0.0374 C.3     
  45 C45           -7.7670    -4.7807    -1.3134 C.3     
  46 C46           -5.8236    -4.7712     0.2568 C.3     
  47 C47          -13.2203    14.0074    -2.7424 C.1     
  48 N48          -12.8970    14.8754    -3.4001 N.1     
  49 C49          -19.0326     4.4336     2.2024 C.1     
  50 N50          -19.6842     3.7530     2.8369 N.1     
  51 H51            0.8494    -0.4739    -0.0729 H       
  52 H52           -0.8303    -0.4973    -0.0502 H       
  53 H53           -3.5851     2.8921     0.9242 H       
  54 H54           -3.6179     2.9075    -0.8554 H       
  55 H55           -2.5069     0.6595     0.8850 H       
  56 H56           -2.5397     0.6749    -0.8946 H       
  57 H57           -1.2294     3.0146    -0.0083 H       
  58 H58            1.9500     1.5682    -0.0700 H       
  59 H59           -4.8955     0.5524     0.0380 H       
  60 H60           -9.4649     1.6134     0.1311 H       
  61 H61           -7.3483     5.3458     0.1244 H       
  62 H62           -5.2111     4.1412     0.0810 H       
  63 H63           -9.0032     6.1242     0.2401 H       
  64 H64          -10.4129     7.9175     1.3735 H       
  65 H65          -11.9552     4.8925    -1.2252 H       
  66 H66          -14.0886     6.1092    -1.3757 H       
  67 H67          -12.5482     9.1315     1.2281 H       
  68 H68          -15.8947     9.7642     0.8303 H       
  69 H69          -14.2381     9.6301     1.4676 H       
  70 H70          -16.3592     8.6774    -1.3704 H       
  71 H71          -15.3430     7.2865    -1.8187 H       
  72 H72           -8.6509    -0.1962     1.7425 H       
  73 H73           -8.6154    -2.6559     1.7117 H       
  74 H74           -5.9343    -2.5921    -1.6059 H       
  75 H75           -5.9635    -0.1322    -1.5944 H       
  76 H76          -17.9227     8.5312     0.4751 H       
  77 H77          -19.3405     7.0666     1.8512 H       
  78 H78          -16.8920     3.7144     0.7700 H       
  79 H79          -15.4907     5.1962    -0.6047 H       
  80 H80          -16.3598    11.0679    -1.1586 H       
  81 H81          -15.6708    12.9483    -2.5862 H       
  82 H82          -11.6787    12.6256    -1.0497 H       
  83 H83          -12.3907    10.7505     0.3738 H       
  84 H84           -7.8960    -4.6554     0.8333 H       
  85 H85           -7.1258    -4.4020    -2.1094 H       
  86 H86           -7.7535    -5.8706    -1.3235 H       
  87 H87           -8.7866    -4.4285    -1.4697 H       
  88 H88           -5.4587    -4.4122     1.2191 H       
  89 H89           -5.8101    -5.8611     0.2467 H       
  90 H90           -5.1823    -4.3925    -0.5392 H       
@<TRIPOS>BOND
   1    1    2 1
   2    1    6 2
   3    1    5 1
   4    2   51 1
   5    2   52 1
   6    3    4 1
   7    3    7 1
   8    3   53 1
   9    3   54 1
  10    4    5 1
  11    4   55 1
  12    4   56 1
  13    5   57 1
  14    6   58 1
  15    7    8 1
  16    7   59 1
  17    8    9 ar
  18    8   13 ar
  19    9   10 ar
  20    9   26 1
  21   10   11 ar
  22   10   60 1
  23   11   12 ar
  24   11   14 1
  25   12   13 ar
  26   12   61 1
  27   13   62 1
  28   14   15 am
  29   14   16 2
  30   15   17 1
  31   15   63 1
  32   17   18 ar
  33   17   19 ar
  34   18   22 ar
  35   18   64 1
  36   19   20 ar
  37   19   65 1
  38   20   21 ar
  39   20   66 1
  40   21   22 ar
  41   21   23 1
  42   22   67 1
  43   23   24 1
  44   23   25 1
  45   24   33 1
  46   24   68 1
  47   24   69 1
  48   25   32 1
  49   25   70 1
  50   25   71 1
  51   26   27 ar
  52   26   31 ar
  53   27   28 ar
  54   27   72 1
  55   28   29 ar
  56   28   73 1
  57   29   30 ar
  58   29   44 1
  59   30   31 ar
  60   30   74 1
  61   31   75 1
  62   32   34 ar
  63   32   38 ar
  64   33   39 ar
  65   33   43 ar
  66   34   35 ar
  67   34   76 1
  68   35   36 ar
  69   35   77 1
  70   36   37 ar
  71   36   49 1
  72   37   38 ar
  73   37   78 1
  74   38   79 1
  75   39   40 ar
  76   39   80 1
  77   40   41 ar
  78   40   81 1
  79   41   42 ar
  80   41   47 1
  81   42   43 ar
  82   42   82 1
  83   43   83 1
  84   44   45 1
  85   44   46 1
  86   44   84 1
  87   45   85 1
  88   45   86 1
  89   45   87 1
  90   46   88 1
  91   46   89 1
  92   46   90 1
  93   47   48 3
  94   49   50 3

#	End of record

