#	Name: ASD01901474
#	Creating user name:	WinNT
#	Creation time:	15. 06. 2019 19:53

#	Modifying user name:	WinNT
#	Modification time:	15. 06. 2019 19:53

#	Program:	/corina/corina34_cracker 3.40 0067  02.08.2006

@<TRIPOS>MOLECULE
ASD01901474
  38   41    0    0    0
SMALL
NO_CHARGES


@<TRIPOS>ATOM
   1 C1            -0.0169     1.3935     0.0097 C.ar    
   2 C2             1.1764     2.0978     0.0021 C.ar    
   3 C3             2.3805     1.4196    -0.0130 C.ar    
   4 C4             2.4023     0.0361    -0.0207 C.ar    
   5 C5             1.2209    -0.6777    -0.0137 C.ar    
   6 C6             0.0021    -0.0041     0.0020 C.ar    
   7 C7            -1.2708    -0.7667     0.0106 C.2     
   8 N8            -3.1790    -1.5377    -1.1466 N.2     
   9 C9            -2.0556    -0.8630    -1.1593 C.2     
  10 C10           -1.6974    -1.3906     1.1495 C.2     
  11 N11           -2.8717    -2.0834     1.1227 N.pl3   
  12 C12           -3.6078    -2.1490    -0.0321 C.2     
  13 C13           -3.5487    -2.7965     2.0750 C.2     
  14 C14           -4.6675    -3.2756     1.4909 C.2     
  15 N15           -4.6893    -2.8739     0.2167 N.2     
  16 C16           -5.7177    -4.1211     2.1643 C.3     
  17 O17           -5.3492    -4.3425     3.5271 O.3     
  18 C18           -6.1945    -5.0915     4.2801 C.ar    
  19 C19           -7.3607    -5.6180     3.7330 C.ar    
  20 C20           -5.9133    -5.3572     5.6185 C.ar    
  21 C21           -6.7964    -6.1222     6.3515 C.ar    
  22 N22           -7.8961    -6.6011     5.8006 N.ar    
  23 C23           -8.1958    -6.3758     4.5333 C.ar    
  24 F24           -9.3308    -6.8923     4.0136 F       
  25 O25           -1.2012     2.0591     0.0302 O.3     
  26 H26            1.1655     3.1777     0.0076 H       
  27 H27            3.3085     1.9719    -0.0193 H       
  28 H28            3.3471    -0.4871    -0.0325 H       
  29 H29            1.2417    -1.7575    -0.0204 H       
  30 H30           -1.7290    -0.3787    -2.0676 H       
  31 H31           -1.1134    -1.3359     2.0564 H       
  32 H32           -3.2449    -2.9476     3.1003 H       
  33 H33           -6.6777    -3.6064     2.1265 H       
  34 H34           -5.7983    -5.0785     1.6495 H       
  35 H35           -7.6103    -5.4369     2.6980 H       
  36 H36           -5.0152    -4.9694     6.0762 H       
  37 H37           -6.5851    -6.3323     7.3896 H       
  38 H38           -1.5314     2.2471     0.9195 H       
@<TRIPOS>BOND
   1    1    6 ar
   2    1    2 ar
   3    1   25 1
   4    2    3 ar
   5    2   26 1
   6    3    4 ar
   7    3   27 1
   8    4    5 ar
   9    4   28 1
  10    5    6 ar
  11    5   29 1
  12    6    7 1
  13    7   10 2
  14    7    9 1
  15    8    9 2
  16    8   12 1
  17    9   30 1
  18   10   11 1
  19   10   31 1
  20   11   13 1
  21   11   12 1
  22   12   15 2
  23   13   14 2
  24   13   32 1
  25   14   15 1
  26   14   16 1
  27   16   17 1
  28   16   33 1
  29   16   34 1
  30   17   18 1
  31   18   20 ar
  32   18   19 ar
  33   19   23 ar
  34   19   35 1
  35   20   21 ar
  36   20   36 1
  37   21   22 ar
  38   21   37 1
  39   22   23 ar
  40   23   24 1
  41   25   38 1

#	End of record

