#	Name: ASD05430101
#	Creating user name:	WinNT
#	Creation time:	15. 06. 2019 20:59

#	Modifying user name:	WinNT
#	Modification time:	15. 06. 2019 20:59

#	Program:	/corina/corina34_cracker 3.40 0067  02.08.2006

@<TRIPOS>MOLECULE
ASD05430101
  63   69    0    0    0
SMALL
NO_CHARGES


@<TRIPOS>ATOM
   1 F1             7.6433     6.9630    -3.9263 F       
   2 C2             0.1891     1.1554    -1.0590 C.ar    
   3 C3             0.0178    -0.0112    -0.3119 C.ar    
   4 C4             1.0341    -0.4653     0.5146 C.ar    
   5 C5             2.2265     0.2253     0.6123 C.ar    
   6 C6             2.4235     1.3944    -0.1233 C.ar    
   7 C7             1.3944     1.8647    -0.9687 C.ar    
   8 C8             4.9010    -0.0475    -0.0819 C.3     
   9 C9             4.8562     1.4559     0.0686 C.2     
  10 C10            3.6898     2.1297    -0.0194 C.2     
  11 C11            6.3170    -0.5005    -0.4424 C.3     
  12 C12            7.1093     0.5353    -1.2461 C.3     
  13 N13            7.2237     1.7635    -0.4581 N.pl3   
  14 C14            6.1220     2.1612     0.3142 C.2     
  15 C15            8.2204     3.7641    -1.4006 C.ar    
  16 C16            9.2453     4.1849    -2.2276 C.ar    
  17 C17            9.0526     5.2586    -3.0760 C.ar    
  18 C18            7.8326     5.9130    -3.0976 C.ar    
  19 C19            6.8069     5.4907    -2.2689 C.ar    
  20 C20            7.0019     4.4167    -1.4213 C.ar    
  21 N21           -1.1854    -0.7253    -0.3971 N.pl3   
  22 C22           -1.3202    -2.0707    -0.6222 C.2     
  23 C23           -2.6408    -2.3350    -0.6272 C.2     
  24 N24           -3.2985    -1.1863    -0.4115 N.2     
  25 C25           -2.4376    -0.2158    -0.2663 C.2     
  26 C26            7.0953    -1.0383     0.7622 C.3     
  27 S27            7.9745    -2.1942    -0.3248 S.o2    
  28 C28            6.3514    -1.8944    -1.0771 C.3     
  29 O29            9.0349    -1.5765    -1.0411 O.2     
  30 C30           -3.2706    -3.6876    -0.8393 C.3     
  31 N31            0.0880     2.9622    -2.4010 N.2     
  32 O32           -0.5984     1.8199    -1.9295 O.3     
  33 C33            8.4298     2.5892    -0.4803 C.3     
  34 C34            8.7112     3.0929     0.9399 C.3     
  35 N35            7.4829     3.6467     1.5146 N.pl3   
  36 N36            6.2365     3.0830     1.2176 N.2     
  37 C37            1.2656     3.0195    -1.8556 C.2     
  38 O38            8.0892    -3.4954     0.2345 O.2     
  39 H39            0.8919    -1.3690     1.0886 H       
  40 H40            3.0088    -0.1408     1.2607 H       
  41 H41            4.6007    -0.5135     0.8566 H       
  42 H42            4.2127    -0.3521    -0.8702 H       
  43 H43            3.6883     3.2096    -0.0134 H       
  44 H44            8.1043     0.1463    -1.4619 H       
  45 H45            6.5889     0.7483    -2.1799 H       
  46 H46           10.1969     3.6745    -2.2103 H       
  47 H47            9.8534     5.5874    -3.7217 H       
  48 H48            5.8549     6.0003    -2.2849 H       
  49 H49            6.2020     4.0871    -0.7748 H       
  50 H50           -0.5209    -2.7823    -0.7677 H       
  51 H51           -2.6806     0.8200    -0.0804 H       
  52 H52            7.7502    -0.2944     1.2159 H       
  53 H53            6.4604    -1.5374     1.4943 H       
  54 H54            5.5740    -2.5574    -0.6973 H       
  55 H55            6.3822    -1.8685    -2.1664 H       
  56 H56           -3.3916    -4.1868     0.1220 H       
  57 H57           -4.2459    -3.5644    -1.3101 H       
  58 H58           -2.6298    -4.2898    -1.4834 H       
  59 H59            9.2733     1.9943    -0.8306 H       
  60 H60            9.0595     2.2646     1.5568 H       
  61 H61            9.4774     3.8674     0.9055 H       
  62 H62            7.5338     4.4124     2.1079 H       
  63 H63            2.0129     3.7801    -2.0271 H       
@<TRIPOS>BOND
   1    1   18 1
   2    2    3 ar
   3    2    7 ar
   4    2   32 1
   5    3    4 ar
   6    3   21 1
   7    4    5 ar
   8    4   39 1
   9    5    6 ar
  10    5   40 1
  11    6    7 ar
  12    6   10 1
  13    7   37 1
  14    8    9 1
  15    8   11 1
  16    8   41 1
  17    8   42 1
  18    9   10 2
  19    9   14 1
  20   10   43 1
  21   11   12 1
  22   11   26 1
  23   11   28 1
  24   12   13 1
  25   12   44 1
  26   12   45 1
  27   13   14 1
  28   13   33 1
  29   14   36 2
  30   15   16 ar
  31   15   20 ar
  32   15   33 1
  33   16   17 ar
  34   16   46 1
  35   17   18 ar
  36   17   47 1
  37   18   19 ar
  38   19   20 ar
  39   19   48 1
  40   20   49 1
  41   21   22 1
  42   21   25 1
  43   22   23 2
  44   22   50 1
  45   23   24 1
  46   23   30 1
  47   24   25 2
  48   25   51 1
  49   26   27 1
  50   26   52 1
  51   26   53 1
  52   27   28 1
  53   27   29 2
  54   27   38 2
  55   28   54 1
  56   28   55 1
  57   30   56 1
  58   30   57 1
  59   30   58 1
  60   31   32 1
  61   31   37 2
  62   33   34 1
  63   33   59 1
  64   34   35 1
  65   34   60 1
  66   34   61 1
  67   35   36 1
  68   35   62 1
  69   37   63 1

#	End of record

