#	Name: ASD01916401
#	Creating user name:	WinNT
#	Creation time:	15. 06. 2019 20:07

#	Modifying user name:	WinNT
#	Modification time:	15. 06. 2019 20:07

#	Program:	/corina/corina34_cracker 3.40 0067  02.08.2006

@<TRIPOS>MOLECULE
ASD01916401
  21   21    0    0    0
SMALL
NO_CHARGES


@<TRIPOS>ATOM
   1 C1            -0.0156     1.2992     0.0092 C.2     
   2 N2             0.0021    -0.0041     0.0020 N.2     
   3 C3             1.2740    -0.4345    -0.0124 C.2     
   4 C4             2.0836     0.6396    -0.0144 C.2     
   5 N5             1.2711     1.7496    -0.0007 N.am    
   6 C6             1.6707     3.0367     0.0017 C.2     
   7 O7             0.8467     3.9283     0.0137 O.2     
   8 O8             2.9829     3.3337    -0.0091 O.3     
   9 C9            -1.2506     2.1627     0.0200 C.3     
  10 I10            1.8916    -2.4363    -0.0291 I       
  11 C11            3.3404     4.7410    -0.0057 C.3     
  12 C12            4.8639     4.8802    -0.0193 C.3     
  13 H13            3.1635     0.6321    -0.0242 H       
  14 H14           -1.5430     2.3657     1.0502 H       
  15 H15           -1.0410     3.1029    -0.4902 H       
  16 H16           -2.0610     1.6442    -0.4923 H       
  17 H17            2.9235     5.2239    -0.8895 H       
  18 H18            2.9401     5.2153     0.8903 H       
  19 H19            5.2808     4.3974     0.8646 H       
  20 H20            5.2642     4.4059    -0.9153 H       
  21 H21            5.1323     5.9367    -0.0167 H       
@<TRIPOS>BOND
   1    1    2 2
   2    1    5 1
   3    1    9 1
   4    2    3 1
   5    3    4 2
   6    3   10 1
   7    4    5 1
   8    4   13 1
   9    5    6 am
  10    6    7 2
  11    6    8 1
  12    8   11 1
  13    9   14 1
  14    9   15 1
  15    9   16 1
  16   11   12 1
  17   11   17 1
  18   11   18 1
  19   12   19 1
  20   12   20 1
  21   12   21 1

#	End of record

