#	Name: ASD01882712
#	Creating user name:	WinNT
#	Creation time:	15. 06. 2019 19:45

#	Modifying user name:	WinNT
#	Modification time:	15. 06. 2019 19:45

#	Program:	/corina/corina34_cracker 3.40 0067  02.08.2006

@<TRIPOS>MOLECULE
ASD01882712
  46   48    0    0    0
SMALL
NO_CHARGES


@<TRIPOS>ATOM
   1 S1            -0.0574     1.4382     0.0359 S.o2    
   2 O2            -0.0609     0.0174     0.0608 O.2     
   3 O3             1.1619     2.1680     0.0401 O.2     
   4 N4            -0.7587     1.8230    -1.4141 N.am    
   5 N5             2.9534     2.9161    -3.5320 N.ar    
   6 N6           -10.3372     2.1185    -3.9380 N.1     
   7 C7            -0.4597     3.1061    -2.0547 C.3     
   8 C8            -1.6353     0.9240    -2.0264 C.ar    
   9 C9            -1.1993     2.0995     1.2806 C.3     
  10 C10           -2.9573     1.2832    -2.2438 C.ar    
  11 C11            0.6550     2.9220    -3.0520 C.ar    
  12 C12           -3.8273     0.3835    -2.8546 C.ar    
  13 C13           -1.1817    -0.3283    -2.4230 C.ar    
  14 C14           -0.5609     1.9916     2.6669 C.3     
  15 C15           -3.3645    -0.8731    -3.2439 C.ar    
  16 C16           -2.0461    -1.2205    -3.0291 C.ar    
  17 C17           -5.2421     0.7604    -3.0898 C.ar    
  18 C18            0.3714     2.5973    -4.3700 C.ar    
  19 C19            1.9726     3.0752    -2.6648 C.ar    
  20 C20           -6.1114    -0.1428    -3.7017 C.ar    
  21 C21           -5.7038     2.0158    -2.6937 C.ar    
  22 C22            1.4286     2.4382    -5.2525 C.ar    
  23 C23           -7.4248     0.2060    -3.9211 C.ar    
  24 C24           -7.0169     2.3670    -2.9114 C.ar    
  25 C25            2.7211     2.6073    -4.7926 C.ar    
  26 C26           -7.8874     1.4654    -3.5300 C.ar    
  27 C27           -9.2535     1.8296    -3.7575 C.1     
  28 H28           -1.3492     3.4722    -2.5675 H       
  29 H29           -0.1541     3.8279    -1.2973 H       
  30 H30           -1.4123     3.1453     1.0591 H       
  31 H31           -2.1272     1.5279     1.2624 H       
  32 H32           -3.3109     2.2574    -1.9401 H       
  33 H33           -0.1510    -0.6050    -2.2575 H       
  34 H34            0.3671     2.5631     2.6850 H       
  35 H35           -1.2471     2.3889     3.4148 H       
  36 H36           -0.3479     0.9458     2.8884 H       
  37 H37           -4.0370    -1.5731    -3.7175 H       
  38 H38           -1.6886    -2.1924    -3.3358 H       
  39 H39           -0.6489     2.4710    -4.7010 H       
  40 H40            2.2018     3.3277    -1.6401 H       
  41 H41           -5.7537    -1.1160    -4.0039 H       
  42 H42           -5.0309     2.7123    -2.2157 H       
  43 H43            1.2447     2.1852    -6.2862 H       
  44 H44           -8.0975    -0.4932    -4.3955 H       
  45 H45           -7.3741     3.3391    -2.6050 H       
  46 H46            3.5503     2.4851    -5.4738 H       
@<TRIPOS>BOND
   1    1    2 2
   2    1    3 2
   3    1    4 am
   4    1    9 1
   5    4    7 1
   6    4    8 1
   7    5   19 ar
   8    5   25 ar
   9    6   27 3
  10    7   11 1
  11    7   28 1
  12    7   29 1
  13    8   10 ar
  14    8   13 ar
  15    9   14 1
  16    9   30 1
  17    9   31 1
  18   10   12 ar
  19   10   32 1
  20   11   18 ar
  21   11   19 ar
  22   12   15 ar
  23   12   17 1
  24   13   16 ar
  25   13   33 1
  26   14   34 1
  27   14   35 1
  28   14   36 1
  29   15   16 ar
  30   15   37 1
  31   16   38 1
  32   17   20 ar
  33   17   21 ar
  34   18   22 ar
  35   18   39 1
  36   19   40 1
  37   20   23 ar
  38   20   41 1
  39   21   24 ar
  40   21   42 1
  41   22   25 ar
  42   22   43 1
  43   23   26 ar
  44   23   44 1
  45   24   26 ar
  46   24   45 1
  47   25   46 1
  48   26   27 1

#	End of record

