#	Name: ASD01917069
#	Creating user name:	WinNT
#	Creation time:	15. 06. 2019 20:08

#	Modifying user name:	WinNT
#	Modification time:	15. 06. 2019 20:08

#	Program:	/corina/corina34_cracker 3.40 0067  02.08.2006

@<TRIPOS>MOLECULE
ASD01917069
  49   51    0    0    0
SMALL
NO_CHARGES


@<TRIPOS>ATOM
   1 C1            -0.0184     1.5028     0.0103 C.3     
   2 C2             0.0021    -0.0041     0.0020 C.2     
   3 N3             0.5336    -0.7573    -0.9243 N.2     
   4 C4             0.3686    -2.0488    -0.6084 C.2     
   5 N5            -0.2770    -2.1240     0.5348 N.2     
   6 N6            -0.5186    -0.8043     0.9496 N.pl3   
   7 C7            -1.2101    -0.3820     2.1702 C.3     
   8 C8            -0.2100    -0.2309     3.2874 C.2     
   9 O9            -0.6194     0.1506     4.5075 O.3     
  10 O10            0.9602    -0.4531     3.0849 O.2     
  11 C11            0.3987     0.2754     5.5352 C.3     
  12 C12            0.8360    -3.2031    -1.4154 C.ar    
  13 C13            1.5112    -2.9891    -2.6151 C.ar    
  14 C14            0.6059    -4.5043    -0.9724 C.ar    
  15 C15            1.0426    -5.5745    -1.7254 C.ar    
  16 C16            1.9445    -4.0655    -3.3621 C.ar    
  17 C17            1.7091    -5.3573    -2.9207 C.ar    
  18 F18            2.1350    -6.4082    -3.6551 F       
  19 C19            1.4170     2.0324    -0.0006 C.3     
  20 C20            1.3963     3.5622     0.0079 C.3     
  21 C21            0.6563     4.0690    -1.2317 C.3     
  22 C22           -0.7791     3.5394    -1.2208 C.3     
  23 C23           -0.7584     2.0096    -1.2292 C.3     
  24 C24            0.7948    -6.9820    -1.2472 C.3     
  25 C25           -1.4952     4.0329     0.0380 C.3     
  26 H26           -0.5286     1.8543     0.9071 H       
  27 H27           -1.7061     0.5726     1.9950 H       
  28 H28           -1.9518    -1.1318     2.4455 H       
  29 H29            0.8901    -0.6869     5.6787 H       
  30 H30            1.1357     1.0175     5.2283 H       
  31 H31           -0.0654     0.5894     6.4702 H       
  32 H32            1.6948    -1.9824    -2.9602 H       
  33 H33            0.0868    -4.6745    -0.0407 H       
  34 H34            2.4677    -3.9005    -4.2925 H       
  35 H35            1.9442     1.6713     0.8825 H       
  36 H36            1.9272     1.6808    -0.8974 H       
  37 H37            0.8861     3.9137     0.9047 H       
  38 H38            2.4189     3.9395     0.0001 H       
  39 H39            0.6415     5.1589    -1.2257 H       
  40 H40            1.1665     3.7175    -2.1285 H       
  41 H41           -1.3063     3.9005    -2.1039 H       
  42 H42           -0.2482     1.6581    -2.1260 H       
  43 H43           -1.7809     1.6323    -1.2215 H       
  44 H44           -0.1616    -7.3340    -1.6338 H       
  45 H45            1.5928    -7.6329    -1.6043 H       
  46 H46            0.7739    -6.9971    -0.1575 H       
  47 H47           -1.5100     5.1227     0.0440 H       
  48 H48           -2.5178     3.6556     0.0457 H       
  49 H49           -0.9681     3.6718     0.9211 H       
@<TRIPOS>BOND
   1    1    2 1
   2    1   19 1
   3    1   23 1
   4    1   26 1
   5    2    3 2
   6    2    6 1
   7    3    4 1
   8    4    5 2
   9    4   12 1
  10    5    6 1
  11    6    7 1
  12    7    8 1
  13    7   27 1
  14    7   28 1
  15    8    9 1
  16    8   10 2
  17    9   11 1
  18   11   29 1
  19   11   30 1
  20   11   31 1
  21   12   13 ar
  22   12   14 ar
  23   13   16 ar
  24   13   32 1
  25   14   15 ar
  26   14   33 1
  27   15   17 ar
  28   15   24 1
  29   16   17 ar
  30   16   34 1
  31   17   18 1
  32   19   20 1
  33   19   35 1
  34   19   36 1
  35   20   21 1
  36   20   37 1
  37   20   38 1
  38   21   22 1
  39   21   39 1
  40   21   40 1
  41   22   23 1
  42   22   25 1
  43   22   41 1
  44   23   42 1
  45   23   43 1
  46   24   44 1
  47   24   45 1
  48   24   46 1
  49   25   47 1
  50   25   48 1
  51   25   49 1

#	End of record

