#	Name: ASD00600002
#	Creating user name:	WinNT
#	Creation time:	15. 06. 2019 18:36

#	Modifying user name:	WinNT
#	Modification time:	15. 06. 2019 18:36

#	Program:	/corina/corina34_cracker 3.40 0067  02.08.2006

@<TRIPOS>MOLECULE
ASD00600002
  78   83    0    0    0
SMALL
NO_CHARGES


@<TRIPOS>ATOM
   1 N1             0.8710     1.6597     0.7255 N.2     
   2 C2             1.1157     0.4365     1.0953 C.2     
   3 N3             1.1023    -0.3901     0.0150 N.pl3   
   4 C4             0.8295     0.3867    -1.0931 C.ar    
   5 C5             0.6836     1.7012    -0.6187 C.ar    
   6 C6             0.6898     0.1222    -2.4488 C.ar    
   7 C7             0.4087     1.1528    -3.3202 C.ar    
   8 C8             0.2648     2.4509    -2.8511 C.ar    
   9 C9             0.3988     2.7299    -1.5206 C.ar    
  10 C10           -0.9988    -0.8119     1.1093 C.3     
  11 C11           -0.6334    -2.2622     1.5010 C.3     
  12 C12            0.8908    -2.4141     1.3725 C.3     
  13 C13            1.3348    -1.8365     0.0255 C.3     
  14 C14            0.5350    -2.4892    -1.1056 C.3     
  15 C15           -0.9651    -2.3322    -0.8092 C.3     
  16 N16           -1.2507    -3.0952     0.4349 N.3     
  17 C17           -1.2179    -0.8582    -0.4173 C.3     
  18 C18           -2.6977    -3.2340     0.6469 C.3     
  19 C19           -3.3344    -3.8775    -0.5866 C.3     
  20 C20           -4.8415    -4.0220    -0.3658 C.3     
  21 N21           -5.0872    -4.9638     0.7344 N.3     
  22 C22           -6.3869    -4.7054     1.3683 C.3     
  23 C23           -5.4861    -4.5414    -1.6251 C.ar    
  24 C24           -6.1284    -3.6687    -2.4834 C.ar    
  25 C25           -6.7198    -4.1452    -3.6385 C.ar    
  26 C26           -6.6684    -5.4943    -3.9354 C.ar    
  27 C27           -6.0254    -6.3669    -3.0775 C.ar    
  28 C28           -5.4303    -5.8898    -1.9246 C.ar    
  29 C29            1.3762    -0.0008     2.5138 C.3     
  30 C30           -6.8949    -5.9879     2.0311 C.3     
  31 C31           -8.2661    -5.7237     2.6612 C.3     
  32 N32           -8.1546    -4.5767     3.5726 N.am    
  33 C33           -7.5933    -3.3193     3.0604 C.3     
  34 C34           -6.2297    -3.6104     2.4258 C.3     
  35 C35           -8.5600    -4.6761     4.8541 C.2     
  36 O36           -8.3690    -3.7582     5.6235 O.2     
  37 C37           -9.2508    -5.9276     5.3311 C.3     
  38 H38            0.8011    -0.8862    -2.8191 H       
  39 H39            0.3001     0.9485    -4.3751 H       
  40 H40            0.0446     3.2486    -3.5451 H       
  41 H41            0.2844     3.7437    -1.1663 H       
  42 H42           -1.9134    -0.5015     1.6145 H       
  43 H43           -0.1804    -0.1350     1.3547 H       
  44 H44           -0.9893    -2.5219     2.4980 H       
  45 H45            1.3811    -1.8724     2.1814 H       
  46 H46            1.1580    -3.4696     1.4231 H       
  47 H47            2.3966    -2.0342    -0.1214 H       
  48 H48            0.7735    -2.0007    -2.0504 H       
  49 H49            0.7862    -3.5481    -1.1665 H       
  50 H50           -1.5849    -2.6581    -1.6445 H       
  51 H51           -2.2402    -0.5704    -0.6626 H       
  52 H52           -0.5072    -0.2041    -0.9225 H       
  53 H53           -2.8786    -3.8625     1.5188 H       
  54 H54           -3.1369    -2.2499     0.8109 H       
  55 H55           -3.1536    -3.2490    -1.4586 H       
  56 H56           -2.8953    -4.8615    -0.7506 H       
  57 H57           -5.2667    -3.0504    -0.1141 H       
  58 H58           -5.0246    -5.9185     0.4139 H       
  59 H59           -7.1014    -4.3798     0.6122 H       
  60 H60           -6.1685    -2.6147    -2.2514 H       
  61 H61           -7.2222    -3.4635    -4.3088 H       
  62 H62           -7.1310    -5.8666    -4.8375 H       
  63 H63           -5.9856    -7.4209    -3.3094 H       
  64 H64           -4.9279    -6.5715    -1.2544 H       
  65 H65            0.4424    -0.3299     2.9698 H       
  66 H66            2.0910    -0.8237     2.5149 H       
  67 H67            1.7834     0.8351     3.0827 H       
  68 H68           -6.9844    -6.7740     1.2814 H       
  69 H69           -6.1932    -6.3002     2.8046 H       
  70 H70           -8.9908    -5.4994     1.8785 H       
  71 H71           -8.5877    -6.6035     3.2186 H       
  72 H72           -8.2631    -2.8989     2.3102 H       
  73 H73           -7.4710    -2.6126     3.8812 H       
  74 H74           -5.5343    -3.9451     3.1955 H       
  75 H75           -5.8457    -2.7043     1.9571 H       
  76 H76           -9.2566    -6.6671     4.5303 H       
  77 H77           -8.7190    -6.3300     6.1933 H       
  78 H78          -10.2763    -5.6911     5.6146 H       
@<TRIPOS>BOND
   1    1    2 2
   2    1    5 1
   3    2    3 1
   4    2   29 1
   5    3    4 1
   6    3   13 1
   7    4    5 ar
   8    4    6 ar
   9    5    9 ar
  10    6    7 ar
  11    6   38 1
  12    7    8 ar
  13    7   39 1
  14    8    9 ar
  15    8   40 1
  16    9   41 1
  17   10   11 1
  18   10   17 1
  19   10   42 1
  20   10   43 1
  21   11   12 1
  22   11   16 1
  23   11   44 1
  24   12   13 1
  25   12   45 1
  26   12   46 1
  27   13   14 1
  28   13   47 1
  29   14   15 1
  30   14   48 1
  31   14   49 1
  32   15   16 1
  33   15   17 1
  34   15   50 1
  35   16   18 1
  36   17   51 1
  37   17   52 1
  38   18   19 1
  39   18   53 1
  40   18   54 1
  41   19   20 1
  42   19   55 1
  43   19   56 1
  44   20   21 1
  45   20   23 1
  46   20   57 1
  47   21   22 1
  48   21   58 1
  49   22   30 1
  50   22   34 1
  51   22   59 1
  52   23   24 ar
  53   23   28 ar
  54   24   25 ar
  55   24   60 1
  56   25   26 ar
  57   25   61 1
  58   26   27 ar
  59   26   62 1
  60   27   28 ar
  61   27   63 1
  62   28   64 1
  63   29   65 1
  64   29   66 1
  65   29   67 1
  66   30   31 1
  67   30   68 1
  68   30   69 1
  69   31   32 1
  70   31   70 1
  71   31   71 1
  72   32   33 1
  73   32   35 am
  74   33   34 1
  75   33   72 1
  76   33   73 1
  77   34   74 1
  78   34   75 1
  79   35   36 2
  80   35   37 1
  81   37   76 1
  82   37   77 1
  83   37   78 1

#	End of record

