#	Name: ASD01916167
#	Creating user name:	WinNT
#	Creation time:	15. 06. 2019 20:06

#	Modifying user name:	WinNT
#	Modification time:	15. 06. 2019 20:06

#	Program:	/corina/corina34_cracker 3.40 0067  02.08.2006

@<TRIPOS>MOLECULE
ASD01916167
  42   45    0    0    0
SMALL
NO_CHARGES


@<TRIPOS>ATOM
   1 C1             0.1260     2.2740     2.9159 C.ar    
   2 C2             0.1837     1.1330     3.6982 C.ar    
   3 C3             1.4061     0.5488     3.9836 C.ar    
   4 C4             2.5701     1.1036     3.4876 C.ar    
   5 C5             2.5137     2.2463     2.7034 C.ar    
   6 C6             1.2885     2.8308     2.4187 C.ar    
   7 O7             3.6584     2.7934     2.2151 O.3     
   8 C8             3.5252     3.9699     1.4150 C.3     
   9 C9             4.8886     4.4293     0.9663 C.2     
  10 N10            5.1395     5.5009     0.2022 N.2     
  11 C11            6.4371     5.6017     0.0073 C.2     
  12 N12            7.0519     4.5628     0.6652 N.am    
  13 C13            6.0581     3.8337     1.2717 C.2     
  14 C14            7.2676     6.5558    -0.7321 C.2     
  15 C15            8.6023     6.3739    -0.7358 C.2     
  16 N16            9.1525     5.3118    -0.0556 N.am    
  17 C17            8.3889     4.4382     0.6227 C.2     
  18 O18            8.9194     3.5146     1.2092 O.2     
  19 C19           10.5419     5.1372    -0.0701 C.ar    
  20 C20           11.3278     5.7292     0.9096 C.ar    
  21 C21           12.6980     5.5550     0.8925 C.ar    
  22 C22           13.2871     4.7922    -0.0989 C.ar    
  23 C23           12.5071     4.2015    -1.0764 C.ar    
  24 C24           11.1361     4.3667    -1.0612 C.ar    
  25 F25           -0.9538     0.5896     4.1838 F       
  26 C26           13.5518     6.1976     1.9551 C.3     
  27 F27           13.6887     5.3208     3.0366 F       
  28 F28           14.8144     6.4872     1.4268 F       
  29 F29           12.9448     7.3813     2.3883 F       
  30 H30           -0.8284     2.7263     2.6907 H       
  31 H31            1.4497    -0.3407     4.5945 H       
  32 H32            3.5235     0.6479     3.7106 H       
  33 H33            1.2432     3.7204     1.8080 H       
  34 H34            2.9111     3.7482     0.5422 H       
  35 H35            3.0517     4.7568     2.0020 H       
  36 H36            6.1890     2.9469     1.8740 H       
  37 H37            6.8206     7.3843    -1.2614 H       
  38 H38            9.2399     7.0608    -1.2724 H       
  39 H39           10.8683     6.3255     1.6840 H       
  40 H40           14.3586     4.6575    -0.1101 H       
  41 H41           12.9702     3.6065    -1.8496 H       
  42 H42           10.5276     3.9052    -1.8248 H       
@<TRIPOS>BOND
   1    1    2 ar
   2    1    6 ar
   3    1   30 1
   4    2    3 ar
   5    2   25 1
   6    3    4 ar
   7    3   31 1
   8    4    5 ar
   9    4   32 1
  10    5    6 ar
  11    5    7 1
  12    6   33 1
  13    7    8 1
  14    8    9 1
  15    8   34 1
  16    8   35 1
  17    9   10 1
  18    9   13 2
  19   10   11 2
  20   11   12 1
  21   11   14 1
  22   12   13 1
  23   12   17 am
  24   13   36 1
  25   14   15 2
  26   14   37 1
  27   15   16 1
  28   15   38 1
  29   16   17 am
  30   16   19 1
  31   17   18 2
  32   19   20 ar
  33   19   24 ar
  34   20   21 ar
  35   20   39 1
  36   21   22 ar
  37   21   26 1
  38   22   23 ar
  39   22   40 1
  40   23   24 ar
  41   23   41 1
  42   24   42 1
  43   26   27 1
  44   26   28 1
  45   26   29 1

#	End of record

