#	Name: ASD05490061
#	Creating user name:	WinNT
#	Creation time:	15. 06. 2019 21:01

#	Modifying user name:	WinNT
#	Modification time:	15. 06. 2019 21:01

#	Program:	/corina/corina34_cracker 3.40 0067  02.08.2006

@<TRIPOS>MOLECULE
ASD05490061
  65   69    0    0    0
SMALL
NO_CHARGES


@<TRIPOS>ATOM
   1 N1            -0.0178     1.4608     0.0101 N.am    
   2 O2             4.5863     2.8161    -0.0262 O.3     
   3 N3             2.8511     4.3368    -0.0011 N.ar    
   4 C4             1.5540     4.6376     0.0125 C.ar    
   5 C5             3.2565     3.0770    -0.0125 C.ar    
   6 N6             2.4054     2.0644    -0.0098 N.ar    
   7 C7             1.0946     2.2826     0.0039 C.ar    
   8 C8             0.6266     3.5971     0.0154 C.ar    
   9 N9             1.1342     5.9598     0.0241 N.pl3   
  10 C10           -1.1223     2.2312     0.0189 C.2     
  11 N11           -0.7663     3.5310     0.0284 N.am    
  12 C12            5.4681     3.9405    -0.0273 C.3     
  13 C13            6.9178     3.4518    -0.0435 C.3     
  14 O14            7.1762     2.7676    -1.2712 O.3     
  15 C15            8.5098     2.2679    -1.3886 C.3     
  16 O16           -2.2665     1.8171     0.0260 O.2     
  17 C17            0.0021    -0.0041     0.0020 C.3     
  18 C18            0.0225    -0.5140     1.4200 C.ar    
  19 C19           -1.1674    -0.7635     2.0797 C.ar    
  20 C20           -1.1546    -1.2305     3.3784 C.ar    
  21 C21            0.0599    -1.4511     4.0247 C.ar    
  22 C22            1.2555    -1.1986     3.3552 C.ar    
  23 C23            1.2310    -0.7362     2.0550 C.ar    
  24 C24            0.0800    -1.9528     5.4211 C.ar    
  25 C25            1.2945    -2.1734     6.0675 C.ar    
  26 C26           -1.1157    -2.1995     6.0927 C.ar    
  27 C27           -1.0912    -2.6661     7.3914 C.ar    
  28 C28            0.1174    -2.8883     8.0264 C.ar    
  29 C29            1.3073    -2.6401     7.3663 C.ar    
  30 C30            0.4099    -5.3997    10.7929 C.3     
  31 C31            1.2305    -6.6913    10.6198 C.3     
  32 N32            0.1502    -4.8658     9.4383 N.3     
  33 C33            1.2467    -5.3849     8.5814 C.3     
  34 C34            1.4426    -6.8335     9.0951 C.3     
  35 C35            0.1377    -3.3969     9.4449 C.3     
  36 H36            1.7881     6.6762     0.0223 H       
  37 H37            0.1868     6.1678     0.0340 H       
  38 H38           -1.3727     4.2880     0.0359 H       
  39 H39            5.2799     4.5490    -0.9119 H       
  40 H40            5.2961     4.5380     0.8679 H       
  41 H41            7.5900     4.3052     0.0452 H       
  42 H42            7.0814     2.7720     0.7927 H       
  43 H43            9.2150     3.0968    -1.3278 H       
  44 H44            8.7064     1.5636    -0.5803 H       
  45 H45            8.6252     1.7622    -2.3473 H       
  46 H46           -0.8878    -0.3767    -0.5053 H       
  47 H47            0.8920    -0.3525    -0.5222 H       
  48 H48           -2.1082    -0.5921     1.5778 H       
  49 H49           -2.0843    -1.4243     3.8928 H       
  50 H50            2.1997    -1.3679     3.8515 H       
  51 H51            2.1571    -0.5405     1.5350 H       
  52 H52            2.2241    -1.9799     5.5529 H       
  53 H53           -2.0599    -2.0256     5.5980 H       
  54 H54           -2.0173    -2.8576     7.9129 H       
  55 H55            2.2481    -2.8154     7.8668 H       
  56 H56           -0.5335    -5.6232    11.2911 H       
  57 H57            0.9777    -4.6743    11.3754 H       
  58 H58            2.1902    -6.6007    11.1284 H       
  59 H59            0.6759    -7.5465    11.0060 H       
  60 H60            0.9483    -5.3856     7.5330 H       
  61 H61            2.1556    -4.8002     8.7234 H       
  62 H62            2.4504    -7.1871     8.8772 H       
  63 H63            0.6967    -7.5003     8.6624 H       
  64 H64            1.0303    -3.0282     9.9503 H       
  65 H65           -0.7494    -3.0434     9.9704 H       
@<TRIPOS>BOND
   1    1   17 1
   2    1    7 1
   3    1   10 am
   4    2   12 1
   5    2    5 1
   6    3    4 ar
   7    3    5 ar
   8    4    9 1
   9    4    8 ar
  10    5    6 ar
  11    6    7 ar
  12    7    8 ar
  13    8   11 1
  14    9   36 1
  15    9   37 1
  16   10   11 am
  17   10   16 2
  18   11   38 1
  19   12   13 1
  20   12   39 1
  21   12   40 1
  22   13   14 1
  23   13   41 1
  24   13   42 1
  25   14   15 1
  26   15   43 1
  27   15   44 1
  28   15   45 1
  29   17   18 1
  30   17   46 1
  31   17   47 1
  32   18   19 ar
  33   18   23 ar
  34   19   20 ar
  35   19   48 1
  36   20   21 ar
  37   20   49 1
  38   21   22 ar
  39   21   24 1
  40   22   23 ar
  41   22   50 1
  42   23   51 1
  43   24   25 ar
  44   24   26 ar
  45   25   29 ar
  46   25   52 1
  47   26   27 ar
  48   26   53 1
  49   27   28 ar
  50   27   54 1
  51   28   29 ar
  52   28   35 1
  53   29   55 1
  54   30   31 1
  55   30   32 1
  56   30   56 1
  57   30   57 1
  58   31   34 1
  59   31   58 1
  60   31   59 1
  61   32   33 1
  62   32   35 1
  63   33   34 1
  64   33   60 1
  65   33   61 1
  66   34   62 1
  67   34   63 1
  68   35   64 1
  69   35   65 1

#	End of record

