#	Name: ASD01840538
#	Creating user name:	WinNT
#	Creation time:	15. 06. 2019 19:37

#	Modifying user name:	WinNT
#	Modification time:	15. 06. 2019 19:37

#	Program:	/corina/corina34_cracker 3.40 0067  02.08.2006

@<TRIPOS>MOLECULE
ASD01840538
  59   63    0    0    0
SMALL
NO_CHARGES


@<TRIPOS>ATOM
   1 C1             0.9190    -1.6666    -0.3142 C.3     
   2 C2            -0.3187    -2.3871    -0.8528 C.3     
   3 C3            -1.5596    -1.7397    -0.2941 C.ar    
   4 C4            -2.1487    -2.2383     0.8365 C.ar    
   5 C5            -3.3019    -1.6054     1.3229 C.ar    
   6 C6            -4.1678    -1.8703     2.4824 C.2     
   7 O7            -4.0021    -2.7712     3.2819 O.2     
   8 N8            -5.1684    -0.9738     2.5317 N.am    
   9 C9            -6.2228    -0.9266     3.5476 C.3     
  10 C10           -5.0295    -0.0503     1.4000 C.3     
  11 C11           -4.8413     1.3803     1.9089 C.3     
  12 O12           -6.0365     1.8152     2.5603 O.3     
  13 C13           -3.8040    -0.4957     0.6393 C.ar    
  14 N14           -3.2085    -0.0475    -0.4429 N.ar    
  15 C15           -2.1136    -0.6248    -0.9212 C.ar    
  16 N16           -1.5158    -0.1156    -2.0616 N.3     
  17 C17           -1.1080     1.2790    -1.8633 C.3     
  18 C18           -0.4462     1.7885    -3.1489 C.3     
  19 C19           -1.5388     2.0152    -4.1966 C.3     
  20 O20           -0.9345     2.3375    -5.4508 O.3     
  21 C21           -0.7223     3.7363    -5.6514 C.3     
  22 C22           -0.0742     3.9629    -7.0187 C.3     
  23 C23            0.9017     2.8764    -7.4746 C.3     
  24 C24           -0.9159     4.6534    -8.0937 C.3     
  25 C25            0.2355     5.4056    -7.4233 C.3     
  26 C26           -2.3792     0.7534    -4.3487 C.3     
  27 C27           -1.6869    -0.5876    -4.5588 C.3     
  28 C28           -2.3878    -0.2764    -3.2279 C.3     
  29 H29            1.8164    -2.1896    -0.6447 H       
  30 H30            0.9358    -0.6434    -0.6895 H       
  31 H31            0.8865    -1.6536     0.7752 H       
  32 H32           -0.3328    -2.3212    -1.9407 H       
  33 H33           -0.2887    -3.4345    -0.5526 H       
  34 H34           -1.7355    -3.0988     1.3418 H       
  35 H35           -6.0737    -1.7345     4.2639 H       
  36 H36           -6.1844     0.0310     4.0669 H       
  37 H37           -7.1949    -1.0410     3.0679 H       
  38 H38           -5.9099    -0.1070     0.7600 H       
  39 H39           -4.0117     1.4085     2.6154 H       
  40 H40           -4.6252     2.0395     1.0682 H       
  41 H41           -5.9891     2.7160     2.9089 H       
  42 H42           -1.9840     1.8872    -1.6376 H       
  43 H43           -0.3977     1.3381    -1.0386 H       
  44 H44            0.0709     2.7268    -2.9486 H       
  45 H45            0.2648     1.0475    -3.5143 H       
  46 H46           -2.1784     2.8392    -3.8803 H       
  47 H47           -1.6784     4.2582    -5.6115 H       
  48 H48           -0.0661     4.1200    -4.8702 H       
  49 H49            0.5569     1.9056    -7.1184 H       
  50 H50            0.9521     2.8669    -8.5634 H       
  51 H51            1.8913     3.0825    -7.0668 H       
  52 H52           -0.7746     4.3335    -9.1261 H       
  53 H53           -1.9314     4.9462    -7.8269 H       
  54 H54           -0.0225     6.1933    -6.7154 H       
  55 H55            1.1342     5.5806    -8.0146 H       
  56 H56           -3.3184     0.8910    -4.8845 H       
  57 H57           -2.1671    -1.3036    -5.2258 H       
  58 H58           -0.5969    -0.5966    -4.5641 H       
  59 H59           -3.3235    -0.8038    -3.0424 H       
@<TRIPOS>BOND
   1    1    2 1
   2    1   29 1
   3    1   30 1
   4    1   31 1
   5    2    3 1
   6    2   32 1
   7    2   33 1
   8    3   15 ar
   9    3    4 ar
  10    4    5 ar
  11    4   34 1
  12    5   13 ar
  13    5    6 1
  14    6    7 2
  15    6    8 am
  16    8    9 1
  17    8   10 1
  18    9   35 1
  19    9   36 1
  20    9   37 1
  21   10   11 1
  22   10   13 1
  23   10   38 1
  24   11   12 1
  25   11   39 1
  26   11   40 1
  27   12   41 1
  28   13   14 ar
  29   14   15 ar
  30   15   16 1
  31   16   28 1
  32   16   17 1
  33   17   18 1
  34   17   42 1
  35   17   43 1
  36   18   19 1
  37   18   44 1
  38   18   45 1
  39   19   20 1
  40   19   26 1
  41   19   46 1
  42   20   21 1
  43   21   22 1
  44   21   47 1
  45   21   48 1
  46   22   25 1
  47   22   23 1
  48   22   24 1
  49   23   49 1
  50   23   50 1
  51   23   51 1
  52   24   25 1
  53   24   52 1
  54   24   53 1
  55   25   54 1
  56   25   55 1
  57   26   28 1
  58   26   27 1
  59   26   56 1
  60   27   28 1
  61   27   57 1
  62   27   58 1
  63   28   59 1

#	End of record

