#	Name: ASD03091980
#	Creating user name:	WinNT
#	Creation time:	15. 06. 2019 20:31

#	Modifying user name:	WinNT
#	Modification time:	15. 06. 2019 20:31

#	Program:	/corina/corina34_cracker 3.40 0067  02.08.2006

@<TRIPOS>MOLECULE
ASD03091980
  53   57    0    0    0
SMALL
NO_CHARGES


@<TRIPOS>ATOM
   1 C1             0.0096     1.4353     0.1834 C.ar    
   2 C2            -1.1936     2.1637     0.1879 C.ar    
   3 C3            -2.4260     1.4649     0.1390 C.ar    
   4 C4            -2.4322     0.0571     0.0840 C.ar    
   5 C5            -1.2635    -0.6336     0.0796 C.ar    
   6 C6            -0.0343     0.0416     0.1299 C.ar    
   7 O7             1.2131     2.0507     0.2353 O.3     
   8 C8             2.2630     1.3776     0.9305 C.3     
   9 N9             2.3610    -0.0167     0.4963 N.am    
  10 C10            1.2465    -0.6926     0.1331 C.2     
  11 C11           -3.7424    -0.6856     0.0303 C.3     
  12 N12           -4.3592    -0.6874     1.3635 N.3     
  13 O13            1.2982    -1.8664    -0.1809 O.2     
  14 C14            3.6662    -0.6807     0.4549 C.3     
  15 C15            4.5889     0.0301    -0.5566 C.3     
  16 C16            4.3547    -0.5759     1.8270 C.3     
  17 C17            5.6718     0.1950     1.6015 C.3     
  18 C18            5.4180     1.0108     0.3095 C.3     
  19 O19            4.6329    -1.8819     2.3361 O.3     
  20 C20           -3.6273     2.1923     0.1459 C.ar    
  21 C21           -1.1979     3.5668     0.2394 C.ar    
  22 C22           -3.5938     3.5527     0.1975 C.ar    
  23 C23           -2.3825     4.2387     0.2433 C.ar    
  24 C24           -3.4296    -1.2304     2.3767 C.3     
  25 C25           -5.5911    -1.4975     1.3746 C.3     
  26 C26           -5.4192    -2.5761     2.4647 C.3     
  27 C27           -4.3381    -1.9644     3.3942 C.3     
  28 H28           -1.2799    -1.7127     0.0374 H       
  29 H29            3.2078     1.8831     0.7303 H       
  30 H30            2.0609     1.4068     2.0012 H       
  31 H31           -4.4096    -0.1945    -0.6781 H       
  32 H32           -3.5651    -1.7124    -0.2894 H       
  33 H33            3.5435    -1.7277     0.1777 H       
  34 H34            5.2424    -0.6903    -1.0486 H       
  35 H35            3.9991     0.5764    -1.2927 H       
  36 H36            3.7177    -0.0310     2.5237 H       
  37 H37            5.8721     0.8615     2.4403 H       
  38 H38            6.5001    -0.4988     1.4580 H       
  39 H39            6.3588     1.2592    -0.1815 H       
  40 H40            4.8452     1.9121     0.5281 H       
  41 H41            5.0675    -1.8829     3.2000 H       
  42 H42           -4.5745     1.6746     0.1100 H       
  43 H43           -0.2657     4.1110     0.2760 H       
  44 H44           -4.5202     4.1080     0.2020 H       
  45 H45           -2.3827     5.3179     0.2835 H       
  46 H46           -2.7329    -1.9307     1.9159 H       
  47 H47           -2.8875    -0.4215     2.8666 H       
  48 H48           -6.4480    -0.8661     1.6096 H       
  49 H49           -5.7322    -1.9712     0.4031 H       
  50 H50           -6.3524    -2.7283     3.0070 H       
  51 H51           -5.0683    -3.5117     2.0292 H       
  52 H52           -3.7865    -2.7450     3.9181 H       
  53 H53           -4.7818    -1.2616     4.0994 H       
@<TRIPOS>BOND
   1    1    6 ar
   2    1    7 1
   3    1    2 ar
   4    2    3 ar
   5    2   21 ar
   6    3    4 ar
   7    3   20 ar
   8    4    5 ar
   9    4   11 1
  10    5    6 ar
  11    5   28 1
  12    6   10 1
  13    7    8 1
  14    8    9 1
  15    8   29 1
  16    8   30 1
  17    9   10 am
  18    9   14 1
  19   10   13 2
  20   11   12 1
  21   11   31 1
  22   11   32 1
  23   12   25 1
  24   12   24 1
  25   14   16 1
  26   14   15 1
  27   14   33 1
  28   15   18 1
  29   15   34 1
  30   15   35 1
  31   16   17 1
  32   16   19 1
  33   16   36 1
  34   17   18 1
  35   17   37 1
  36   17   38 1
  37   18   39 1
  38   18   40 1
  39   19   41 1
  40   20   22 ar
  41   20   42 1
  42   21   23 ar
  43   21   43 1
  44   22   23 ar
  45   22   44 1
  46   23   45 1
  47   24   27 1
  48   24   46 1
  49   24   47 1
  50   25   26 1
  51   25   48 1
  52   25   49 1
  53   26   27 1
  54   26   50 1
  55   26   51 1
  56   27   52 1
  57   27   53 1

#	End of record

