#	Name: ASD02030458
#	Creating user name:	WinNT
#	Creation time:	15. 06. 2019 20:15

#	Modifying user name:	WinNT
#	Modification time:	15. 06. 2019 20:15

#	Program:	/corina/corina34_cracker 3.40 0067  02.08.2006

@<TRIPOS>MOLECULE
ASD02030458
  37   38    0    0    0
SMALL
NO_CHARGES


@<TRIPOS>ATOM
   1 S1            -0.0220     1.7682     0.0118 S.3     
   2 C2             0.0021    -0.0041     0.0020 C.2     
   3 N3             1.3150    -0.3971    -0.0126 N.am    
   4 C4             2.2811     0.5054    -0.0170 C.2     
   5 C5             1.7940     1.9357    -0.0047 C.3     
   6 C6             2.2555     2.6726    -1.2636 C.3     
   7 C7             1.7685     4.0980    -1.2182 C.2     
   8 N8             2.0575     4.9414    -2.2290 N.am    
   9 O9             1.1165     4.4862    -0.2721 O.2     
  10 C10            1.6095     6.2525    -2.1872 C.2     
  11 C11            0.6144     8.4928    -1.6978 C.2     
  12 S12            0.6937     6.9240    -0.9162 S.3     
  13 C13            1.8473     7.1896    -3.1605 C.2     
  14 C14            1.2603     8.4762    -2.8547 C.2     
  15 C15           -0.0894     9.6975    -1.1284 C.3     
  16 C16            2.6137     6.9171    -4.3781 C.2     
  17 O17            2.8035     7.8942    -5.2884 O.3     
  18 O18            3.0793     5.8096    -4.5687 O.2     
  19 C19            3.5730     7.5527    -6.4714 C.3     
  20 O20            3.4572     0.2106    -0.0298 O.2     
  21 N21           -1.0376    -0.7891     0.0081 N.2     
  22 C22            3.6815     8.7783    -7.3807 C.3     
  23 H23            1.5363    -1.3415    -0.0195 H       
  24 H24            2.1399     2.4511     0.8913 H       
  25 H25            3.3443     2.6621    -1.3122 H       
  26 H26            1.8476     2.1772    -2.1447 H       
  27 H27            2.5789     4.6309    -2.9856 H       
  28 H28            1.3391     9.3354    -3.5043 H       
  29 H29           -0.5332     9.4384    -0.1671 H       
  30 H30            0.6282    10.5064    -0.9910 H       
  31 H31           -0.8724    10.0192    -1.8151 H       
  32 H32            4.5713     7.2307    -6.1750 H       
  33 H33            3.0752     6.7450    -7.0081 H       
  34 H34           -0.9185    -1.7518     0.0018 H       
  35 H35            2.6832     9.1003    -7.6771 H       
  36 H36            4.1793     9.5860    -6.8440 H       
  37 H37            4.2592     8.5220    -8.2687 H       
@<TRIPOS>BOND
   1    1    2 1
   2    1    5 1
   3    2    3 1
   4    2   21 2
   5    3    4 am
   6    3   23 1
   7    4    5 1
   8    4   20 2
   9    5    6 1
  10    5   24 1
  11    6    7 1
  12    6   25 1
  13    6   26 1
  14    7    8 am
  15    7    9 2
  16    8   10 1
  17    8   27 1
  18   10   13 2
  19   10   12 1
  20   11   12 1
  21   11   14 2
  22   11   15 1
  23   13   14 1
  24   13   16 1
  25   14   28 1
  26   15   29 1
  27   15   30 1
  28   15   31 1
  29   16   17 1
  30   16   18 2
  31   17   19 1
  32   19   22 1
  33   19   32 1
  34   19   33 1
  35   21   34 1
  36   22   35 1
  37   22   36 1
  38   22   37 1

#	End of record

