#	Name: ASD01150354
#	Creating user name:	WinNT
#	Creation time:	15. 06. 2019 19:04

#	Modifying user name:	WinNT
#	Modification time:	15. 06. 2019 19:04

#	Program:	/corina/corina34_cracker 3.40 0067  02.08.2006

@<TRIPOS>MOLECULE
ASD01150354
  61   63    0    0    0
SMALL
NO_CHARGES


@<TRIPOS>ATOM
   1 N1            -0.0183     1.3925     0.0166 N.pl3   
   2 C2            -0.0049     0.0028     0.1596 C.2     
   3 C3            -1.3323    -0.4017     0.0938 C.2     
   4 N4            -2.0833     0.6895    -0.0782 N.2     
   5 C5            -1.3197     1.7612    -0.1205 C.2     
   6 C6             1.1250    -0.8209     0.3341 C.2     
   7 C7             1.0947     2.2432     0.0200 C.ar    
   8 C8             2.0088     2.1970    -1.0242 C.ar    
   9 C9             3.1052     3.0369    -1.0180 C.ar    
  10 C10            3.2931     3.9232     0.0267 C.ar    
  11 C11            2.3845     3.9716     1.0680 C.ar    
  12 C12            1.2831     3.1383     1.0647 C.ar    
  13 N13           -1.7679     3.0513    -0.2867 N.3     
  14 C14           -2.3894     3.2269    -1.6061 C.3     
  15 C15           -2.6967     3.4284     0.7871 C.3     
  16 O16            0.9887    -2.0259     0.4462 O.2     
  17 O17            2.3591    -0.2741     0.3770 O.3     
  18 C18            3.4591    -1.1685     0.5564 C.3     
  19 C19            3.4940    -2.1719    -0.5981 C.3     
  20 C20            4.7653    -0.3722     0.5796 C.3     
  21 C21            3.2957    -1.9190     1.8796 C.3     
  22 N22           -1.7962    -1.7090     0.1891 N.am    
  23 C23           -3.1174    -1.9628     0.1085 C.2     
  24 O24           -3.9036    -1.0486    -0.0475 O.2     
  25 N25           -3.5671    -3.2299     0.2009 N.am    
  26 C26           -5.0032    -3.5058     0.1133 C.3     
  27 C27           -5.2389    -4.9884     0.2448 C.ar    
  28 C28           -5.4425    -5.5477     1.4925 C.ar    
  29 C29           -5.6586    -6.9074     1.6138 C.ar    
  30 C30           -5.6712    -7.7089     0.4861 C.ar    
  31 C31           -5.4674    -7.1486    -0.7624 C.ar    
  32 C32           -5.2569    -5.7878    -0.8829 C.ar    
  33 Cl33          -5.9421    -9.4169     0.6376 Cl      
  34 H34            1.8628     1.5047    -1.8402 H       
  35 H35            3.8167     3.0012    -1.8297 H       
  36 H36            4.1514     4.5787     0.0295 H       
  37 H37            2.5341     4.6646     1.8827 H       
  38 H38            0.5736     3.1768     1.8781 H       
  39 H39           -3.2364     2.5476    -1.7020 H       
  40 H40           -2.7347     4.2554    -1.7111 H       
  41 H41           -1.6581     3.0079    -2.3842 H       
  42 H42           -2.2175     3.2720     1.7536 H       
  43 H43           -2.9670     4.4791     0.6814 H       
  44 H44           -3.5948     2.8140     0.7232 H       
  45 H45            3.6104    -1.6373    -1.5408 H       
  46 H46            4.3330    -2.8541    -0.4613 H       
  47 H47            2.5634    -2.7392    -0.6147 H       
  48 H48            4.7405     0.3427     1.4021 H       
  49 H49            5.6044    -1.0544     0.7164 H       
  50 H50            4.8818     0.1625    -0.3631 H       
  51 H51            2.3651    -2.4863     1.8630 H       
  52 H52            4.1347    -2.6012     2.0164 H       
  53 H53            3.2708    -1.2041     2.7021 H       
  54 H54           -1.1690    -2.4383     0.3136 H       
  55 H55           -2.9398    -3.9593     0.3254 H       
  56 H56           -5.5233    -2.9827     0.9158 H       
  57 H57           -5.3812    -3.1618    -0.8494 H       
  58 H58           -5.4323    -4.9221     2.3728 H       
  59 H59           -5.8173    -7.3443     2.5886 H       
  60 H60           -5.4772    -7.7736    -1.6431 H       
  61 H61           -5.0978    -5.3503    -1.8574 H       
@<TRIPOS>BOND
   1    1    2 1
   2    1    7 1
   3    1    5 1
   4    2    3 2
   5    2    6 1
   6    3    4 1
   7    3   22 1
   8    4    5 2
   9    5   13 1
  10    6   16 2
  11    6   17 1
  12    7    8 ar
  13    7   12 ar
  14    8    9 ar
  15    8   34 1
  16    9   10 ar
  17    9   35 1
  18   10   11 ar
  19   10   36 1
  20   11   12 ar
  21   11   37 1
  22   12   38 1
  23   13   14 1
  24   13   15 1
  25   14   39 1
  26   14   40 1
  27   14   41 1
  28   15   42 1
  29   15   43 1
  30   15   44 1
  31   17   18 1
  32   18   19 1
  33   18   20 1
  34   18   21 1
  35   19   45 1
  36   19   46 1
  37   19   47 1
  38   20   48 1
  39   20   49 1
  40   20   50 1
  41   21   51 1
  42   21   52 1
  43   21   53 1
  44   22   23 am
  45   22   54 1
  46   23   24 2
  47   23   25 am
  48   25   26 1
  49   25   55 1
  50   26   27 1
  51   26   56 1
  52   26   57 1
  53   27   28 ar
  54   27   32 ar
  55   28   29 ar
  56   28   58 1
  57   29   30 ar
  58   29   59 1
  59   30   31 ar
  60   30   33 1
  61   31   32 ar
  62   31   60 1
  63   32   61 1

#	End of record

