#	Name: ASD03090678
#	Creating user name:	WinNT
#	Creation time:	15. 06. 2019 20:29

#	Modifying user name:	WinNT
#	Modification time:	15. 06. 2019 20:29

#	Program:	/corina/corina34_cracker 3.40 0067  02.08.2006

@<TRIPOS>MOLECULE
ASD03090678
  36   37    0    0    0
SMALL
NO_CHARGES


@<TRIPOS>ATOM
   1 N1            -0.0532     1.3893    -0.4383 N.am    
   2 C2            -0.3808     0.3145     0.3059 C.2     
   3 S3             0.7211    -0.2898     1.4685 S.2     
   4 N4            -1.5759    -0.2846     0.1348 N.am    
   5 O5            -1.1602    -1.9757     1.8452 O.3     
   6 N6            -1.7276    -2.9218     2.3399 N.2     
   7 C7            -2.9075    -3.1065     1.8178 C.2     
   8 C8            -3.0775    -2.1012     0.8450 C.2     
   9 C9            -1.9129    -1.3902     0.9003 C.2     
  10 C10           -3.8959    -4.1840     2.1826 C.3     
  11 F11           -3.4069    -4.9168     3.2694 F       
  12 F12           -5.1185    -3.5980     2.5275 F       
  13 F13           -4.0798    -5.0376     1.0896 F       
  14 C14            1.1510     2.0647    -0.2012 C.ar    
  15 C15            1.1553     3.4453    -0.0515 C.ar    
  16 C16            2.3425     4.1102     0.1827 C.ar    
  17 C17            3.5309     3.3995     0.2679 C.ar    
  18 C18            3.5274     2.0206     0.1185 C.ar    
  19 C19            2.3398     1.3535    -0.1101 C.ar    
  20 N20           -0.1124     4.2039    -0.1433 N.pl3   
  21 O21           -0.0973     5.4214    -0.1119 O.2     
  22 O22           -1.1708     3.6106    -0.2504 O.2     
  23 O23            4.6999     4.0551     0.4976 O.3     
  24 C24            5.8852     3.2607     0.5735 C.3     
  25 C25            7.0903     4.1664     0.8350 C.3     
  26 H26           -0.6493     1.6928    -1.1408 H       
  27 H27           -2.2002     0.0577    -0.5239 H       
  28 H28           -3.9304    -1.9327     0.2041 H       
  29 H29            2.3460     5.1839     0.2992 H       
  30 H30            4.4529     1.4680     0.1849 H       
  31 H31            2.3367     0.2794    -0.2224 H       
  32 H32            5.7887     2.5406     1.3861 H       
  33 H33            6.0274     2.7295    -0.3677 H       
  34 H34            7.9945     3.5604     0.8929 H       
  35 H35            7.1869     4.8864     0.0224 H       
  36 H36            6.9481     4.6975     1.7762 H       
@<TRIPOS>BOND
   1    1    2 am
   2    1   14 1
   3    1   26 1
   4    2    3 2
   5    2    4 am
   6    4    9 1
   7    4   27 1
   8    5    6 1
   9    5    9 1
  10    6    7 2
  11    7    8 1
  12    7   10 1
  13    8    9 2
  14    8   28 1
  15   10   11 1
  16   10   12 1
  17   10   13 1
  18   14   15 ar
  19   14   19 ar
  20   15   16 ar
  21   15   20 1
  22   16   17 ar
  23   16   29 1
  24   17   18 ar
  25   17   23 1
  26   18   19 ar
  27   18   30 1
  28   19   31 1
  29   20   21 2
  30   20   22 2
  31   23   24 1
  32   24   25 1
  33   24   32 1
  34   24   33 1
  35   25   34 1
  36   25   35 1
  37   25   36 1

#	End of record

