#	Name: ASD04591080
#	Creating user name:	WinNT
#	Creation time:	15. 06. 2019 20:52

#	Modifying user name:	WinNT
#	Modification time:	15. 06. 2019 20:52

#	Program:	/corina/corina34_cracker 3.40 0067  02.08.2006

@<TRIPOS>MOLECULE
ASD04591080
  75   80    0    0    0
SMALL
NO_CHARGES


@<TRIPOS>ATOM
   1 N1            -2.4168    -2.4901    -1.2979 N.ar    
   2 C2            -1.2570    -1.8454    -1.3053 C.ar    
   3 N3            -0.1048    -2.4648    -1.5044 N.ar    
   4 C4            -0.0687    -3.7785    -1.7073 C.ar    
   5 C5            -1.2841    -4.4922    -1.7049 C.ar    
   6 C6            -2.4705    -3.7975    -1.4917 C.ar    
   7 N7             0.9545    -4.6650    -1.9352 N.pl3   
   8 C8             0.4581    -5.9484    -2.0849 C.ar    
   9 C9            -0.9408    -5.8989    -1.9499 C.ar    
  10 C10            1.0568    -7.1780    -2.3267 C.ar    
  11 N11            0.3273    -8.2705    -2.4270 N.ar    
  12 C12           -0.9883    -8.2581    -2.3053 C.ar    
  13 C13           -1.6680    -7.0832    -2.0632 C.ar    
  14 N14           -1.2524    -0.4761    -1.0976 N.pl3   
  15 C15           -2.4583     0.2190    -1.0010 C.ar    
  16 N16           -3.6036    -0.4087    -1.2102 N.ar    
  17 N17           -4.7359     0.1906    -1.1319 N.ar    
  18 C18           -4.8335     1.4766    -0.8368 C.ar    
  19 C19           -3.6791     2.2243    -0.5991 C.ar    
  20 C20           -2.4589     1.5767    -0.6778 C.ar    
  21 N21           -6.0856     2.0831    -0.7639 N.3     
  22 C22            2.3723    -4.3034    -2.0099 C.3     
  23 C23           -6.2837     2.7260     0.5414 C.3     
  24 C24            2.5994    -3.2938    -3.1487 C.3     
  25 C25            3.1657    -2.0151    -2.4976 C.3     
  26 C26            3.8025    -2.5118    -1.1759 C.3     
  27 C27            2.8084    -3.6029    -0.7065 C.3     
  28 C28           -7.1552     1.1180    -1.0482 C.3     
  29 C29           -8.5001     1.8463    -1.1029 C.3     
  30 C30           -8.7550     2.5385     0.2390 C.3     
  31 C31           -7.6025     3.5024     0.5343 C.3     
  32 N32          -10.0169     3.2876     0.1730 N.3     
  33 C33          -10.3536     3.8678     1.4799 C.3     
  34 C34          -10.6473     2.7445     2.4762 C.3     
  35 C35          -11.1272     3.3476     3.7979 C.3     
  36 O36          -11.4015     2.2984     4.7285 O.3     
  37 C37           -9.9592     4.3257    -0.8648 C.3     
  38 C38          -11.3754     4.8124    -1.1785 C.3     
  39 H39           -3.4178    -4.3161    -1.4845 H       
  40 H40            2.1298    -7.2392    -2.4338 H       
  41 H41           -1.5396    -9.1824    -2.3962 H       
  42 H42           -2.7435    -7.0800    -1.9647 H       
  43 H43           -0.4107    -0.0002    -1.0194 H       
  44 H44           -3.7368     3.2753    -0.3570 H       
  45 H45           -1.5348     2.1076    -0.5030 H       
  46 H46            2.9765    -5.1953    -2.1756 H       
  47 H47           -6.3150     1.9643     1.3205 H       
  48 H48           -5.4596     3.4120     0.7373 H       
  49 H49            3.3146    -3.6954    -3.8666 H       
  50 H50            1.6548    -3.0728    -3.6458 H       
  51 H51            3.9221    -1.5630    -3.1392 H       
  52 H52            2.3647    -1.3049    -2.2918 H       
  53 H53            4.7880    -2.9401    -1.3590 H       
  54 H54            3.8608    -1.7032    -0.4473 H       
  55 H55            1.9498    -3.1493    -0.2115 H       
  56 H56            3.3040    -4.3098    -0.0410 H       
  57 H57           -6.9641     0.6360    -2.0070 H       
  58 H58           -7.1824     0.3638    -0.2617 H       
  59 H59           -8.4784     2.5913    -1.8982 H       
  60 H60           -9.2956     1.1274    -1.2984 H       
  61 H61           -8.8155     1.7901     1.0292 H       
  62 H62           -7.7569     3.9666     1.5083 H       
  63 H63           -7.5667     4.2734    -0.2354 H       
  64 H64           -9.5145     4.4629     1.8403 H       
  65 H65          -11.2333     4.5035     1.3794 H       
  66 H66          -11.4221     2.0932     2.0715 H       
  67 H67           -9.7400     2.1657     2.6491 H       
  68 H68          -10.3525     3.9988     4.2026 H       
  69 H69          -12.0346     3.9263     3.6250 H       
  70 H70          -11.7110     2.6082     5.5907 H       
  71 H71           -9.3580     5.1623    -0.5088 H       
  72 H72           -9.5087     3.9126    -1.7673 H       
  73 H73          -11.3267     5.6399    -1.8864 H       
  74 H74          -11.9523     3.9960    -1.6130 H       
  75 H75          -11.8561     5.1482    -0.2597 H       
@<TRIPOS>BOND
   1    1    2 ar
   2    1    6 ar
   3    2    3 ar
   4    2   14 1
   5    3    4 ar
   6    4    5 ar
   7    4    7 1
   8    5    6 ar
   9    5    9 1
  10    6   39 1
  11    7    8 1
  12    7   22 1
  13    8    9 ar
  14    8   10 ar
  15    9   13 ar
  16   10   11 ar
  17   10   40 1
  18   11   12 ar
  19   12   13 ar
  20   12   41 1
  21   13   42 1
  22   14   15 1
  23   14   43 1
  24   15   16 ar
  25   15   20 ar
  26   16   17 ar
  27   17   18 ar
  28   18   19 ar
  29   18   21 1
  30   19   20 ar
  31   19   44 1
  32   20   45 1
  33   21   28 1
  34   21   23 1
  35   22   24 1
  36   22   27 1
  37   22   46 1
  38   23   31 1
  39   23   47 1
  40   23   48 1
  41   24   25 1
  42   24   49 1
  43   24   50 1
  44   25   26 1
  45   25   51 1
  46   25   52 1
  47   26   27 1
  48   26   53 1
  49   26   54 1
  50   27   55 1
  51   27   56 1
  52   28   29 1
  53   28   57 1
  54   28   58 1
  55   29   30 1
  56   29   59 1
  57   29   60 1
  58   30   31 1
  59   30   32 1
  60   30   61 1
  61   31   62 1
  62   31   63 1
  63   32   37 1
  64   32   33 1
  65   33   34 1
  66   33   64 1
  67   33   65 1
  68   34   35 1
  69   34   66 1
  70   34   67 1
  71   35   36 1
  72   35   68 1
  73   35   69 1
  74   36   70 1
  75   37   38 1
  76   37   71 1
  77   37   72 1
  78   38   73 1
  79   38   74 1
  80   38   75 1

#	End of record

