#	Name: ASD03430896
#	Creating user name:	WinNT
#	Creation time:	15. 06. 2019 20:41

#	Modifying user name:	WinNT
#	Modification time:	15. 06. 2019 20:41

#	Program:	/corina/corina34_cracker 3.40 0067  02.08.2006

@<TRIPOS>MOLECULE
ASD03430896
  35   39    0    0    0
SMALL
NO_CHARGES


@<TRIPOS>ATOM
   1 O1            -0.0175     1.4361     0.0099 O.3     
   2 C2             0.0021    -0.0041     0.0020 C.3     
   3 C3             1.3458    -0.3163    -0.6697 C.3     
   4 C4             2.1587     0.9237    -0.4084 C.ar    
   5 C5             1.2626     1.9066     0.0002 C.ar    
   6 C6             1.7488     3.1689     0.3250 C.ar    
   7 C7             3.1028     3.4471     0.2325 C.ar    
   8 C8             3.9881     2.4603    -0.1827 C.ar    
   9 C9             3.5085     1.1975    -0.5029 C.ar    
  10 N10            2.1678    -2.4008    -1.1216 N.am    
  11 C11            1.9862    -1.5469    -0.0944 C.2     
  12 C12            1.1921    -0.5959    -2.1351 C.ar    
  13 C13            0.6796     0.1223    -3.1918 C.ar    
  14 C14            0.6808    -0.4208    -4.4647 C.ar    
  15 C15            1.1978    -1.6861    -4.6722 C.ar    
  16 C16            1.7113    -2.4108    -3.6163 C.ar    
  17 C17            1.7126    -1.8728    -2.3321 C.ar    
  18 O18            2.2824    -1.7353     1.0666 O.2     
  19 O19            3.5505     4.6939     0.5481 O.3     
  20 O20            5.3231     2.7136    -0.2777 O.3     
  21 C21            5.7161     4.0903    -0.3063 C.3     
  22 C22            4.9529     4.8294     0.8013 C.3     
  23 F23            4.3647     0.2343    -0.9082 F       
  24 H24           -0.0229    -0.3969     1.0185 H       
  25 H25           -0.8258    -0.3990    -0.5869 H       
  26 H26            1.0650     3.9384     0.6517 H       
  27 H27            2.5685    -3.2795    -1.0308 H       
  28 H28            0.2758     1.1103    -3.0272 H       
  29 H29            0.2785     0.1423    -5.2938 H       
  30 H30            1.1995    -2.1096    -5.6657 H       
  31 H31            2.1130    -3.3988    -3.7863 H       
  32 H32            6.7888     4.1703    -0.1302 H       
  33 H33            5.4686     4.5234    -1.2755 H       
  34 H34            5.2271     5.8843     0.7953 H       
  35 H35            5.1955     4.3917     1.7696 H       
@<TRIPOS>BOND
   1    1    2 1
   2    1    5 1
   3    2    3 1
   4    2   24 1
   5    2   25 1
   6    3    4 1
   7    3   11 1
   8    3   12 1
   9    4    5 ar
  10    4    9 ar
  11    5    6 ar
  12    6    7 ar
  13    6   26 1
  14    7    8 ar
  15    7   19 1
  16    8    9 ar
  17    8   20 1
  18    9   23 1
  19   10   11 am
  20   10   17 1
  21   10   27 1
  22   11   18 2
  23   12   13 ar
  24   12   17 ar
  25   13   14 ar
  26   13   28 1
  27   14   15 ar
  28   14   29 1
  29   15   16 ar
  30   15   30 1
  31   16   17 ar
  32   16   31 1
  33   19   22 1
  34   20   21 1
  35   21   22 1
  36   21   32 1
  37   21   33 1
  38   22   34 1
  39   22   35 1

#	End of record

