#	Name: ASD01140146
#	Creating user name:	WinNT
#	Creation time:	15. 06. 2019 19:00

#	Modifying user name:	WinNT
#	Modification time:	15. 06. 2019 19:00

#	Program:	/corina/corina34_cracker 3.40 0067  02.08.2006

@<TRIPOS>MOLECULE
ASD01140146
  19   20    0    0    0
SMALL
NO_CHARGES


@<TRIPOS>ATOM
   1 C1            -0.0162     1.3423     0.0094 C.2     
   2 C2             0.0021    -0.0041     0.0020 C.2     
   3 N3             1.1001    -0.8450    -0.0125 N.pl3   
   4 C4             2.4638    -0.4764    -0.0230 C.ar    
   5 C5             3.0096     0.8134    -0.0222 C.ar    
   6 N6             2.3505     2.0204    -0.0108 N.2     
   7 C7             1.0656     2.2538     0.0040 C.2     
   8 C8             4.3897     0.9776    -0.0346 C.ar    
   9 C9             5.2153    -0.1352    -0.0471 C.ar    
  10 C10            4.6726    -1.4043    -0.0474 C.ar    
  11 C11            3.2946    -1.5769    -0.0360 C.ar    
  12 H12           -0.9985     1.7910     0.0162 H       
  13 H13           -0.9630    -0.4888     0.0086 H       
  14 H14            0.9123    -1.7966    -0.0156 H       
  15 H15            0.7877     3.2974     0.0103 H       
  16 H16            4.8173     1.9693    -0.0347 H       
  17 H17            6.2878    -0.0090    -0.0571 H       
  18 H18            5.3224    -2.2669    -0.0576 H       
  19 H19            2.8743    -2.5718    -0.0362 H       
@<TRIPOS>BOND
   1    1    2 2
   2    1    7 1
   3    1   12 1
   4    2    3 1
   5    2   13 1
   6    3    4 1
   7    3   14 1
   8    4    5 ar
   9    4   11 ar
  10    5    6 1
  11    5    8 ar
  12    6    7 2
  13    7   15 1
  14    8    9 ar
  15    8   16 1
  16    9   10 ar
  17    9   17 1
  18   10   11 ar
  19   10   18 1
  20   11   19 1

#	End of record

