#	Name: ASD01816197
#	Creating user name:	WinNT
#	Creation time:	15. 06. 2019 19:34

#	Modifying user name:	WinNT
#	Modification time:	15. 06. 2019 19:34

#	Program:	/corina/corina34_cracker 3.40 0067  02.08.2006

@<TRIPOS>MOLECULE
ASD01816197
  44   48    0    0    0
SMALL
NO_CHARGES


@<TRIPOS>ATOM
   1 C1            -0.1514     1.2291     0.2141 C.ar    
   2 C2            -0.0759    -0.1542     0.1983 C.ar    
   3 C3             1.1452    -0.7909     0.1177 C.ar    
   4 C4             2.3166    -0.0448     0.0518 C.ar    
   5 C5             2.2367     1.3578     0.0681 C.ar    
   6 C6             0.9993     1.9879     0.1491 C.ar    
   7 N7             3.5452    -0.6774    -0.0282 N.pl3   
   8 C8             4.7084    -0.0099    -0.0942 C.2     
   9 C9             4.7550     1.3620    -0.0864 C.2     
  10 C10            3.4918     2.1301    -0.0028 C.2     
  11 C11            5.8098     2.3694    -0.1435 C.2     
  12 N12            5.1886     3.5677    -0.0964 N.am    
  13 N13            3.8049     3.3939    -0.0125 N.2     
  14 C14            5.8390     4.8078    -0.1269 C.ar    
  15 C15            5.6130     5.7384     0.8817 C.ar    
  16 C16            6.7152     5.1089    -1.1610 C.ar    
  17 C17            7.3551     6.3327    -1.1884 C.ar    
  18 C18            7.1249     7.2587    -0.1873 C.ar    
  19 C19            6.2573     6.9618     0.8476 C.ar    
  20 F20            4.7653     5.4480     1.8927 F       
  21 O21            7.0112     2.1691    -0.2181 O.2     
  22 C22            3.5779    -2.1419    -0.0411 C.3     
  23 C23            3.4318    -2.6353    -1.4575 C.ar    
  24 C24            3.4802    -3.9911    -1.7262 C.ar    
  25 C25            3.3460    -4.4434    -3.0267 C.ar    
  26 C26            3.1637    -3.5403    -4.0568 C.ar    
  27 C27            3.1154    -2.1850    -3.7878 C.ar    
  28 C28            3.2437    -1.7330    -2.4879 C.ar    
  29 Br29           3.7303    -5.2263    -0.3163 Br      
  30 H30           -1.1141     1.7151     0.2730 H       
  31 H31           -0.9819    -0.7398     0.2498 H       
  32 H32            1.1915    -1.8698     0.1061 H       
  33 H33            0.9395     3.0662     0.1619 H       
  34 H34            5.6317    -0.5670    -0.1546 H       
  35 H35            6.8966     4.3866    -1.9432 H       
  36 H36            8.0366     6.5668    -1.9929 H       
  37 H37            7.6275     8.2143    -0.2115 H       
  38 H38            6.0795     7.6872     1.6276 H       
  39 H39            4.5272    -2.4878     0.3680 H       
  40 H40            2.7586    -2.5290     0.5648 H       
  41 H41            3.3841    -5.5020    -3.2370 H       
  42 H42            3.0593    -3.8933    -5.0721 H       
  43 H43            2.9733    -1.4795    -4.5931 H       
  44 H44            3.2056    -0.6742    -2.2781 H       
@<TRIPOS>BOND
   1    1    2 ar
   2    1    6 ar
   3    1   30 1
   4    2    3 ar
   5    2   31 1
   6    3    4 ar
   7    3   32 1
   8    4    5 ar
   9    4    7 1
  10    5    6 ar
  11    5   10 1
  12    6   33 1
  13    7    8 1
  14    7   22 1
  15    8    9 2
  16    8   34 1
  17    9   10 1
  18    9   11 1
  19   10   13 2
  20   11   12 am
  21   11   21 2
  22   12   13 1
  23   12   14 1
  24   14   15 ar
  25   14   16 ar
  26   15   20 1
  27   15   19 ar
  28   16   17 ar
  29   16   35 1
  30   17   18 ar
  31   17   36 1
  32   18   19 ar
  33   18   37 1
  34   19   38 1
  35   22   23 1
  36   22   39 1
  37   22   40 1
  38   23   24 ar
  39   23   28 ar
  40   24   25 ar
  41   24   29 1
  42   25   26 ar
  43   25   41 1
  44   26   27 ar
  45   26   42 1
  46   27   28 ar
  47   27   43 1
  48   28   44 1

#	End of record

