#	Name: ASD02408150
#	Creating user name:	WinNT
#	Creation time:	15. 06. 2019 20:21

#	Modifying user name:	WinNT
#	Modification time:	15. 06. 2019 20:21

#	Program:	/corina/corina34_cracker 3.40 0067  02.08.2006

@<TRIPOS>MOLECULE
ASD02408150
  45   47    0    0    0
SMALL
NO_CHARGES


@<TRIPOS>ATOM
   1 C1             0.2508     1.3348    -0.0156 C.ar    
   2 C2             0.3349    -0.0497    -0.0162 C.ar    
   3 C3             1.4089     2.0978     0.0261 C.ar    
   4 C4             2.6423     1.4773     0.0669 C.ar    
   5 C5             2.7234     0.0968     0.0663 C.ar    
   6 C6             1.5710    -0.6656     0.0248 C.ar    
   7 C7             1.3213     3.6023     0.0263 C.3     
   8 C8             1.1196     4.0935     1.4366 C.2     
   9 N9             1.0154     5.4186     1.6559 N.am    
  10 N10            1.0462     3.2206     2.4044 N.2     
  11 C11            0.8673     3.5990     3.6764 C.2     
  12 C12            0.7559     4.9666     3.9773 C.2     
  13 C13            0.8339     5.8934     2.9062 C.2     
  14 N14            0.7931     2.6602     4.6759 N.pl3   
  15 C15            1.2820     2.8338     6.0559 C.3     
  16 O16            0.7434     7.0916     3.1108 O.2     
  17 C17            1.5433     1.3954     6.5679 C.3     
  18 C18            0.3741     0.6141     5.9122 C.3     
  19 C19            0.2071     1.3178     4.5488 C.3     
  20 C20           -1.2779     1.4219     4.1954 C.3     
  21 O21           -1.9812     2.0451     5.2720 O.3     
  22 C22            0.5639     5.4117     5.3247 C.1     
  23 N23            0.4117     5.7648     6.3937 N.1     
  24 O24           -0.9637     1.9430    -0.0616 O.3     
  25 C25           -2.1127     1.0947    -0.1089 C.3     
  26 F26           -2.1411     0.2840     1.0309 F       
  27 F27           -3.2701     1.8793    -0.1521 F       
  28 F28           -2.0516     0.2903    -1.2519 F       
  29 H29           -0.5652    -0.6458    -0.0482 H       
  30 H30            3.5440     2.0708     0.0991 H       
  31 H31            3.6887    -0.3865     0.0980 H       
  32 H32            1.6370    -1.7436     0.0244 H       
  33 H33            2.2444     4.0201    -0.3755 H       
  34 H34            0.4806     3.9173    -0.5919 H       
  35 H35            1.0717     6.0360     0.9099 H       
  36 H36            2.2061     3.4120     6.0610 H       
  37 H37            0.5243     3.3227     6.6681 H       
  38 H38            2.5063     1.0246     6.2170 H       
  39 H39            1.4819     1.3505     7.6553 H       
  40 H40            0.6386    -0.4347     5.7777 H       
  41 H41           -0.5350     0.7106     6.5058 H       
  42 H42            0.7359     0.7595     3.7763 H       
  43 H43           -1.3951     2.0188     3.2910 H       
  44 H44           -1.6821     0.4237     4.0269 H       
  45 H45           -2.9305     2.1442     5.1166 H       
@<TRIPOS>BOND
   1    1    2 ar
   2    1    3 ar
   3    1   24 1
   4    2    6 ar
   5    2   29 1
   6    3    4 ar
   7    3    7 1
   8    4    5 ar
   9    4   30 1
  10    5    6 ar
  11    5   31 1
  12    6   32 1
  13    7    8 1
  14    7   33 1
  15    7   34 1
  16    8    9 1
  17    8   10 2
  18    9   13 am
  19    9   35 1
  20   10   11 1
  21   11   12 2
  22   11   14 1
  23   12   13 1
  24   12   22 1
  25   13   16 2
  26   14   15 1
  27   14   19 1
  28   15   17 1
  29   15   36 1
  30   15   37 1
  31   17   18 1
  32   17   38 1
  33   17   39 1
  34   18   19 1
  35   18   40 1
  36   18   41 1
  37   19   20 1
  38   19   42 1
  39   20   21 1
  40   20   43 1
  41   20   44 1
  42   21   45 1
  43   22   23 3
  44   24   25 1
  45   25   26 1
  46   25   27 1
  47   25   28 1

#	End of record

