#	Name: ASD03091675
#	Creating user name:	WinNT
#	Creation time:	15. 06. 2019 20:31

#	Modifying user name:	WinNT
#	Modification time:	15. 06. 2019 20:31

#	Program:	/corina/corina34_cracker 3.40 0067  02.08.2006

@<TRIPOS>MOLECULE
ASD03091675
  22   23    0    0    0
SMALL
NO_CHARGES


@<TRIPOS>ATOM
   1 C1            -0.0169     1.3931     0.0097 C.ar    
   2 C2             0.0021    -0.0041     0.0020 C.ar    
   3 C3             1.2347    -0.6733    -0.0133 C.ar    
   4 C4             2.3934     0.0734    -0.0204 C.ar    
   5 C5             2.3064     1.4598    -0.0121 C.ar    
   6 N6             1.1482     2.0677     0.0022 N.ar    
   7 C7            -1.3730     1.9201     0.0196 C.2     
   8 C8            -2.3387     0.9675     0.0193 C.2     
   9 S9            -1.6370    -0.6386     0.0142 S.3     
  10 C10           -3.7307     1.2354     0.0280 C.2     
  11 O11           -4.1289     2.3852     0.0363 O.2     
  12 O12           -4.6142     0.2154     0.0269 O.3     
  13 N13           -1.6541     3.2797     0.0292 N.pl3   
  14 C14           -6.0014     0.5585     0.0360 C.3     
  15 H15            1.2752    -1.7525    -0.0191 H       
  16 H16            3.3573    -0.4136    -0.0318 H       
  17 H17            3.2126     2.0472    -0.0173 H       
  18 H18           -0.9297     3.9248     0.0295 H       
  19 H19           -2.5750     3.5845     0.0355 H       
  20 H20           -6.6009    -0.3518     0.0341 H       
  21 H21           -6.2261     1.1397     0.9303 H       
  22 H22           -6.2353     1.1494    -0.8496 H       
@<TRIPOS>BOND
   1    1    2 ar
   2    1    6 ar
   3    1    7 1
   4    2    3 ar
   5    2    9 1
   6    3    4 ar
   7    3   15 1
   8    4    5 ar
   9    4   16 1
  10    5    6 ar
  11    5   17 1
  12    7    8 2
  13    7   13 1
  14    8    9 1
  15    8   10 1
  16   10   11 2
  17   10   12 1
  18   12   14 1
  19   13   18 1
  20   13   19 1
  21   14   20 1
  22   14   21 1
  23   14   22 1

#	End of record

