#	Name: ASD01814472
#	Creating user name:	WinNT
#	Creation time:	15. 06. 2019 19:32

#	Modifying user name:	WinNT
#	Modification time:	15. 06. 2019 19:32

#	Program:	/corina/corina34_cracker 3.40 0067  02.08.2006

@<TRIPOS>MOLECULE
ASD01814472
  60   65    0    0    0
SMALL
NO_CHARGES


@<TRIPOS>ATOM
   1 C1            -1.0285     0.3072     0.2743 C.ar    
   2 C2            -0.9069    -1.0639     0.1105 C.ar    
   3 C3             0.3321    -1.6703     0.1342 C.ar    
   4 C4             1.4753    -0.9035     0.3236 C.ar    
   5 C5             1.3470     0.4895     0.4892 C.ar    
   6 C6             0.0945     1.0877     0.4638 C.ar    
   7 N7             2.7283    -1.4808     0.3526 N.pl3   
   8 N8             3.8125    -0.8177     0.5246 N.2     
   9 C9             3.8524     0.4788     0.6916 C.2     
  10 C10            2.5896     1.2576     0.6868 C.2     
  11 C11            4.9060     1.4742     0.9026 C.2     
  12 N12            4.2820     2.6675     1.0024 N.am    
  13 N13            2.9005     2.5065     0.8696 N.2     
  14 C14            2.8254    -2.9321     0.1777 C.3     
  15 C15            2.9728    -3.2527    -1.2875 C.ar    
  16 C16            4.2321    -3.3347    -1.8631 C.ar    
  17 C17            4.3239    -3.6321    -3.2125 C.ar    
  18 C18            3.1549    -3.8375    -3.9411 C.ar    
  19 N19            1.9692    -3.7500    -3.3525 N.ar    
  20 C20            1.8536    -3.4738    -2.0700 C.ar    
  21 O21            6.1057     1.2668     0.9742 O.2     
  22 C22            4.9276     3.8920     1.2096 C.ar    
  23 C23            3.2363    -4.1565    -5.3880 C.ar    
  24 C24            5.9370     4.3011     0.3480 C.ar    
  25 C25            6.5721     5.5100     0.5553 C.ar    
  26 C26            6.2041     6.3125     1.6195 C.ar    
  27 C27            5.1992     5.9080     2.4795 C.ar    
  28 C28            4.5561     4.7034     2.2743 C.ar    
  29 C29            4.1183    -5.1325    -5.8592 C.ar    
  30 C30            4.1617    -5.3983    -7.2131 C.ar    
  31 N31            3.3857    -4.7454    -8.0563 N.ar    
  32 C32            2.5398    -3.8171    -7.6527 C.ar    
  33 C33            2.4288    -3.4929    -6.3160 C.ar    
  34 C34            3.4612     4.2636     3.2118 C.3     
  35 C35            4.8015     6.7858     3.6381 C.3     
  36 C36            1.4594    -2.4310    -5.8647 C.3     
  37 H37           -2.0052     0.7673     0.2491 H       
  38 H38           -1.7923    -1.6644    -0.0371 H       
  39 H39            0.4133    -2.7396     0.0060 H       
  40 H40           -0.0007     2.1559     0.5910 H       
  41 H41            3.6934    -3.3062     0.7206 H       
  42 H42            1.9231    -3.4059     0.5643 H       
  43 H43            5.1211    -3.1699    -1.2724 H       
  44 H44            5.2884    -3.7033    -3.6932 H       
  45 H45            0.8716    -3.4106    -1.6251 H       
  46 H46            6.2253     3.6745    -0.4830 H       
  47 H47            7.3572     5.8287    -0.1144 H       
  48 H48            6.7028     7.2570     1.7798 H       
  49 H49            4.7568    -5.6708    -5.1743 H       
  50 H50            4.8403    -6.1507    -7.5868 H       
  51 H51            1.9229    -3.3069    -8.3777 H       
  52 H52            2.5016     4.6296     2.8468 H       
  53 H53            3.4401     3.1748     3.2603 H       
  54 H54            3.6501     4.6680     4.2062 H       
  55 H55            4.0093     7.4653     3.3239 H       
  56 H56            4.4427     6.1642     4.4585 H       
  57 H57            5.6647     7.3627     3.9699 H       
  58 H58            0.5270    -2.9001    -5.5505 H       
  59 H59            1.8884    -1.8793    -5.0282 H       
  60 H60            1.2617    -1.7456    -6.6888 H       
@<TRIPOS>BOND
   1    1    2 ar
   2    1    6 ar
   3    1   37 1
   4    2    3 ar
   5    2   38 1
   6    3    4 ar
   7    3   39 1
   8    4    5 ar
   9    4    7 1
  10    5    6 ar
  11    5   10 1
  12    6   40 1
  13    7    8 1
  14    7   14 1
  15    8    9 2
  16    9   10 1
  17    9   11 1
  18   10   13 2
  19   11   12 am
  20   11   21 2
  21   12   13 1
  22   12   22 1
  23   14   15 1
  24   14   41 1
  25   14   42 1
  26   15   16 ar
  27   15   20 ar
  28   16   17 ar
  29   16   43 1
  30   17   18 ar
  31   17   44 1
  32   18   19 ar
  33   18   23 1
  34   19   20 ar
  35   20   45 1
  36   22   24 ar
  37   22   28 ar
  38   23   29 ar
  39   23   33 ar
  40   24   25 ar
  41   24   46 1
  42   25   26 ar
  43   25   47 1
  44   26   27 ar
  45   26   48 1
  46   27   28 ar
  47   27   35 1
  48   28   34 1
  49   29   30 ar
  50   29   49 1
  51   30   31 ar
  52   30   50 1
  53   31   32 ar
  54   32   33 ar
  55   32   51 1
  56   33   36 1
  57   34   52 1
  58   34   53 1
  59   34   54 1
  60   35   55 1
  61   35   56 1
  62   35   57 1
  63   36   58 1
  64   36   59 1
  65   36   60 1

#	End of record

