#	Name: ASD01350050
#	Creating user name:	WinNT
#	Creation time:	15. 06. 2019 19:16

#	Modifying user name:	WinNT
#	Modification time:	15. 06. 2019 19:16

#	Program:	/corina/corina34_cracker 3.40 0067  02.08.2006

@<TRIPOS>MOLECULE
ASD01350050
  28   29    0    0    0
SMALL
NO_CHARGES


@<TRIPOS>ATOM
   1 C1            -0.0173     1.4248     0.0099 C.3     
   2 O2             0.0021    -0.0041     0.0020 O.3     
   3 C3             0.6060    -0.6073    -1.0561 C.ar    
   4 C4             1.1672     0.1593    -2.0638 C.ar    
   5 C5             1.7816    -0.4518    -3.1403 C.ar    
   6 C6             1.8401    -1.8376    -3.2182 C.ar    
   7 C7             1.2818    -2.6144    -2.2144 C.ar    
   8 C8             0.6665    -2.0024    -1.1255 C.ar    
   9 C9             0.0680    -2.8277    -0.0484 C.ar    
  10 C10            0.8372    -3.2099     1.0503 C.ar    
  11 Cl11           2.4990    -2.7201     1.1613 Cl      
  12 C12            0.2739    -3.9786     2.0503 C.ar    
  13 C13           -1.0499    -4.3696     1.9633 C.ar    
  14 C14           -1.8179    -3.9942     0.8760 C.ar    
  15 C15           -1.2680    -3.2199    -0.1272 C.ar    
  16 Cl16          -2.2337    -2.7491    -1.4909 Cl      
  17 N17            2.4629    -2.4505    -4.3114 N.pl3   
  18 H18            1.0053     1.8021     0.0021 H       
  19 H19           -0.5445     1.7859    -0.8732 H       
  20 H20           -0.5275     1.7763     0.9067 H       
  21 H21            1.1242     1.2371    -2.0084 H       
  22 H22            2.2175     0.1501    -3.9240 H       
  23 H23            1.3271    -3.6917    -2.2753 H       
  24 H24            0.8686    -4.2753     2.9016 H       
  25 H25           -1.4857    -4.9709     2.7475 H       
  26 H26           -2.8509    -4.3029     0.8135 H       
  27 H27            2.8534    -1.9077    -5.0141 H       
  28 H28            2.5041    -3.4181    -4.3663 H       
@<TRIPOS>BOND
   1    1    2 1
   2    1   18 1
   3    1   19 1
   4    1   20 1
   5    2    3 1
   6    3    4 ar
   7    3    8 ar
   8    4    5 ar
   9    4   21 1
  10    5    6 ar
  11    5   22 1
  12    6    7 ar
  13    6   17 1
  14    7    8 ar
  15    7   23 1
  16    8    9 1
  17    9   10 ar
  18    9   15 ar
  19   10   11 1
  20   10   12 ar
  21   12   13 ar
  22   12   24 1
  23   13   14 ar
  24   13   25 1
  25   14   15 ar
  26   14   26 1
  27   15   16 1
  28   17   27 1
  29   17   28 1

#	End of record

