#	Name: ASD01903143
#	Creating user name:	WinNT
#	Creation time:	15. 06. 2019 19:54

#	Modifying user name:	WinNT
#	Modification time:	15. 06. 2019 19:54

#	Program:	/corina/corina34_cracker 3.40 0067  02.08.2006

@<TRIPOS>MOLECULE
ASD01903143
  46   48    0    0    0
SMALL
NO_CHARGES


@<TRIPOS>ATOM
   1 C1             1.2685    -1.6627     0.4122 C.ar    
   2 C2             0.3828    -1.0440    -0.4559 C.ar    
   3 C3             0.7827     0.0949    -1.1369 C.ar    
   4 N4             1.9879     0.5936    -0.9697 N.ar    
   5 C5             2.8662     0.0317    -0.1479 C.ar    
   6 C6             2.5323    -1.1150     0.5688 C.ar    
   7 C7             4.2126     0.6293     0.0083 C.2     
   8 N8             4.5416     1.7389    -0.6825 N.am    
   9 O9             5.0205     0.1191     0.7592 O.2     
  10 C10            5.7759     2.3584    -0.4635 C.ar    
  11 C11            6.8992     1.5917    -0.1816 C.ar    
  12 C12            8.1168     2.2067     0.0343 C.ar    
  13 C13            8.2183     3.5844    -0.0301 C.ar    
  14 C14            7.1018     4.3507    -0.3101 C.ar    
  15 C15            5.8825     3.7415    -0.5330 C.ar    
  16 S16            9.7736     4.3651     0.2459 S.o2    
  17 O17            9.4912     5.7211     0.5633 O.2     
  18 O18           10.5088     3.5030     1.1035 O.2     
  19 N19           10.5777     4.3813    -1.2017 N.am    
  20 C20           10.9058     3.1788    -1.8319 C.ar    
  21 C21           10.6667     3.0169    -3.1906 C.ar    
  22 C22           10.9929     1.8268    -3.8106 C.ar    
  23 C23           11.5569     0.7968    -3.0804 C.ar    
  24 C24           11.7962     0.9545    -1.7275 C.ar    
  25 C25           11.4774     2.1440    -1.1024 C.ar    
  26 C26           10.7333     1.6501    -5.2846 C.3     
  27 C27           12.4110    -0.1707    -0.9358 C.3     
  28 H28            0.9791    -2.5487     0.9577 H       
  29 H29           -0.6092    -1.4458    -0.6006 H       
  30 H30            0.0952     0.5794    -1.8145 H       
  31 H31            3.2479    -1.5712     1.2367 H       
  32 H32            3.9222     2.1076    -1.3315 H       
  33 H33            6.8206     0.5158    -0.1308 H       
  34 H34            8.9906     1.6112     0.2539 H       
  35 H35            7.1843     5.4264    -0.3593 H       
  36 H36            5.0108     4.3406    -0.7517 H       
  37 H37           10.8207     5.2260    -1.6121 H       
  38 H38           10.2259     3.8208    -3.7615 H       
  39 H39           11.8106    -0.1331    -3.5676 H       
  40 H40           11.6649     2.2666    -0.0459 H       
  41 H41           11.6082     1.9732    -5.8488 H       
  42 H42           10.5330     0.5996    -5.4949 H       
  43 H43            9.8711     2.2499    -5.5761 H       
  44 H44           13.4968    -0.0765    -0.9534 H       
  45 H45           12.0590    -0.1245     0.0948 H       
  46 H46           12.1220    -1.1250    -1.3760 H       
@<TRIPOS>BOND
   1    1    2 ar
   2    1    6 ar
   3    1   28 1
   4    2    3 ar
   5    2   29 1
   6    3    4 ar
   7    3   30 1
   8    4    5 ar
   9    5    6 ar
  10    5    7 1
  11    6   31 1
  12    7    8 am
  13    7    9 2
  14    8   10 1
  15    8   32 1
  16   10   11 ar
  17   10   15 ar
  18   11   12 ar
  19   11   33 1
  20   12   13 ar
  21   12   34 1
  22   13   14 ar
  23   13   16 1
  24   14   15 ar
  25   14   35 1
  26   15   36 1
  27   16   17 2
  28   16   18 2
  29   16   19 am
  30   19   20 1
  31   19   37 1
  32   20   21 ar
  33   20   25 ar
  34   21   22 ar
  35   21   38 1
  36   22   23 ar
  37   22   26 1
  38   23   24 ar
  39   23   39 1
  40   24   25 ar
  41   24   27 1
  42   25   40 1
  43   26   41 1
  44   26   42 1
  45   26   43 1
  46   27   44 1
  47   27   45 1
  48   27   46 1

#	End of record

