#	Name: ASD01418017
#	Creating user name:	WinNT
#	Creation time:	15. 06. 2019 19:20

#	Modifying user name:	WinNT
#	Modification time:	15. 06. 2019 19:20

#	Program:	/corina/corina34_cracker 3.40 0067  02.08.2006

@<TRIPOS>MOLECULE
ASD01418017
  26   27    0    0    0
SMALL
NO_CHARGES


@<TRIPOS>ATOM
   1 N1            -0.0169     1.3938     0.0097 N.4     
   2 C2             0.0021    -0.0041     0.0020 C.ar    
   3 C3             0.0229    -0.7016     1.1970 C.ar    
   4 C4             0.0417    -2.0899     1.1885 C.ar    
   5 C5             0.0396    -2.7740    -0.0202 C.ar    
   6 C6             0.0187    -2.0706    -1.2113 C.ar    
   7 C7            -0.0057    -0.6881    -1.1992 C.ar    
   8 O8             0.0626    -2.7783     2.3611 O.3     
   9 C9            -1.1271    -3.1175     2.9230 C.ar    
  10 C10           -1.1556    -3.8202     4.1192 C.ar    
  11 C11           -2.3664    -4.1635     4.6885 C.ar    
  12 C12           -3.5494    -3.8075     4.0674 C.ar    
  13 C13           -3.5239    -3.1077     2.8752 C.ar    
  14 C14           -2.3158    -2.7569     2.3045 C.ar    
  15 F15            0.0254    -0.0325     2.3707 F       
  16 F16            0.0583    -4.1248    -0.0327 F       
  17 H17            0.9297     1.7430     0.0025 H       
  18 H18           -0.5049     1.7280    -0.8077 H       
  19 H19           -0.4892     1.7192     0.8399 H       
  20 H20            0.0174    -2.6019    -2.1515 H       
  21 H21           -0.0264    -0.1414    -2.1304 H       
  22 H22           -0.2319    -4.0988     4.6045 H       
  23 H23           -2.3892    -4.7107     5.6193 H       
  24 H24           -4.4951    -4.0768     4.5142 H       
  25 H25           -4.4493    -2.8314     2.3918 H       
  26 H26           -2.2964    -2.2061     1.3757 H       
@<TRIPOS>BOND
   1    1    2 1
   2    1   17 1
   3    1   18 1
   4    1   19 1
   5    2    3 ar
   6    2    7 ar
   7    3    4 ar
   8    3   15 1
   9    4    5 ar
  10    4    8 1
  11    5    6 ar
  12    5   16 1
  13    6    7 ar
  14    6   20 1
  15    7   21 1
  16    8    9 1
  17    9   10 ar
  18    9   14 ar
  19   10   11 ar
  20   10   22 1
  21   11   12 ar
  22   11   23 1
  23   12   13 ar
  24   12   24 1
  25   13   14 ar
  26   13   25 1
  27   14   26 1

#	End of record

