#	Name: ASD01916054
#	Creating user name:	WinNT
#	Creation time:	15. 06. 2019 20:06

#	Modifying user name:	WinNT
#	Modification time:	15. 06. 2019 20:06

#	Program:	/corina/corina34_cracker 3.40 0067  02.08.2006

@<TRIPOS>MOLECULE
ASD01916054
  58   61    0    0    0
SMALL
NO_CHARGES


@<TRIPOS>ATOM
   1 C1            -0.0169     1.3968     0.0097 C.ar    
   2 C2             0.0021    -0.0041     0.0020 C.ar    
   3 N3            -1.1459    -0.6583     0.0095 N.ar    
   4 C4            -2.2953    -0.0124     0.0240 C.ar    
   5 C5            -3.5770    -0.8051     0.0320 C.3     
   6 C6             1.2009     2.1501     0.0021 C.1     
   7 C7             2.1994     2.7676    -0.0041 C.1     
   8 C8             3.4172     3.5209    -0.0117 C.ar    
   9 C9             3.3788     4.9177    -0.0038 C.ar    
  10 C10            5.8186     3.5948    -0.0285 C.ar    
  11 C11            4.5559     5.6365    -0.0112 C.ar    
  12 N12           -2.3598     1.3046     0.0321 N.ar    
  13 C13           -1.2618     2.0396     0.0192 C.ar    
  14 C14            4.6498     2.8626    -0.0212 C.ar    
  15 C15            5.7727     4.9778    -0.0269 C.ar    
  16 C16           -4.7991     0.1421     0.0488 C.3     
  17 C17           -3.7026    -1.5956     1.3158 C.2     
  18 N18           -4.9458    -1.4757     1.8127 N.am    
  19 C19           -5.7839    -0.6304     0.9543 C.3     
  20 C20           -5.4052    -2.1079     3.0519 C.3     
  21 O21           -2.8115    -2.2437     1.8224 O.2     
  22 C22           -6.5979     0.3463     1.8054 C.3     
  23 C23           -6.7153    -1.4974     0.1048 C.3     
  24 C24           -3.6363    -1.7215    -1.1629 C.2     
  25 O25           -2.6845    -2.6504    -1.3442 O.3     
  26 O26           -4.5407    -1.6201    -1.9577 O.2     
  27 C27           -2.8056    -3.4981    -2.5168 C.3     
  28 C28           -1.6563    -4.4723    -2.5533 C.ar    
  29 C29           -1.7742    -5.7036    -1.9362 C.ar    
  30 C30           -0.7200    -6.5972    -1.9696 C.ar    
  31 C31            0.4519    -6.2596    -2.6204 C.ar    
  32 C32            0.5694    -5.0286    -3.2382 C.ar    
  33 C33           -0.4863    -4.1367    -3.2085 C.ar    
  34 H34            0.9395    -0.5403    -0.0102 H       
  35 H35            2.4298     5.4331     0.0077 H       
  36 H36            6.7720     3.0874    -0.0408 H       
  37 H37            4.5278     6.7161    -0.0052 H       
  38 H38           -1.3228     3.1178     0.0263 H       
  39 H39            4.6871     1.7833    -0.0225 H       
  40 H40            6.6912     5.5459    -0.0327 H       
  41 H41           -4.5397     1.1057     0.4874 H       
  42 H42           -5.2082     0.2689    -0.9535 H       
  43 H43           -4.5880    -2.6785     3.4932 H       
  44 H44           -5.7317    -1.3394     3.7525 H       
  45 H45           -6.2376    -2.7762     2.8318 H       
  46 H46           -5.9218     0.9629     2.3976 H       
  47 H47           -7.1956     0.9844     1.1546 H       
  48 H48           -7.2562    -0.2128     2.4704 H       
  49 H49           -7.3745    -2.0698     0.7574 H       
  50 H50           -7.3130    -0.8590    -0.5458 H       
  51 H51           -6.1220    -2.1810    -0.5024 H       
  52 H52           -3.7461    -4.0472    -2.4726 H       
  53 H53           -2.7871    -2.8807    -3.4149 H       
  54 H54           -2.6898    -5.9674    -1.4277 H       
  55 H55           -0.8119    -7.5589    -1.4869 H       
  56 H56            1.2757    -6.9574    -2.6459 H       
  57 H57            1.4851    -4.7647    -3.7464 H       
  58 H58           -0.3945    -3.1750    -3.6912 H       
@<TRIPOS>BOND
   1    1    2 ar
   2    1    6 1
   3    1   13 ar
   4    2    3 ar
   5    2   34 1
   6    3    4 ar
   7    4   12 ar
   8    4    5 1
   9    5   16 1
  10    5   17 1
  11    5   24 1
  12    6    7 3
  13    7    8 1
  14    8    9 ar
  15    8   14 ar
  16    9   11 ar
  17    9   35 1
  18   10   15 ar
  19   10   14 ar
  20   10   36 1
  21   11   15 ar
  22   11   37 1
  23   12   13 ar
  24   13   38 1
  25   14   39 1
  26   15   40 1
  27   16   19 1
  28   16   41 1
  29   16   42 1
  30   17   18 am
  31   17   21 2
  32   18   19 1
  33   18   20 1
  34   19   22 1
  35   19   23 1
  36   20   43 1
  37   20   44 1
  38   20   45 1
  39   22   46 1
  40   22   47 1
  41   22   48 1
  42   23   49 1
  43   23   50 1
  44   23   51 1
  45   24   25 1
  46   24   26 2
  47   25   27 1
  48   27   28 1
  49   27   52 1
  50   27   53 1
  51   28   29 ar
  52   28   33 ar
  53   29   30 ar
  54   29   54 1
  55   30   31 ar
  56   30   55 1
  57   31   32 ar
  58   31   56 1
  59   32   33 ar
  60   32   57 1
  61   33   58 1

#	End of record

