#	Name: ASD03540588
#	Creating user name:	WinNT
#	Creation time:	15. 06. 2019 20:43

#	Modifying user name:	WinNT
#	Modification time:	15. 06. 2019 20:43

#	Program:	/corina/corina34_cracker 3.40 0067  02.08.2006

@<TRIPOS>MOLECULE
ASD03540588
  62   67    0    0    0
SMALL
NO_CHARGES


@<TRIPOS>ATOM
   1 N1            -0.0164     1.3608     0.0095 N.pl3   
   2 C2             0.0021    -0.0041     0.0020 C.2     
   3 N3             1.1903    -0.7096    -0.0132 N.am    
   4 C4             2.3778    -0.0689    -0.0205 C.2     
   5 C5             2.3905     1.4059    -0.0126 C.ar    
   6 C6             3.5856     2.1159    -0.0186 C.ar    
   7 C7             3.5564     3.5090    -0.0098 C.ar    
   8 C8             2.3300     4.1837     0.0049 C.ar    
   9 C9             1.1468     3.4801     0.0112 C.ar    
  10 C10            1.1624     2.0911     0.0022 C.ar    
  11 N11           -2.0330     0.6196     0.0248 N.2     
  12 N12           -1.2514    -0.4005     0.0119 N.2     
  13 C13           -1.3340     1.7207     0.0296 C.2     
  14 C14            4.8199     4.2740    -0.0155 C.2     
  15 O15            5.8851     3.6882    -0.0278 O.2     
  16 N16            4.7919     5.6214    -0.0070 N.am    
  17 O17            3.4195    -0.6967    -0.0330 O.2     
  18 C18            1.1602    -2.1743    -0.0209 C.3     
  19 C19            1.1364    -2.6687    -1.4443 C.ar    
  20 C20            2.3223    -2.9201    -2.1086 C.ar    
  21 C21            2.3004    -3.3736    -3.4143 C.ar    
  22 C22            1.0926    -3.5762    -4.0554 C.ar    
  23 C23           -0.0933    -3.3257    -3.3908 C.ar    
  24 C24           -0.0715    -2.8763    -2.0837 C.ar    
  25 C25            1.0687    -4.0696    -5.4791 C.3     
  26 C26            6.0450     6.3802    -0.0127 C.3     
  27 C27            5.3279     9.8775     1.2177 C.ar    
  28 C28            5.6087     8.5236     1.2019 C.ar    
  29 C29            5.7389     7.8558    -0.0011 C.ar    
  30 C30            5.5894     8.5387    -1.1942 C.ar    
  31 C31            5.3089     9.8950    -1.1860 C.ar    
  32 C32            5.1777    10.5681     0.0266 C.ar    
  33 O33            4.9037    11.8804    -0.2305 O.3     
  34 C34            4.4660    11.9203    -1.6017 C.3     
  35 O35            5.1184    10.7861    -2.2023 O.3     
  36 C36            1.0388    -5.5763    -5.4881 C.2     
  37 O37            1.0141    -6.2401    -6.6545 O.3     
  38 O38            1.0370    -6.1868    -4.4454 O.2     
  39 C39            0.9861    -7.6903    -6.5872 C.3     
  40 H40            4.5298     1.5916    -0.0295 H       
  41 H41            2.3119     5.2635     0.0116 H       
  42 H42            0.2051     4.0088     0.0233 H       
  43 H43           -1.7237     2.7278     0.0403 H       
  44 H44            3.9419     6.0888     0.0028 H       
  45 H45            2.0474    -2.5586     0.4824 H       
  46 H46            0.2679    -2.5221     0.4996 H       
  47 H47            3.2659    -2.7618    -1.6077 H       
  48 H48            3.2269    -3.5693    -3.9335 H       
  49 H49           -1.0370    -3.4837    -3.8918 H       
  50 H50           -0.9981    -2.6842    -1.5632 H       
  51 H51            0.1812    -3.6856    -5.9820 H       
  52 H52            1.9607    -3.7208    -5.9995 H       
  53 H53            6.6292     6.1234     0.8710 H       
  54 H54            6.6146     6.1343    -0.9089 H       
  55 H55            5.2226    10.3960     2.1592 H       
  56 H56            5.7254     7.9866     2.1316 H       
  57 H57            5.6917     8.0143    -2.1328 H       
  58 H58            3.3828    11.8144    -1.6612 H       
  59 H59            4.7882    12.8453    -2.0798 H       
  60 H60            1.8744    -8.0471    -6.0659 H       
  61 H61            0.0948    -8.0118    -6.0483 H       
  62 H62            0.9680    -8.1006    -7.5969 H       
@<TRIPOS>BOND
   1    1    2 1
   2    1   10 1
   3    1   13 1
   4    2    3 1
   5    2   12 2
   6    3    4 am
   7    3   18 1
   8    4    5 1
   9    4   17 2
  10    5    6 ar
  11    5   10 ar
  12    6    7 ar
  13    6   40 1
  14    7    8 ar
  15    7   14 1
  16    8    9 ar
  17    8   41 1
  18    9   10 ar
  19    9   42 1
  20   11   12 1
  21   11   13 2
  22   13   43 1
  23   14   15 2
  24   14   16 am
  25   16   26 1
  26   16   44 1
  27   18   19 1
  28   18   45 1
  29   18   46 1
  30   19   20 ar
  31   19   24 ar
  32   20   21 ar
  33   20   47 1
  34   21   22 ar
  35   21   48 1
  36   22   23 ar
  37   22   25 1
  38   23   24 ar
  39   23   49 1
  40   24   50 1
  41   25   36 1
  42   25   51 1
  43   25   52 1
  44   26   29 1
  45   26   53 1
  46   26   54 1
  47   27   28 ar
  48   27   32 ar
  49   27   55 1
  50   28   29 ar
  51   28   56 1
  52   29   30 ar
  53   30   31 ar
  54   30   57 1
  55   31   32 ar
  56   31   35 1
  57   32   33 1
  58   33   34 1
  59   34   35 1
  60   34   58 1
  61   34   59 1
  62   36   37 1
  63   36   38 2
  64   37   39 1
  65   39   60 1
  66   39   61 1
  67   39   62 1

#	End of record

