#	Name: ASD01880008
#	Creating user name:	WinNT
#	Creation time:	15. 06. 2019 19:39

#	Modifying user name:	WinNT
#	Modification time:	15. 06. 2019 19:39

#	Program:	/corina/corina34_cracker 3.40 0067  02.08.2006

@<TRIPOS>MOLECULE
ASD01880008
  59   61    0    0    0
SMALL
NO_CHARGES


@<TRIPOS>ATOM
   1 N1            -0.1389     3.0913    -1.3335 N.pl3   
   2 N2            -0.3046     1.8301    -1.5315 N.2     
   3 N3             0.8435     1.2443    -1.4836 N.2     
   4 C4             1.7631     2.1899    -1.2443 C.2     
   5 N5             1.1142     3.3340    -1.1559 N.2     
   6 C6             3.2270     1.9879    -1.1053 C.ar    
   7 C7             3.7698     0.7101    -1.2248 C.ar    
   8 C8             5.1304     0.5254    -1.0952 C.ar    
   9 C9             5.9589     1.6110    -0.8455 C.ar    
  10 C10            5.4208     2.8851    -0.7255 C.ar    
  11 C11            4.0617     3.0766    -0.8608 C.ar    
  12 C12           13.3926     1.6691    -1.2039 C.ar    
  13 C13           14.0456     1.4014    -0.0037 C.ar    
  14 C14           15.1023     0.5386     0.0302 C.ar    
  15 C15           15.5373    -0.0850    -1.1470 C.ar    
  16 C16           14.8793     0.1831    -2.3611 C.ar    
  17 C17           13.8095     1.0608    -2.3795 C.ar    
  18 C18           13.0972     1.3548    -3.6746 C.3     
  19 C19           11.9523     0.3578    -3.8647 C.3     
  20 C20           11.2292     0.6562    -5.1796 C.3     
  21 O21           15.2914    -0.4140    -3.5068 O.3     
  22 C22           16.6718    -1.0112    -1.1134 C.2     
  23 C23           17.4515    -1.2017     0.1620 C.3     
  24 O24           16.9836    -1.6250    -2.1126 O.2     
  25 O25            7.2989     1.4260    -0.7178 O.3     
  26 C26            8.0924     2.5865    -0.4614 C.3     
  27 C27           11.8855     3.0228     0.0367 C.3     
  28 C28            9.5642     2.1834    -0.3496 C.3     
  29 C29           10.4138     3.4259    -0.0751 C.3     
  30 O30           12.3400     2.5249    -1.2233 O.3     
  31 C31           12.7195     4.2424     0.4340 C.3     
  32 H32           -0.8459     3.7553    -1.3237 H       
  33 H33            3.1257    -0.1348    -1.4184 H       
  34 H34            5.5516    -0.4647    -1.1878 H       
  35 H35            6.0676     3.7278    -0.5308 H       
  36 H36            3.6436     4.0680    -0.7674 H       
  37 H37           13.7139     1.8796     0.9061 H       
  38 H38           15.6041     0.3366     0.9649 H       
  39 H39           12.6959     2.3678    -3.6467 H       
  40 H40           13.7989     1.2646    -4.5038 H       
  41 H41           12.3536    -0.6553    -3.8926 H       
  42 H42           11.2506     0.4479    -3.0356 H       
  43 H43           10.4136    -0.0541    -5.3150 H       
  44 H44           10.8279     1.6693    -5.1517 H       
  45 H45           11.9309     0.5661    -6.0088 H       
  46 H46           14.8579    -1.2592    -3.6877 H       
  47 H47           17.0872    -0.5060     0.9179 H       
  48 H48           17.3231    -2.2242     0.5171 H       
  49 H49           18.5083    -1.0126    -0.0265 H       
  50 H50            7.9715     3.2973    -1.2789 H       
  51 H51            7.7702     3.0480     0.4720 H       
  52 H52           11.9931     2.2466     0.7944 H       
  53 H53            9.6851     1.4727     0.4679 H       
  54 H54            9.8864     1.7219    -1.2830 H       
  55 H55           10.0915     3.8874     0.8583 H       
  56 H56           10.2928     4.1366    -0.8926 H       
  57 H57           12.6119     5.0186    -0.3237 H       
  58 H58           12.3728     4.6223     1.3951 H       
  59 H59           13.7680     3.9553     0.5136 H       
@<TRIPOS>BOND
   1    1    2 1
   2    1    5 1
   3    1   32 1
   4    2    3 2
   5    3    4 1
   6    4    5 2
   7    4    6 1
   8    6    7 ar
   9    6   11 ar
  10    7    8 ar
  11    7   33 1
  12    8    9 ar
  13    8   34 1
  14    9   10 ar
  15    9   25 1
  16   10   11 ar
  17   10   35 1
  18   11   36 1
  19   12   13 ar
  20   12   17 ar
  21   12   30 1
  22   13   14 ar
  23   13   37 1
  24   14   15 ar
  25   14   38 1
  26   15   16 ar
  27   15   22 1
  28   16   17 ar
  29   16   21 1
  30   17   18 1
  31   18   19 1
  32   18   39 1
  33   18   40 1
  34   19   20 1
  35   19   41 1
  36   19   42 1
  37   20   43 1
  38   20   44 1
  39   20   45 1
  40   21   46 1
  41   22   23 1
  42   22   24 2
  43   23   47 1
  44   23   48 1
  45   23   49 1
  46   25   26 1
  47   26   28 1
  48   26   50 1
  49   26   51 1
  50   27   30 1
  51   27   31 1
  52   27   29 1
  53   27   52 1
  54   28   29 1
  55   28   53 1
  56   28   54 1
  57   29   55 1
  58   29   56 1
  59   31   57 1
  60   31   58 1
  61   31   59 1

#	End of record

