#	Name: ASD03082346
#	Creating user name:	WinNT
#	Creation time:	15. 06. 2019 20:27

#	Modifying user name:	WinNT
#	Modification time:	15. 06. 2019 20:27

#	Program:	/corina/corina34_cracker 3.40 0067  02.08.2006

@<TRIPOS>MOLECULE
ASD03082346
  43   45    0    0    0
SMALL
NO_CHARGES


@<TRIPOS>ATOM
   1 C1            -4.1180    -1.1450     0.1570 C.ar    
   2 C2            -3.0867    -0.5757     0.8923 C.ar    
   3 C3            -3.3378     0.5267     1.6995 C.ar    
   4 C4            -4.6121     1.0549     1.7699 C.ar    
   5 C5            -5.6400     0.4869     1.0372 C.ar    
   6 C6            -5.3928    -0.6133     0.2300 C.ar    
   7 F7            -6.3972    -1.1660    -0.4847 F       
   8 F8            -6.8857     1.0050     1.1085 F       
   9 N9            -1.7972    -1.1116     0.8206 N.pl3   
  10 C10           -1.6186    -2.4674     0.5267 C.2     
  11 C11           -0.3866    -3.1087     0.3112 C.2     
  12 N12           -2.5721    -3.3617     0.4101 N.2     
  13 N13           -1.9807    -4.5960     0.1117 N.pl3   
  14 C14           -0.6355    -4.4128     0.0566 C.2     
  15 C15           -2.6551    -5.8040    -0.0894 C.ar    
  16 C16           -2.1792    -6.9895     0.4673 C.ar    
  17 C17           -3.8240    -5.8528    -0.8470 C.ar    
  18 C18           -4.4597    -7.0646    -1.0218 C.ar    
  19 N19           -3.9743    -8.1671    -0.4827 N.ar    
  20 C20           -2.8740    -8.1610     0.2453 C.ar    
  21 C21           -5.7245    -7.1303    -1.8384 C.3     
  22 H22           -2.5097    -9.0854     0.6686 H       
  23 C23            0.3944    -5.4732    -0.2363 C.3     
  24 C24            1.0003    -5.9723     1.0770 C.3     
  25 C25            1.9480    -7.1389     0.7906 C.3     
  26 O26            2.5138    -7.6051     2.0172 O.3     
  27 H27           -3.9240    -1.9993    -0.4746 H       
  28 H28           -2.5369     0.9703     2.2722 H       
  29 H29           -4.8068     1.9119     2.3976 H       
  30 H30           -1.0265    -0.5431     0.9747 H       
  31 H31            0.5869    -2.6420     0.3431 H       
  32 H32           -1.2789    -6.9915     1.0638 H       
  33 H33           -4.2267    -4.9542    -1.2906 H       
  34 H34           -5.4735    -7.3154    -2.8828 H       
  35 H35           -6.3550    -7.9384    -1.4675 H       
  36 H36           -6.2600    -6.1845    -1.7556 H       
  37 H37           -0.0790    -6.3053    -0.7575 H       
  38 H38            1.1811    -5.0525    -0.8626 H       
  39 H39            1.5539    -5.1628     1.5525 H       
  40 H40            0.2031    -6.3064     1.7410 H       
  41 H41            1.3943    -7.9484     0.3150 H       
  42 H42            2.7451    -6.8048     0.1265 H       
  43 H43            3.1263    -8.3459     1.9113 H       
@<TRIPOS>BOND
   1    1    2 ar
   2    1    6 ar
   3    1   27 1
   4    2    3 ar
   5    2    9 1
   6    3    4 ar
   7    3   28 1
   8    4    5 ar
   9    4   29 1
  10    5    6 ar
  11    5    8 1
  12    6    7 1
  13    9   10 1
  14    9   30 1
  15   10   11 1
  16   10   12 2
  17   11   14 2
  18   11   31 1
  19   12   13 1
  20   13   14 1
  21   13   15 1
  22   14   23 1
  23   15   16 ar
  24   15   17 ar
  25   16   20 ar
  26   16   32 1
  27   17   18 ar
  28   17   33 1
  29   18   19 ar
  30   18   21 1
  31   19   20 ar
  32   20   22 1
  33   21   34 1
  34   21   35 1
  35   21   36 1
  36   23   24 1
  37   23   37 1
  38   23   38 1
  39   24   25 1
  40   24   39 1
  41   24   40 1
  42   25   26 1
  43   25   41 1
  44   25   42 1
  45   26   43 1

#	End of record

