#	Name: ASD01478078
#	Creating user name:	WinNT
#	Creation time:	15. 06. 2019 19:21

#	Modifying user name:	WinNT
#	Modification time:	15. 06. 2019 19:21

#	Program:	/corina/corina34_cracker 3.40 0067  02.08.2006

@<TRIPOS>MOLECULE
ASD01478078
  35   36    0    0    0
SMALL
NO_CHARGES


@<TRIPOS>ATOM
   1 O1             0.6515     1.8284     0.0063 O.3     
   2 C2             0.8148     0.4084     0.1990 C.3     
   3 C3             0.6856    -0.3340    -1.0513 C.3     
   4 C4             1.7434     0.1019    -2.0863 C.3     
   5 C5             1.3038     1.4021    -2.6985 C.3     
   6 C6             1.8680     2.6375    -1.9598 C.3     
   7 C7             1.8297     2.4460    -0.4287 C.3     
   8 O8             1.8594    -0.9101    -3.1210 O.3     
   9 C9             2.7597    -1.8895    -2.9194 C.2     
  10 O10            3.4301    -1.8989    -1.9069 O.2     
  11 O11            2.9171    -2.8586    -3.8397 O.3     
  12 C12            3.7628    -3.8757    -3.5264 C.ar    
  13 C13            3.3601    -4.8673    -2.6438 C.ar    
  14 C14            4.2212    -5.9002    -2.3273 C.ar    
  15 C15            5.4838    -5.9458    -2.8891 C.ar    
  16 C16            5.8875    -4.9587    -3.7691 C.ar    
  17 C17            5.0280    -3.9269    -4.0931 C.ar    
  18 N18            6.4048    -7.0531    -2.5476 N.pl3   
  19 O19            6.0503    -7.9230    -1.7723 O.2     
  20 O20            7.5173    -7.0943    -3.0419 O.2     
  21 H21            1.8012     0.2198     0.6226 H       
  22 H22            0.0573     0.0568     0.8995 H       
  23 H23            0.8057    -1.3979    -0.8470 H       
  24 H24           -0.3081    -0.1629    -1.4652 H       
  25 H25            2.7055     0.2366    -1.5921 H       
  26 H26            1.6360     1.4315    -3.7362 H       
  27 H27            0.2149     1.4486    -2.6795 H       
  28 H28            2.8993     2.7998    -2.2731 H       
  29 H29            1.2745     3.5127    -2.2244 H       
  30 H30            1.9141     3.4213     0.0506 H       
  31 H31            2.6800     1.8334    -0.1289 H       
  32 H32            2.3742    -4.8317    -2.2042 H       
  33 H33            3.9081    -6.6724    -1.6403 H       
  34 H34            6.8743    -4.9964    -4.2063 H       
  35 H35            5.3423    -3.1583    -4.7836 H       
@<TRIPOS>BOND
   1    1    2 1
   2    1    7 1
   3    2    3 1
   4    2   21 1
   5    2   22 1
   6    3    4 1
   7    3   23 1
   8    3   24 1
   9    4    5 1
  10    4    8 1
  11    4   25 1
  12    5    6 1
  13    5   26 1
  14    5   27 1
  15    6    7 1
  16    6   28 1
  17    6   29 1
  18    7   30 1
  19    7   31 1
  20    8    9 1
  21    9   10 2
  22    9   11 1
  23   11   12 1
  24   12   13 ar
  25   12   17 ar
  26   13   14 ar
  27   13   32 1
  28   14   15 ar
  29   14   33 1
  30   15   16 ar
  31   15   18 1
  32   16   17 ar
  33   16   34 1
  34   17   35 1
  35   18   19 2
  36   18   20 2

#	End of record

