#	Name: ASD01914190
#	Creating user name:	WinNT
#	Creation time:	15. 06. 2019 20:03

#	Modifying user name:	WinNT
#	Modification time:	15. 06. 2019 20:03

#	Program:	/corina/corina34_cracker 3.40 0067  02.08.2006

@<TRIPOS>MOLECULE
ASD01914190
  39   40    0    0    0
SMALL
NO_CHARGES


@<TRIPOS>ATOM
   1 C1            -0.0184     1.5028     0.0103 C.2     
   2 C2             0.0021    -0.0041     0.0020 C.3     
   3 O3             1.0236     2.1234     0.0037 O.2     
   4 N4            -1.1946     2.1607     0.0195 N.am    
   5 C5            -1.2145     3.6256     0.0275 C.3     
   6 C6            -1.2282     4.1433    -1.4121 C.3     
   7 C7            -1.2482     5.6152    -1.4040 C.1     
   8 C8            -1.2641     6.7891    -1.3976 C.1     
   9 C9            -1.2835     8.2209    -1.3897 C.ar    
  10 C10           -1.2987     8.9198    -2.5974 C.ar    
  11 C11           -1.3174    10.3029    -2.5730 C.ar    
  12 C12           -1.3203    10.9443    -1.3419 C.ar    
  13 C13           -1.3047    10.1898    -0.1834 C.ar    
  14 N14           -1.2925     8.8734    -0.2331 N.ar    
  15 C15            1.4295    -0.4870    -0.0142 C.ar    
  16 C16            2.0956    -0.7149     1.1754 C.ar    
  17 C17            3.4050    -1.1579     1.1606 C.ar    
  18 C18            4.0481    -1.3733    -0.0440 C.ar    
  19 C19            3.3817    -1.1463    -1.2336 C.ar    
  20 C20            2.0709    -0.7075    -1.2187 C.ar    
  21 C21           -2.4532     1.4111     0.0214 C.3     
  22 H22           -0.4983    -0.3791     0.8948 H       
  23 H23           -0.5153    -0.3696    -0.8850 H       
  24 H24           -2.1068     3.9740     0.5475 H       
  25 H25           -0.3271     3.9982     0.5392 H       
  26 H26           -0.3358     3.7949    -1.9321 H       
  27 H27           -2.1156     3.7707    -1.9238 H       
  28 H28           -1.2955     8.3885    -3.5377 H       
  29 H29           -1.3290    10.8711    -3.4914 H       
  30 H30           -1.3344    12.0229    -1.2895 H       
  31 H31           -1.3066    10.6865     0.7756 H       
  32 H32            1.5932    -0.5466     2.1165 H       
  33 H33            3.9256    -1.3353     2.0900 H       
  34 H34            5.0713    -1.7187    -0.0556 H       
  35 H35            3.8843    -1.3143    -2.1747 H       
  36 H36            1.5491    -0.5336    -2.1482 H       
  37 H37           -2.7605     1.2195     1.0495 H       
  38 H38           -3.2232     1.9925    -0.4857 H       
  39 H39           -2.3124     0.4633    -0.4983 H       
@<TRIPOS>BOND
   1    1    2 1
   2    1    3 2
   3    1    4 am
   4    2   15 1
   5    2   22 1
   6    2   23 1
   7    4    5 1
   8    4   21 1
   9    5    6 1
  10    5   24 1
  11    5   25 1
  12    6    7 1
  13    6   26 1
  14    6   27 1
  15    7    8 3
  16    8    9 1
  17    9   10 ar
  18    9   14 ar
  19   10   11 ar
  20   10   28 1
  21   11   12 ar
  22   11   29 1
  23   12   13 ar
  24   12   30 1
  25   13   14 ar
  26   13   31 1
  27   15   16 ar
  28   15   20 ar
  29   16   17 ar
  30   16   32 1
  31   17   18 ar
  32   17   33 1
  33   18   19 ar
  34   18   34 1
  35   19   20 ar
  36   19   35 1
  37   20   36 1
  38   21   37 1
  39   21   38 1
  40   21   39 1

#	End of record

