#	Name: ASD07931116
#	Creating user name:	WinNT
#	Creation time:	15. 06. 2019 21:13

#	Modifying user name:	WinNT
#	Modification time:	15. 06. 2019 21:13

#	Program:	/corina/corina34_cracker 3.40 0067  02.08.2006

@<TRIPOS>MOLECULE
ASD07931116
  65   71    0    0    0
SMALL
NO_CHARGES


@<TRIPOS>ATOM
   1 C1            -0.0169     1.3965     0.0097 C.ar    
   2 N2             0.0021    -0.0041     0.0020 N.am    
   3 N3            -0.0766    -0.8097     1.1408 N.2     
   4 C4            -0.0352    -2.0721     0.8247 C.2     
   5 C5             0.0814    -2.1540    -0.6492 C.2     
   6 C6             0.0932    -0.7683    -1.1077 C.2     
   7 O7             0.1767    -0.3787    -2.2611 O.2     
   8 C8            -0.0765    -3.3451     1.5694 C.ar    
   9 C9            -0.0033    -4.5445     0.8414 C.ar    
  10 N10            0.1049    -4.5233    -0.5384 N.pl3   
  11 C11            0.1440    -3.3861    -1.2513 C.2     
  12 C12           -0.1842    -3.3729     2.9559 C.ar    
  13 C13           -0.2191    -4.5848     3.6148 C.ar    
  14 C14           -0.1472    -5.7693     2.8998 C.ar    
  15 C15           -0.0406    -5.7550     1.5245 C.ar    
  16 C16            1.1746     2.1084     0.0022 C.ar    
  17 C17            1.1527     3.4899     0.0093 C.ar    
  18 C18           -0.0539     4.1645     0.0240 C.ar    
  19 C19           -1.2440     3.4599     0.0316 C.ar    
  20 C20           -1.2301     2.0773     0.0191 C.ar    
  21 F21           -2.3924     1.3887     0.0265 F       
  22 C22            0.1790    -5.7997    -1.2536 C.3     
  23 C23           -1.2119    -6.2571    -1.6102 C.ar    
  24 C24           -1.7825    -5.8834    -2.8127 C.ar    
  25 N25           -2.9977    -6.2767    -3.1362 N.ar    
  26 C26           -3.7191    -7.0425    -2.3278 C.ar    
  27 C27           -3.2059    -7.4565    -1.0998 C.ar    
  28 C28           -1.9300    -7.0623    -0.7370 C.ar    
  29 C29           -5.0823    -7.4609    -2.7337 C.ar    
  30 C30           -5.8925    -8.1776    -1.8542 C.ar    
  31 N31           -7.1030    -8.5521    -2.2088 N.ar    
  32 C32           -7.5996    -8.2664    -3.4059 C.ar    
  33 C33           -6.8485    -7.5523    -4.3390 C.ar    
  34 C34           -5.5749    -7.1367    -4.0027 C.ar    
  35 C35           -8.9697    -8.7124    -3.7557 C.ar    
  36 C36           -9.7401    -9.4300    -2.8355 C.ar    
  37 C37           -9.5129    -8.4182    -5.0050 C.ar    
  38 N38          -10.7302    -8.8136    -5.3165 N.ar    
  39 C39          -11.4783    -9.4960    -4.4713 C.ar    
  40 C40          -11.0130    -9.8229    -3.2103 C.ar    
  41 C41          -12.8641    -9.9211    -4.8837 C.3     
  42 O42          -13.4795   -10.6414    -3.8139 O.3     
  43 H43            0.2292    -3.4422    -2.3264 H       
  44 H44           -0.2399    -2.4501     3.5142 H       
  45 H45           -0.3023    -4.6100     4.6913 H       
  46 H46           -0.1749    -6.7131     3.4242 H       
  47 H47            0.0147    -6.6848     0.9779 H       
  48 H48            2.1180     1.5829    -0.0089 H       
  49 H49            2.0799     4.0438     0.0038 H       
  50 H50           -0.0673     5.2445     0.0299 H       
  51 H51           -2.1850     3.9899     0.0434 H       
  52 H52            0.7643    -5.6724    -2.1642 H       
  53 H53            0.6548    -6.5457    -0.6171 H       
  54 H54           -1.2248    -5.2602    -3.4961 H       
  55 H55           -3.7943    -8.0796    -0.4424 H       
  56 H56           -1.5057    -7.3675     0.2081 H       
  57 H57           -5.5223    -8.4284    -0.8711 H       
  58 H58           -7.2591    -7.3237    -5.3114 H       
  59 H59           -4.9708    -6.5818    -4.7052 H       
  60 H60           -9.3515    -9.6717    -1.8572 H       
  61 H61           -8.9308    -7.8608    -5.7239 H       
  62 H62          -11.6350   -10.3821    -2.5271 H       
  63 H63          -13.4600    -9.0390    -5.1180 H       
  64 H64          -12.8010   -10.5612    -5.7637 H       
  65 H65          -14.3760   -10.9465    -4.0097 H       
@<TRIPOS>BOND
   1    1    2 1
   2    1   16 ar
   3    1   20 ar
   4    2    3 1
   5    2    6 am
   6    3    4 2
   7    4    5 1
   8    4    8 1
   9    5    6 1
  10    5   11 2
  11    6    7 2
  12    8    9 ar
  13    8   12 ar
  14    9   10 1
  15    9   15 ar
  16   10   11 1
  17   10   22 1
  18   11   43 1
  19   12   13 ar
  20   12   44 1
  21   13   14 ar
  22   13   45 1
  23   14   15 ar
  24   14   46 1
  25   15   47 1
  26   16   17 ar
  27   16   48 1
  28   17   18 ar
  29   17   49 1
  30   18   19 ar
  31   18   50 1
  32   19   20 ar
  33   19   51 1
  34   20   21 1
  35   22   23 1
  36   22   52 1
  37   22   53 1
  38   23   24 ar
  39   23   28 ar
  40   24   25 ar
  41   24   54 1
  42   25   26 ar
  43   26   27 ar
  44   26   29 1
  45   27   28 ar
  46   27   55 1
  47   28   56 1
  48   29   30 ar
  49   29   34 ar
  50   30   31 ar
  51   30   57 1
  52   31   32 ar
  53   32   33 ar
  54   32   35 1
  55   33   34 ar
  56   33   58 1
  57   34   59 1
  58   35   36 ar
  59   35   37 ar
  60   36   40 ar
  61   36   60 1
  62   37   38 ar
  63   37   61 1
  64   38   39 ar
  65   39   40 ar
  66   39   41 1
  67   40   62 1
  68   41   42 1
  69   41   63 1
  70   41   64 1
  71   42   65 1

#	End of record

