#	Name: ASD02408175
#	Creating user name:	WinNT
#	Creation time:	15. 06. 2019 20:21

#	Modifying user name:	WinNT
#	Modification time:	15. 06. 2019 20:21

#	Program:	/corina/corina34_cracker 3.40 0067  02.08.2006

@<TRIPOS>MOLECULE
ASD02408175
  54   57    0    0    0
SMALL
NO_CHARGES


@<TRIPOS>ATOM
   1 C1            -0.0167     1.3781     0.0096 C.ar    
   2 C2             0.0021    -0.0041     0.0020 C.ar    
   3 C3             1.2084    -0.6789    -0.0132 C.ar    
   4 C4             2.3960     0.0285    -0.0212 C.ar    
   5 C5             2.3773     1.4107    -0.0145 C.ar    
   6 C6             1.1709     2.0855     0.0021 C.ar    
   7 C7             3.7112    -0.7071    -0.0368 C.3     
   8 O8             4.1142    -0.9338    -1.3889 O.3     
   9 C9             5.2883    -1.5907    -1.5809 C.ar    
  10 C10            6.0370    -2.0085    -0.4904 C.ar    
  11 C11            5.7374    -1.8496    -2.8679 C.ar    
  12 C12            6.9308    -2.5179    -3.0604 C.ar    
  13 C13            7.6779    -2.9287    -1.9716 C.ar    
  14 C14            7.2301    -2.6766    -0.6883 C.ar    
  15 C15            4.9235    -1.4026    -4.0548 C.3     
  16 C16            5.2574     0.0301    -4.3820 C.2     
  17 N17            4.6337     0.6238    -5.4180 N.am    
  18 N18            6.1374     0.6561    -3.6488 N.2     
  19 C19            6.4730     1.9294    -3.8924 C.2     
  20 C20            5.8646     2.6079    -4.9614 C.2     
  21 C21            4.9081     1.9057    -5.7388 C.2     
  22 N22            7.4016     2.5652    -3.1054 N.pl3   
  23 C23            8.0309     1.8503    -1.9922 C.3     
  24 O24            4.3499     2.4464    -6.6779 O.2     
  25 C25            9.4008     2.4739    -1.6725 C.3     
  26 C26            9.3273     2.9760    -0.2157 C.3     
  27 C27            8.2092     2.1175     0.4260 C.3     
  28 C28            7.1727     1.9953    -0.7185 C.3     
  29 C29            6.1963     3.9697    -5.2545 C.1     
  30 N30            6.4594     5.0501    -5.4870 N.1     
  31 H31           -0.9592     1.9054     0.0170 H       
  32 H32           -0.9258    -0.5567     0.0083 H       
  33 H33            1.2231    -1.7588    -0.0184 H       
  34 H34            3.3051     1.9634    -0.0205 H       
  35 H35            1.1563     3.1654     0.0069 H       
  36 H36            4.4676    -0.1100     0.4726 H       
  37 H37            3.5986    -1.6635     0.4740 H       
  38 H38            5.6877    -1.8114     0.5124 H       
  39 H39            7.2806    -2.7200    -4.0620 H       
  40 H40            8.6108    -3.4511    -2.1242 H       
  41 H41            7.8153    -2.9985     0.1604 H       
  42 H42            5.1544    -2.0344    -4.9125 H       
  43 H43            3.8624    -1.4836    -3.8190 H       
  44 H44            3.9829     0.1262    -5.9374 H       
  45 H45            7.6409     3.4876    -3.2866 H       
  46 H46            8.1500     0.7968    -2.2452 H       
  47 H47           10.1847     1.7227    -1.7695 H       
  48 H48            9.5975     3.3083    -2.3456 H       
  49 H49           10.2764     2.8089     0.2937 H       
  50 H50            9.0599     4.0323    -0.1894 H       
  51 H51            8.5899     1.1361     0.7088 H       
  52 H52            7.7762     2.6277     1.2864 H       
  53 H53            6.5573     2.8933    -0.7734 H       
  54 H54            6.5493     1.1126    -0.5760 H       
@<TRIPOS>BOND
   1    1    2 ar
   2    1    6 ar
   3    1   31 1
   4    2    3 ar
   5    2   32 1
   6    3    4 ar
   7    3   33 1
   8    4    5 ar
   9    4    7 1
  10    5    6 ar
  11    5   34 1
  12    6   35 1
  13    7    8 1
  14    7   36 1
  15    7   37 1
  16    8    9 1
  17    9   10 ar
  18    9   11 ar
  19   10   14 ar
  20   10   38 1
  21   11   12 ar
  22   11   15 1
  23   12   13 ar
  24   12   39 1
  25   13   14 ar
  26   13   40 1
  27   14   41 1
  28   15   16 1
  29   15   42 1
  30   15   43 1
  31   16   17 1
  32   16   18 2
  33   17   21 am
  34   17   44 1
  35   18   19 1
  36   19   20 2
  37   19   22 1
  38   20   21 1
  39   20   29 1
  40   21   24 2
  41   22   23 1
  42   22   45 1
  43   23   25 1
  44   23   28 1
  45   23   46 1
  46   25   26 1
  47   25   47 1
  48   25   48 1
  49   26   27 1
  50   26   49 1
  51   26   50 1
  52   27   28 1
  53   27   51 1
  54   27   52 1
  55   28   53 1
  56   28   54 1
  57   29   30 3

#	End of record

