#	Name: ASD01890149
#	Creating user name:	WinNT
#	Creation time:	15. 06. 2019 19:50

#	Modifying user name:	WinNT
#	Modification time:	15. 06. 2019 19:50

#	Program:	/corina/corina34_cracker 3.40 0067  02.08.2006

@<TRIPOS>MOLECULE
ASD01890149
  28   29    0    0    0
SMALL
NO_CHARGES


@<TRIPOS>ATOM
   1 C1            -0.0177     1.4574     0.0101 C.2     
   2 C2             0.0021    -0.0041     0.0020 C.2     
   3 C3             1.1813    -0.6637    -0.0128 C.2     
   4 O4             1.0281     2.0804     0.0034 O.2     
   5 C5            -1.3087     2.1795     0.0201 C.ar    
   6 C6            -1.3309     3.5753     0.0278 C.ar    
   7 C7            -2.5402     4.2433     0.0367 C.ar    
   8 C8            -3.7284     3.5295     0.0384 C.ar    
   9 C9            -3.7110     2.1464     0.0313 C.ar    
  10 C10           -2.5097     1.4681     0.0161 C.ar    
  11 F11           -2.5647     5.5940     0.0441 F       
  12 C12            1.2013    -2.1340    -0.0209 C.ar    
  13 C13            2.4205    -2.8206    -0.0362 C.ar    
  14 C14            2.4313    -4.1986    -0.0438 C.ar    
  15 C15            1.2388    -4.9043    -0.0367 C.ar    
  16 C16            0.0276    -4.2314    -0.0215 C.ar    
  17 C17            0.0011    -2.8535    -0.0075 C.ar    
  18 Cl18           1.2624    -6.6401    -0.0474 Cl      
  19 H19           -0.9258    -0.5567     0.0079 H       
  20 H20            2.1092    -0.1110    -0.0187 H       
  21 H21           -0.4051     4.1316     0.0272 H       
  22 H22           -4.6717     4.0554     0.0457 H       
  23 H23           -4.6403     1.5961     0.0330 H       
  24 H24           -2.4985     0.3882     0.0057 H       
  25 H25            3.3507    -2.2719    -0.0425 H       
  26 H26            3.3716    -4.7299    -0.0556 H       
  27 H27           -0.8979    -4.7880    -0.0164 H       
  28 H28           -0.9436    -2.3304     0.0089 H       
@<TRIPOS>BOND
   1    1    2 1
   2    1    4 2
   3    1    5 1
   4    2    3 2
   5    2   19 1
   6    3   12 1
   7    3   20 1
   8    5    6 ar
   9    5   10 ar
  10    6    7 ar
  11    6   21 1
  12    7    8 ar
  13    7   11 1
  14    8    9 ar
  15    8   22 1
  16    9   10 ar
  17    9   23 1
  18   10   24 1
  19   12   13 ar
  20   12   17 ar
  21   13   14 ar
  22   13   25 1
  23   14   15 ar
  24   14   26 1
  25   15   16 ar
  26   15   18 1
  27   16   17 ar
  28   16   27 1
  29   17   28 1

#	End of record

