#	Name: ASD01410773
#	Creating user name:	WinNT
#	Creation time:	15. 06. 2019 19:18

#	Modifying user name:	WinNT
#	Modification time:	15. 06. 2019 19:18

#	Program:	/corina/corina34_cracker 3.40 0067  02.08.2006

@<TRIPOS>MOLECULE
ASD01410773
  82   87    0    0    0
SMALL
NO_CHARGES


@<TRIPOS>ATOM
   1 C1            -0.1476     3.7228    -0.7385 C.3     
   2 C2             0.2475    -0.0924    -0.8822 C.3     
   3 C3            -0.0916     1.3177    -1.4156 C.3     
   4 N4             1.1133     1.7025    -2.1698 N.am    
   5 C5             1.5740     0.4879    -2.8609 C.3     
   6 C6             1.0527    -0.7144    -2.0485 C.3     
   7 O7             1.0616    -0.0068     0.3171 O.3     
   8 C8             1.0130     0.4468    -4.2590 C.2     
   9 O9             0.2952     1.3423    -4.6509 O.2     
  10 N10            1.3090    -0.5852    -5.0738 N.am    
  11 C11            0.6760    -0.6831    -6.3914 C.3     
  12 C12           -0.8145    -0.9049    -6.3815 C.2     
  13 N13           -1.3829    -1.6197    -5.3903 N.am    
  14 O14           -1.5026    -0.4402    -7.2655 O.2     
  15 S15           -3.0010    -1.9678    -5.4433 S.o2    
  16 C16           -3.1853    -3.0442    -6.8917 C.3     
  17 C17            1.2553     0.1738    -7.5188 C.3     
  18 C18            1.4807    -1.3402    -7.5146 C.3     
  19 C19           -4.6041    -3.4552    -7.2905 C.3     
  20 C20           -3.8333    -2.4432    -8.1407 C.3     
  21 O21           -3.2422    -2.6958    -4.2471 O.2     
  22 O22           -3.6224    -0.7108    -5.6739 O.2     
  23 C23            0.2770     0.7394    -8.5503 C.3     
  24 C24            1.0276     1.6617    -9.5130 C.3     
  25 C25            0.9308    -0.9999     1.2168 C.2     
  26 N26            1.6576    -0.9812     2.3516 N.am    
  27 O27            0.1575    -1.9131     1.0056 O.2     
  28 C28            2.6227     0.0468     2.7540 C.3     
  29 C29           -0.3224     2.2816    -0.2606 C.3     
  30 C30            1.2988     3.9563    -1.1758 C.3     
  31 C31            1.6970     2.9097    -2.1854 C.2     
  32 C32            1.4227     5.3451    -1.8057 C.3     
  33 C33            0.6235     5.3868    -3.1097 C.3     
  34 C34            0.8741     6.3951    -0.8375 C.3     
  35 O35            2.5474     3.1599    -3.0132 O.2     
  36 C36            1.6299    -1.9816     3.4234 C.3     
  37 C37            2.6057    -1.5425     4.4856 C.ar    
  38 C38            3.1876    -0.3538     4.0934 C.ar    
  39 C39            2.9609    -2.1204     5.6950 C.ar    
  40 C40            3.8998    -1.5082     6.5063 C.ar    
  41 C41            4.4839    -0.3199     6.1099 C.ar    
  42 C42            4.1262     0.2579     4.9070 C.ar    
  43 F43            2.3894    -3.2820     6.0816 F       
  44 H44           -0.8145     3.9082    -1.5805 H       
  45 H45           -0.3947     4.4060     0.0741 H       
  46 H46           -0.6620    -0.6617    -0.6901 H       
  47 H47           -0.9587     1.2785    -2.0748 H       
  48 H48            2.6633     0.4697    -2.8957 H       
  49 H49            1.8866    -1.3007    -1.6626 H       
  50 H50            0.4052    -1.3366    -2.6663 H       
  51 H51            1.9411    -1.2631    -4.7878 H       
  52 H52           -0.8441    -1.9303    -4.6459 H       
  53 H53           -2.3896    -3.7745    -7.0390 H       
  54 H54            2.1073     0.8104    -7.2802 H       
  55 H55            2.4811    -1.6994    -7.2734 H       
  56 H56            0.9320    -1.9328    -8.2466 H       
  57 H57           -4.7417    -4.4557    -7.7005 H       
  58 H58           -5.4268    -3.0788    -6.6826 H       
  59 H59           -4.1489    -1.4010    -8.0920 H       
  60 H60           -3.4639    -2.7780    -9.1100 H       
  61 H61           -0.1749    -0.0796    -9.1098 H       
  62 H62           -0.5029     1.3044    -8.0397 H       
  63 H63            0.3306     2.0647   -10.2478 H       
  64 H64            1.4794     2.4808    -8.9535 H       
  65 H65            1.8075     1.0968   -10.0236 H       
  66 H66            3.4247     0.1088     2.0184 H       
  67 H67            2.1218     1.0113     2.8379 H       
  68 H68            0.3958     2.0740     0.5327 H       
  69 H69           -1.3331     2.1485     0.1250 H       
  70 H70            1.9552     3.8919    -0.3080 H       
  71 H71            2.4712     5.5568    -2.0152 H       
  72 H72           -0.4250     5.1752    -2.9001 H       
  73 H73            0.7118     6.3762    -3.5585 H       
  74 H74            1.0144     4.6388    -3.7995 H       
  75 H75            1.3780     6.3008     0.1245 H       
  76 H76            1.0501     7.3911    -1.2437 H       
  77 H77           -0.1967     6.2414    -0.7034 H       
  78 H78            0.6269    -2.0428     3.8458 H       
  79 H79            1.9257    -2.9537     3.0291 H       
  80 H80            4.1756    -1.9582     7.4485 H       
  81 H81            5.2168     0.1589     6.7423 H       
  82 H82            4.5836     1.1862     4.5982 H       
@<TRIPOS>BOND
   1    1   29 1
   2    1   30 1
   3    1   44 1
   4    1   45 1
   5    2    3 1
   6    2    7 1
   7    2    6 1
   8    2   46 1
   9    3    4 1
  10    3   29 1
  11    3   47 1
  12    4    5 1
  13    4   31 am
  14    5    6 1
  15    5    8 1
  16    5   48 1
  17    6   49 1
  18    6   50 1
  19    7   25 1
  20    8    9 2
  21    8   10 am
  22   10   11 1
  23   10   51 1
  24   11   12 1
  25   11   17 1
  26   11   18 1
  27   12   13 am
  28   12   14 2
  29   13   15 am
  30   13   52 1
  31   15   16 1
  32   15   21 2
  33   15   22 2
  34   16   19 1
  35   16   20 1
  36   16   53 1
  37   17   18 1
  38   17   23 1
  39   17   54 1
  40   18   55 1
  41   18   56 1
  42   19   20 1
  43   19   57 1
  44   19   58 1
  45   20   59 1
  46   20   60 1
  47   23   24 1
  48   23   61 1
  49   23   62 1
  50   24   63 1
  51   24   64 1
  52   24   65 1
  53   25   26 am
  54   25   27 2
  55   26   36 1
  56   26   28 1
  57   28   38 1
  58   28   66 1
  59   28   67 1
  60   29   68 1
  61   29   69 1
  62   30   31 1
  63   30   32 1
  64   30   70 1
  65   31   35 2
  66   32   33 1
  67   32   34 1
  68   32   71 1
  69   33   72 1
  70   33   73 1
  71   33   74 1
  72   34   75 1
  73   34   76 1
  74   34   77 1
  75   36   37 1
  76   36   78 1
  77   36   79 1
  78   37   38 ar
  79   37   39 ar
  80   38   42 ar
  81   39   40 ar
  82   39   43 1
  83   40   41 ar
  84   40   80 1
  85   41   42 ar
  86   41   81 1
  87   42   82 1

#	End of record

