#	Name: ASD00069133
#	Creating user name:	WinNT
#	Creation time:	15. 06. 2019 18:29

#	Modifying user name:	WinNT
#	Modification time:	15. 06. 2019 18:29

#	Program:	/corina/corina34_cracker 3.40 0067  02.08.2006

@<TRIPOS>MOLECULE
ASD00069133
  53   56    0    0    0
SMALL
NO_CHARGES


@<TRIPOS>ATOM
   1 C1            -0.0635     1.2939    -0.5902 C.2     
   2 N2            -0.0207     0.0042    -0.3444 N.2     
   3 C3             1.2322    -0.4343    -0.5255 C.2     
   4 C4             2.0051     0.6418    -0.9036 C.2     
   5 N5             1.1884     1.7172    -0.9416 N.pl3   
   6 C6            -1.2654     2.1442    -0.5072 C.2     
   7 O7            -1.1888     3.3317    -0.7583 O.2     
   8 N8            -2.4489     1.6053    -0.1530 N.am    
   9 C9            -3.5645     2.4300     0.0384 C.ar    
  10 C10           -4.8478     1.8851     0.0208 C.ar    
  11 C11           -5.9495     2.7085     0.2112 C.ar    
  12 C12           -5.7709     4.0655     0.4176 C.ar    
  13 C13           -4.4976     4.6043     0.4348 C.ar    
  14 C14           -3.3954     3.7903     0.2517 C.ar    
  15 F15           -7.1951     2.1855     0.1946 F       
  16 N16           -5.0250     0.5115    -0.1888 N.3     
  17 C17           -5.7480     0.2593    -1.4418 C.3     
  18 C18           -5.7956    -1.2465    -1.7106 C.3     
  19 C19           -6.4987    -1.9463    -0.5442 C.3     
  20 C20           -5.7540    -1.6281     0.7553 C.3     
  21 C21           -5.7076    -0.1112     0.9526 C.3     
  22 N22           -6.5370    -1.4997    -2.9533 N.3     
  23 C23            3.4022    -3.3873    -0.4037 C.ar    
  24 N24            2.9797    -2.1425    -0.5604 N.ar    
  25 C25            1.7030    -1.8286    -0.3500 C.ar    
  26 C26            0.8135    -2.8346     0.0396 C.ar    
  27 C27            1.2986    -4.1203     0.1910 C.ar    
  28 N28            2.5811    -4.3599    -0.0354 N.ar    
  29 C29            0.3775    -5.2374     0.6093 C.3     
  30 N30            4.7346    -3.6814    -0.6361 N.pl3   
  31 H31            3.0618     0.6283    -1.1261 H       
  32 H32            1.4432     2.6234    -1.1758 H       
  33 H33           -2.5280     0.6463    -0.0306 H       
  34 H34           -6.6284     4.7053     0.5652 H       
  35 H35           -4.3635     5.6637     0.5962 H       
  36 H36           -2.4023     4.2143     0.2706 H       
  37 H37           -6.7638     0.6458    -1.3591 H       
  38 H38           -5.2353     0.7589    -2.2638 H       
  39 H39           -4.7803    -1.6312    -1.8072 H       
  40 H40           -7.5263    -1.5901    -0.4718 H       
  41 H41           -6.4965    -3.0234    -0.7109 H       
  42 H42           -6.2744    -2.0886     1.5951 H       
  43 H43           -4.7380    -2.0188     0.6976 H       
  44 H44           -5.1655     0.1193     1.8698 H       
  45 H45           -6.7236     0.2770     1.0241 H       
  46 H46           -6.5822    -2.4878    -3.1525 H       
  47 H47           -7.4611    -1.0966    -2.9115 H       
  48 H48           -0.2282    -2.6124     0.2183 H       
  49 H49           -0.0553    -5.7024    -0.2764 H       
  50 H50            0.9412    -5.9817     1.1718 H       
  51 H51           -0.4195    -4.8360     1.2352 H       
  52 H52            5.3456    -2.9796    -0.9100 H       
  53 H53            5.0573    -4.5894    -0.5250 H       
@<TRIPOS>BOND
   1    1    2 2
   2    1    5 1
   3    1    6 1
   4    2    3 1
   5    3    4 2
   6    3   25 1
   7    4    5 1
   8    4   31 1
   9    5   32 1
  10    6    7 2
  11    6    8 am
  12    8    9 1
  13    8   33 1
  14    9   10 ar
  15    9   14 ar
  16   10   11 ar
  17   10   16 1
  18   11   12 ar
  19   11   15 1
  20   12   13 ar
  21   12   34 1
  22   13   14 ar
  23   13   35 1
  24   14   36 1
  25   16   17 1
  26   16   21 1
  27   17   18 1
  28   17   37 1
  29   17   38 1
  30   18   19 1
  31   18   22 1
  32   18   39 1
  33   19   20 1
  34   19   40 1
  35   19   41 1
  36   20   21 1
  37   20   42 1
  38   20   43 1
  39   21   44 1
  40   21   45 1
  41   22   46 1
  42   22   47 1
  43   23   24 ar
  44   23   28 ar
  45   23   30 1
  46   24   25 ar
  47   25   26 ar
  48   26   27 ar
  49   26   48 1
  50   27   28 ar
  51   27   29 1
  52   29   49 1
  53   29   50 1
  54   29   51 1
  55   30   52 1
  56   30   53 1

#	End of record

