#	Name: ASD02560102
#	Creating user name:	WinNT
#	Creation time:	15. 06. 2019 20:24

#	Modifying user name:	WinNT
#	Modification time:	15. 06. 2019 20:24

#	Program:	/corina/corina34_cracker 3.40 0067  02.08.2006

@<TRIPOS>MOLECULE
ASD02560102
  45   47    0    0    0
SMALL
NO_CHARGES


@<TRIPOS>ATOM
   1 C1            -1.1147     1.5030     0.6680 C.ar    
   2 C2            -1.0603     0.1343     0.8682 C.ar    
   3 C3            -1.2168    -0.7366    -0.2020 C.ar    
   4 C4            -1.4284    -0.2384    -1.4765 C.ar    
   5 C5            -1.4843     1.1426    -1.6817 C.ar    
   6 C6            -1.3307     2.0117    -0.5968 C.ar    
   7 Cl7           -0.9177     2.5827     2.0130 Cl      
   8 C8            -1.7085     1.6805    -3.0337 C.2     
   9 C9            -1.7619     3.0134    -3.2286 C.2     
  10 O10           -1.1619    -2.0790     0.0015 O.3     
  11 C11            0.0451    -2.6940    -0.1184 C.ar    
  12 C12            1.1890    -1.9421    -0.3317 C.ar    
  13 C13            2.4156    -2.5686    -0.4534 C.ar    
  14 C14            2.5040    -3.9460    -0.3623 C.ar    
  15 C15            1.3651    -4.7025    -0.1489 C.ar    
  16 C16            0.1342    -4.0799    -0.0213 C.ar    
  17 Cl17           4.0466    -4.7272    -0.5165 Cl      
  18 O18           -0.9860    -4.8217     0.1884 O.3     
  19 C19           -0.8204    -6.2389     0.2667 C.3     
  20 C20           -2.1802    -6.8989     0.5040 C.3     
  21 N21           -3.0423    -6.6730    -0.6587 N.am    
  22 C22           -3.0396    -7.5730    -1.6895 C.2     
  23 C23           -3.8333    -5.5855    -0.7007 C.2     
  24 N24           -4.6354    -5.3537    -1.7564 N.am    
  25 C25           -4.6581    -6.2139    -2.7944 C.2     
  26 C26           -3.8342    -7.3647    -2.7611 C.2     
  27 O27           -5.3838    -6.0051    -3.7498 O.2     
  28 O28           -3.8237    -4.8012     0.2284 O.2     
  29 C29           -1.9800     3.5366    -4.5436 C.1     
  30 N30           -2.1529     3.9517    -5.5868 N.1     
  31 H31           -0.8950    -0.2578     1.8609 H       
  32 H32           -1.5496    -0.9151    -2.3094 H       
  33 H33           -1.3734     3.0800    -0.7497 H       
  34 H34           -1.8302     1.0073    -3.8694 H       
  35 H35           -1.6402     3.6866    -2.3929 H       
  36 H36            1.1227    -0.8665    -0.4032 H       
  37 H37            3.3065    -1.9813    -0.6204 H       
  38 H38            1.4363    -5.7778    -0.0785 H       
  39 H39           -0.3959    -6.6072    -0.6672 H       
  40 H40           -0.1500    -6.4814     1.0912 H       
  41 H41           -2.0433    -7.9700     0.6522 H       
  42 H42           -2.6445    -6.4659     1.3901 H       
  43 H43           -2.4047    -8.4456    -1.6462 H       
  44 H44           -5.1996    -4.5648    -1.7703 H       
  45 H45           -3.8386    -8.0649    -3.5834 H       
@<TRIPOS>BOND
   1    1    2 ar
   2    1    7 1
   3    1    6 ar
   4    2    3 ar
   5    2   31 1
   6    3    4 ar
   7    3   10 1
   8    4    5 ar
   9    4   32 1
  10    5    6 ar
  11    5    8 1
  12    6   33 1
  13    8    9 2
  14    8   34 1
  15    9   29 1
  16    9   35 1
  17   10   11 1
  18   11   12 ar
  19   11   16 ar
  20   12   13 ar
  21   12   36 1
  22   13   14 ar
  23   13   37 1
  24   14   15 ar
  25   14   17 1
  26   15   16 ar
  27   15   38 1
  28   16   18 1
  29   18   19 1
  30   19   20 1
  31   19   39 1
  32   19   40 1
  33   20   21 1
  34   20   41 1
  35   20   42 1
  36   21   22 1
  37   21   23 am
  38   22   26 2
  39   22   43 1
  40   23   24 am
  41   23   28 2
  42   24   25 am
  43   24   44 1
  44   25   26 1
  45   25   27 2
  46   26   45 1
  47   29   30 3

#	End of record

