#	Name: ASD08070118
#	Creating user name:	WinNT
#	Creation time:	15. 06. 2019 21:14

#	Modifying user name:	WinNT
#	Modification time:	15. 06. 2019 21:14

#	Program:	/corina/corina34_cracker 3.40 0067  02.08.2006

@<TRIPOS>MOLECULE
ASD08070118
  40   41    0    0    0
SMALL
NO_CHARGES


@<TRIPOS>ATOM
   1 C1             0.0645     1.2593    -0.5547 C.ar    
   2 C2             0.0029    -0.0054     0.0185 C.ar    
   3 N3            -1.1998    -0.7221     0.0092 N.am    
   4 C4            -1.1830    -2.0653    -0.0999 C.2     
   5 O5            -0.1330    -2.6463    -0.2957 O.2     
   6 C6            -2.3832    -4.6173    -1.5877 C.3     
   7 C7            -2.3119    -4.2246    -0.1106 C.3     
   8 N8            -2.3301    -2.7646     0.0080 N.am    
   9 C9            -3.5140    -4.8117     0.6317 C.3     
  10 C10           -3.4950    -6.3366     0.5079 C.3     
  11 C11            1.2534     1.9634    -0.5439 C.ar    
  12 C12            1.1364    -0.5565     0.5999 C.ar    
  13 C13            2.3220     0.1530     0.6072 C.ar    
  14 C14            2.3807     1.4105     0.0360 C.ar    
  15 Cl15          -1.3484     1.9503    -1.2895 Cl      
  16 C16           -4.6971    -6.9236     1.2502 C.3     
  17 C17           -4.6258    -6.5310     2.7273 C.3     
  18 C18           -4.6449    -5.0061     2.8511 C.3     
  19 C19           -3.4428    -4.4191     2.1088 C.3     
  20 H20           -2.0452    -0.2519     0.0812 H       
  21 H21           -3.3040    -4.2289    -2.0228 H       
  22 H22           -1.5267    -4.1990    -2.1165 H       
  23 H23           -2.3696    -5.7036    -1.6759 H       
  24 H24           -1.3911    -4.6130     0.3245 H       
  25 H25           -3.1678    -2.3011     0.1642 H       
  26 H26           -4.4348    -4.4233     0.1966 H       
  27 H27           -3.5458    -6.6163    -0.5444 H       
  28 H28           -2.5742    -6.7249     0.9430 H       
  29 H29            1.3025     2.9462    -0.9890 H       
  30 H30            1.0916    -1.5388     1.0464 H       
  31 H31            3.2041    -0.2756     1.0595 H       
  32 H32            3.3089     1.9627     0.0432 H       
  33 H33           -5.6179    -6.5352     0.8151 H       
  34 H34           -4.6835    -8.0099     1.1620 H       
  35 H35           -5.4823    -6.9492     3.2561 H       
  36 H36           -3.7050    -6.9194     3.1624 H       
  37 H37           -5.5657    -4.6177     2.4160 H       
  38 H38           -4.5941    -4.7264     3.9034 H       
  39 H39           -2.5220    -4.8075     2.5439 H       
  40 H40           -3.4563    -3.3327     2.1970 H       
@<TRIPOS>BOND
   1    1    2 ar
   2    1   11 ar
   3    1   15 1
   4    2   12 ar
   5    2    3 1
   6    3    4 am
   7    3   20 1
   8    4    5 2
   9    4    8 am
  10    6    7 1
  11    6   21 1
  12    6   22 1
  13    6   23 1
  14    7    9 1
  15    7    8 1
  16    7   24 1
  17    8   25 1
  18    9   10 1
  19    9   19 1
  20    9   26 1
  21   10   16 1
  22   10   27 1
  23   10   28 1
  24   11   14 ar
  25   11   29 1
  26   12   13 ar
  27   12   30 1
  28   13   14 ar
  29   13   31 1
  30   14   32 1
  31   16   17 1
  32   16   33 1
  33   16   34 1
  34   17   18 1
  35   17   35 1
  36   17   36 1
  37   18   19 1
  38   18   37 1
  39   18   38 1
  40   19   39 1
  41   19   40 1

#	End of record

