#	Name: ASD03240486
#	Creating user name:	WinNT
#	Creation time:	15. 06. 2019 20:35

#	Modifying user name:	WinNT
#	Modification time:	15. 06. 2019 20:35

#	Program:	/corina/corina34_cracker 3.40 0067  02.08.2006

@<TRIPOS>MOLECULE
ASD03240486
  39   41    0    0    0
SMALL
NO_CHARGES


@<TRIPOS>ATOM
   1 C1            -0.0688     1.4763     0.0646 C.ar    
   2 C2             0.5888     4.0372    -1.4889 C.ar    
   3 C3             1.3904     2.9289    -1.2833 C.ar    
   4 C4             1.2782     2.1491     0.0014 C.3     
   5 C5             0.6876     4.7550    -2.6637 C.ar    
   6 C6             1.5966     4.3614    -3.6431 C.ar    
   7 C7             2.4011     3.2442    -3.4311 C.ar    
   8 C8             2.2943     2.5335    -2.2527 C.ar    
   9 C9             1.7068     5.1295    -4.9090 C.2     
  10 C10            2.5496     4.8568    -5.9467 C.2     
  11 N11            2.3380     5.7871    -6.8993 N.pl3   
  12 N12            1.3412     6.6593    -6.4455 N.2     
  13 C13            0.9561     6.2685    -5.2595 C.2     
  14 C14           -0.1601     0.1013    -0.0449 C.ar    
  15 C15           -1.3953    -0.5164     0.0130 C.ar    
  16 C16            1.4272     3.0859     1.1724 C.2     
  17 N17            1.3609     2.6077     2.4307 N.am    
  18 C18            1.5058     3.5184     3.5690 C.3     
  19 C19           -2.5403     0.2418     0.1806 C.ar    
  20 C20           -2.4483     1.6179     0.2902 C.ar    
  21 C21           -1.2121     2.2339     0.2378 C.ar    
  22 Cl22          -4.0921    -0.5331     0.2529 Cl      
  23 O23            1.6069     4.2702     0.9824 O.2     
  24 H24           -0.1187     4.3388    -0.7307 H       
  25 H25            2.0635     1.3941     0.0379 H       
  26 H26            0.0610     5.6201    -2.8234 H       
  27 H27            3.1075     2.9348    -4.1873 H       
  28 H28            2.9179     1.6674    -2.0871 H       
  29 H29            3.2579     4.0430    -5.9961 H       
  30 H30            2.7974     5.8428    -7.7518 H       
  31 H31            0.1991     6.7409    -4.6510 H       
  32 H32            0.7338    -0.4905    -0.1761 H       
  33 H33           -1.4665    -1.5906    -0.0729 H       
  34 H34            1.2172     1.6605     2.5826 H       
  35 H35            1.4246     2.9544     4.4982 H       
  36 H36            2.4801     4.0050     3.5233 H       
  37 H37            0.7205     4.2734     3.5325 H       
  38 H38           -3.3418     2.2103     0.4210 H       
  39 H39           -1.1401     3.3081     0.3233 H       
@<TRIPOS>BOND
   1    1   14 ar
   2    1    4 1
   3    1   21 ar
   4    2    3 ar
   5    2    5 ar
   6    2   24 1
   7    3    4 1
   8    3    8 ar
   9    4   16 1
  10    4   25 1
  11    5    6 ar
  12    5   26 1
  13    6    7 ar
  14    6    9 1
  15    7    8 ar
  16    7   27 1
  17    8   28 1
  18    9   10 2
  19    9   13 1
  20   10   11 1
  21   10   29 1
  22   11   12 1
  23   11   30 1
  24   12   13 2
  25   13   31 1
  26   14   15 ar
  27   14   32 1
  28   15   19 ar
  29   15   33 1
  30   16   17 am
  31   16   23 2
  32   17   18 1
  33   17   34 1
  34   18   35 1
  35   18   36 1
  36   18   37 1
  37   19   20 ar
  38   19   22 1
  39   20   21 ar
  40   20   38 1
  41   21   39 1

#	End of record

