#	Name: ASD00100089
#	Creating user name:	WinNT
#	Creation time:	15. 06. 2019 18:30

#	Modifying user name:	WinNT
#	Modification time:	15. 06. 2019 18:30

#	Program:	/corina/corina34_cracker 3.40 0067  02.08.2006

@<TRIPOS>MOLECULE
ASD00100089
  66   70    0    0    0
SMALL
NO_CHARGES


@<TRIPOS>ATOM
   1 C1            -0.0180     1.4729     0.0101 C.2     
   2 C2             0.0021    -0.0041     0.0020 C.ar    
   3 C3             1.2202    -0.6894    -0.0133 C.ar    
   4 C4             1.2314    -2.0698    -0.0203 C.ar    
   5 C5             0.0394    -2.7743    -0.0127 C.ar    
   6 C6            -1.1707    -2.1001     0.0025 C.ar    
   7 C7            -1.1956    -0.7216     0.0154 C.ar    
   8 O8             1.0265     2.0950     0.0035 O.2     
   9 N9            -1.1942     2.1308     0.0193 N.am    
  10 Cl10           0.0614    -4.5102    -0.0228 Cl      
  11 Cl11           2.7151     0.1931    -0.0240 Cl      
  12 C12           -1.2140     3.5957     0.0274 C.3     
  13 C13           -2.5311     4.0912    -0.5734 C.3     
  14 C14           -2.5518     5.6210    -0.5649 C.3     
  15 C15           -2.4262     6.1248     0.8743 C.3     
  16 C16           -1.1092     5.6293     1.4750 C.3     
  17 C17           -1.0884     4.0995     1.4665 C.3     
  18 C18           -2.4470     7.6547     0.8827 C.3     
  19 C19           -2.4471     8.1568     2.3279 C.3     
  20 N20           -2.4670     9.6256     2.3360 N.3     
  21 C21           -2.7058    10.1412     3.6901 C.3     
  22 C22           -2.8648    11.6624     3.6374 C.3     
  23 C23           -1.5940    12.2836     3.0513 C.3     
  24 C24           -1.3415    11.6939     1.6609 C.3     
  25 C25           -1.2266    10.1719     1.7709 C.3     
  26 O26           -2.5442    15.7561     2.3729 O.3     
  27 C27           -2.6985    14.4281     2.2310 C.2     
  28 C28           -1.7677    13.7765     2.9412 C.2     
  29 C29           -0.9515    14.8092     3.5909 C.ar    
  30 C30           -1.5037    16.0355     3.1837 C.ar    
  31 C31            0.1501    14.7865     4.4444 C.ar    
  32 C32            0.6936    15.9729     4.8859 C.ar    
  33 C33            0.1489    17.1838     4.4843 C.ar    
  34 C34           -0.9406    17.2200     3.6404 C.ar    
  35 H35            2.1715    -2.6012    -0.0322 H       
  36 H36           -2.0968    -2.6556     0.0080 H       
  37 H37           -2.1399    -0.1977     0.0315 H       
  38 H38           -2.0276     1.6345     0.0205 H       
  39 H39           -0.3800     3.9736    -0.5640 H       
  40 H40           -2.6206     3.7322    -1.5987 H       
  41 H41           -3.3651     3.7132     0.0180 H       
  42 H42           -1.7178     5.9989    -1.1563 H       
  43 H43           -3.4901     5.9740    -0.9929 H       
  44 H44           -3.2602     5.7469     1.4656 H       
  45 H45           -0.2752     6.0073     0.8836 H       
  46 H46           -1.0197     5.9883     2.5003 H       
  47 H47           -1.9224     3.7216     2.0579 H       
  48 H48           -0.1502     3.7465     1.8945 H       
  49 H49           -1.5645     8.0329     0.3667 H       
  50 H50           -3.3442     8.0087     0.3750 H       
  51 H51           -3.3296     7.7786     2.8439 H       
  52 H52           -1.5498     7.8028     2.8356 H       
  53 H53           -3.6145     9.6948     4.0937 H       
  54 H54           -1.8610     9.8864     4.3300 H       
  55 H55           -3.7179    11.9175     3.0088 H       
  56 H56           -3.0265    12.0465     4.6446 H       
  57 H57           -0.7471    12.0614     3.7005 H       
  58 H58           -2.1706    11.9496     1.0012 H       
  59 H59           -0.4148    12.1006     1.2560 H       
  60 H60           -0.3887     9.9168     2.4198 H       
  61 H61           -1.0610     9.7477     0.7806 H       
  62 H62           -3.4622    13.9550     1.6315 H       
  63 H63            0.5749    13.8444     4.7582 H       
  64 H64            1.5470    15.9601     5.5476 H       
  65 H65            0.5828    18.1079     4.8367 H       
  66 H66           -1.3558    18.1689     3.3344 H       
@<TRIPOS>BOND
   1    1    2 1
   2    1    8 2
   3    1    9 am
   4    2    3 ar
   5    2    7 ar
   6    3    4 ar
   7    3   11 1
   8    4    5 ar
   9    4   35 1
  10    5    6 ar
  11    5   10 1
  12    6    7 ar
  13    6   36 1
  14    7   37 1
  15    9   12 1
  16    9   38 1
  17   12   13 1
  18   12   17 1
  19   12   39 1
  20   13   14 1
  21   13   40 1
  22   13   41 1
  23   14   15 1
  24   14   42 1
  25   14   43 1
  26   15   16 1
  27   15   18 1
  28   15   44 1
  29   16   17 1
  30   16   45 1
  31   16   46 1
  32   17   47 1
  33   17   48 1
  34   18   19 1
  35   18   49 1
  36   18   50 1
  37   19   20 1
  38   19   51 1
  39   19   52 1
  40   20   21 1
  41   20   25 1
  42   21   22 1
  43   21   53 1
  44   21   54 1
  45   22   23 1
  46   22   55 1
  47   22   56 1
  48   23   24 1
  49   23   28 1
  50   23   57 1
  51   24   25 1
  52   24   58 1
  53   24   59 1
  54   25   60 1
  55   25   61 1
  56   26   27 1
  57   26   30 1
  58   27   28 2
  59   27   62 1
  60   28   29 1
  61   29   30 ar
  62   29   31 ar
  63   30   34 ar
  64   31   32 ar
  65   31   63 1
  66   32   33 ar
  67   32   64 1
  68   33   34 ar
  69   33   65 1
  70   34   66 1

#	End of record

