#	Name: ASD01815833
#	Creating user name:	WinNT
#	Creation time:	15. 06. 2019 19:34

#	Modifying user name:	WinNT
#	Modification time:	15. 06. 2019 19:34

#	Program:	/corina/corina34_cracker 3.40 0067  02.08.2006

@<TRIPOS>MOLECULE
ASD01815833
  59   64    0    0    0
SMALL
NO_CHARGES


@<TRIPOS>ATOM
   1 C1            -0.0168     1.3869     0.0097 C.ar    
   2 C2             0.0021    -0.0041     0.0020 C.ar    
   3 C3             1.1801    -0.6897    -0.0129 C.ar    
   4 C4             2.3948     0.0129    -0.0207 C.ar    
   5 C5             2.3717     1.4290    -0.0129 C.ar    
   6 C6             1.1455     2.1015     0.0024 C.ar    
   7 C7             3.6293    -0.6694    -0.0365 C.ar    
   8 C8             4.8031     0.0063    -0.0446 C.ar    
   9 C9             4.8359     1.4095    -0.0374 C.ar    
  10 C10            3.6406     2.1511    -0.0211 C.ar    
  11 C11            6.1026     2.1526    -0.0470 C.2     
  12 N12            6.0328     3.5041    -0.0399 N.am    
  13 C13            4.8302     4.1313    -0.0241 C.2     
  14 N14            3.6961     3.4935    -0.0158 N.2     
  15 C15            7.2655     4.2957    -0.0490 C.3     
  16 C16            7.2933     5.1850    -1.2948 C.3     
  17 C17            7.3154     5.1796     1.2010 C.3     
  18 C18            8.5686     6.0583     1.1419 C.3     
  19 C19            8.5461     6.8796    -0.1499 C.3     
  20 O20            8.4682     5.9980    -1.2719 O.3     
  21 O21            7.1745     1.5748    -0.0604 O.2     
  22 C22            3.6424    -2.1763    -0.0442 C.3     
  23 C23            3.5087    -2.6726    -1.4608 C.ar    
  24 C24            4.6325    -2.8953    -2.2434 C.ar    
  25 C25            4.4767    -3.3514    -3.5396 C.ar    
  26 N26            3.2781    -3.5756    -4.0383 N.ar    
  27 C27            2.1787    -3.3752    -3.3232 C.ar    
  28 C28            2.2620    -2.9220    -2.0086 C.ar    
  29 O29            7.3639     4.3556     2.3675 O.3     
  30 C30            0.8499    -3.6414    -3.9267 C.ar    
  31 C31            0.7468    -4.1014    -5.2423 C.ar    
  32 C32           -0.3156    -3.4422    -3.1891 C.ar    
  33 N33           -1.4959    -3.6786    -3.7238 N.ar    
  34 C34           -1.6248    -4.1085    -4.9643 C.ar    
  35 C35           -0.5162    -4.3352    -5.7590 C.ar    
  36 H36           -0.9630     1.9076     0.0169 H       
  37 H37           -0.9305    -0.5488     0.0083 H       
  38 H38            1.1786    -1.7697    -0.0183 H       
  39 H39            1.1188     3.1811     0.0081 H       
  40 H40            5.7317    -0.5451    -0.0563 H       
  41 H41            4.8132     5.2111    -0.0182 H       
  42 H42            8.1271     3.6280    -0.0588 H       
  43 H43            7.3011     4.5598    -2.1876 H       
  44 H44            6.4097     5.8233    -1.3055 H       
  45 H45            6.4281     5.8118     1.2362 H       
  46 H46            8.5834     6.7299     2.0003 H       
  47 H47            9.4571     5.4271     1.1568 H       
  48 H48            7.6789     7.5400    -0.1457 H       
  49 H49            9.4564     7.4751    -0.2180 H       
  50 H50            4.5813    -2.5336     0.3789 H       
  51 H51            2.8098    -2.5499     0.5518 H       
  52 H52            5.6195    -2.7139    -1.8442 H       
  53 H53            5.3494    -3.5257    -4.1515 H       
  54 H54            1.3662    -2.7593    -1.4277 H       
  55 H55            7.3971     4.8505     3.1976 H       
  56 H56            1.6299    -4.2699    -5.8408 H       
  57 H57           -0.2504    -3.0913    -2.1698 H       
  58 H58           -2.6115    -4.2904    -5.3640 H       
  59 H59           -0.6344    -4.6871    -6.7732 H       
@<TRIPOS>BOND
   1    1    2 ar
   2    1    6 ar
   3    1   36 1
   4    2    3 ar
   5    2   37 1
   6    3    4 ar
   7    3   38 1
   8    4    5 ar
   9    4    7 ar
  10    5    6 ar
  11    5   10 ar
  12    6   39 1
  13    7    8 ar
  14    7   22 1
  15    8    9 ar
  16    8   40 1
  17    9   10 ar
  18    9   11 1
  19   10   14 1
  20   11   12 am
  21   11   21 2
  22   12   13 1
  23   12   15 1
  24   13   14 2
  25   13   41 1
  26   15   16 1
  27   15   17 1
  28   15   42 1
  29   16   20 1
  30   16   43 1
  31   16   44 1
  32   17   18 1
  33   17   29 1
  34   17   45 1
  35   18   19 1
  36   18   46 1
  37   18   47 1
  38   19   20 1
  39   19   48 1
  40   19   49 1
  41   22   23 1
  42   22   50 1
  43   22   51 1
  44   23   24 ar
  45   23   28 ar
  46   24   25 ar
  47   24   52 1
  48   25   26 ar
  49   25   53 1
  50   26   27 ar
  51   27   28 ar
  52   27   30 1
  53   28   54 1
  54   29   55 1
  55   30   31 ar
  56   30   32 ar
  57   31   35 ar
  58   31   56 1
  59   32   33 ar
  60   32   57 1
  61   33   34 ar
  62   34   35 ar
  63   34   58 1
  64   35   59 1

#	End of record

