#	Name: ASD02198300
#	Creating user name:	WinNT
#	Creation time:	15. 06. 2019 20:19

#	Modifying user name:	WinNT
#	Modification time:	15. 06. 2019 20:19

#	Program:	/corina/corina34_cracker 3.40 0067  02.08.2006

@<TRIPOS>MOLECULE
ASD02198300
  34   36    0    0    0
SMALL
NO_CHARGES


@<TRIPOS>ATOM
   1 C1             0.4721     1.5481     0.0844 C.2     
   2 C2             0.6314     0.1758     0.1482 C.2     
   3 S3             2.0563     2.2823     0.3186 S.3     
   4 C4             2.7678     0.7369     0.4760 C.2     
   5 N5             1.8712    -0.2000     0.3580 N.2     
   6 N6            -0.4182    -0.7173     0.0051 N.pl3   
   7 C7            -0.7370     2.2344    -0.1344 C.2     
   8 C8            -0.7781     3.7105    -0.0373 C.ar    
   9 O9            -1.7508     1.6127    -0.4041 O.2     
  10 N10            4.1084     0.5124     0.6971 N.pl3   
  11 C11            4.5708    -0.7867     0.9298 C.ar    
  12 C12            5.8751    -1.1307     0.5986 C.ar    
  13 C13           -1.7106     4.4357    -0.7802 C.ar    
  14 C14            0.1118     4.3822     0.8021 C.ar    
  15 C15            0.0685     5.7580     0.8889 C.ar    
  16 C16           -0.8558     6.4726     0.1457 C.ar    
  17 C17           -1.7444     5.8113    -0.6851 C.ar    
  18 C18            6.3290    -2.4144     0.8295 C.ar    
  19 C19            5.4858    -3.3576     1.3903 C.ar    
  20 C20            4.1858    -3.0175     1.7212 C.ar    
  21 C21            3.7283    -1.7338     1.4978 C.ar    
  22 Cl22           6.0595    -4.9704     1.6786 Cl      
  23 Br23          -0.9091     8.3587     0.2709 Br      
  24 H24           -1.3176    -0.3882    -0.1481 H       
  25 H25           -0.2535    -1.6718     0.0581 H       
  26 H26            4.7320     1.2554     0.6914 H       
  27 H27            6.5335    -0.3952     0.1607 H       
  28 H28           -2.4042     3.9210    -1.4286 H       
  29 H29            0.8327     3.8259     1.3828 H       
  30 H30            0.7567     6.2790     1.5381 H       
  31 H31           -2.4631     6.3739    -1.2625 H       
  32 H32            7.3430    -2.6826     0.5719 H       
  33 H33            3.5297    -3.7556     2.1584 H       
  34 H34            2.7138    -1.4688     1.7566 H       
@<TRIPOS>BOND
   1    1    2 2
   2    1    3 1
   3    1    7 1
   4    2    6 1
   5    2    5 1
   6    3    4 1
   7    4    5 2
   8    4   10 1
   9    6   24 1
  10    6   25 1
  11    7    8 1
  12    7    9 2
  13    8   13 ar
  14    8   14 ar
  15   10   11 1
  16   10   26 1
  17   11   12 ar
  18   11   21 ar
  19   12   18 ar
  20   12   27 1
  21   13   17 ar
  22   13   28 1
  23   14   15 ar
  24   14   29 1
  25   15   16 ar
  26   15   30 1
  27   16   17 ar
  28   16   23 1
  29   17   31 1
  30   18   19 ar
  31   18   32 1
  32   19   20 ar
  33   19   22 1
  34   20   21 ar
  35   20   33 1
  36   21   34 1

#	End of record

