#	Name: ASD01814521
#	Creating user name:	WinNT
#	Creation time:	15. 06. 2019 19:32

#	Modifying user name:	WinNT
#	Modification time:	15. 06. 2019 19:32

#	Program:	/corina/corina34_cracker 3.40 0067  02.08.2006

@<TRIPOS>MOLECULE
ASD01814521
  44   46    0    0    0
SMALL
NO_CHARGES


@<TRIPOS>ATOM
   1 C1            -0.0178     1.4648     0.0101 C.3     
   2 N2             0.0021    -0.0041     0.0020 N.3     
   3 C3             0.7149    -0.5340     1.1948 C.3     
   4 C4             0.9449    -2.0352     0.9584 C.3     
   5 C5            -0.4129    -2.7396     0.8861 C.3     
   6 C6            -1.2927    -2.0594    -0.1667 C.3     
   7 C7            -1.3711    -0.5565     0.1460 C.3     
   8 C8            -0.3081    -0.3877     2.3448 C.3     
   9 C9            -1.6865    -0.4026     1.6518 C.3     
  10 O10           -0.2161    -4.1320     0.5246 O.3     
  11 C11           -1.1130    -5.0152     0.9908 C.2     
  12 C12           -0.9736    -6.4781     0.6568 C.3     
  13 C13           -2.0992    -7.2490     1.2970 C.ar    
  14 O14           -2.0321    -4.6373     1.6781 O.2     
  15 C15           -1.0281    -6.6622    -0.8611 C.3     
  16 O16            0.1047    -6.0284    -1.4587 O.3     
  17 C17           -1.8206    -8.2494     2.2094 C.ar    
  18 C18           -2.8530    -8.9565     2.7966 C.ar    
  19 C19           -4.1642    -8.6629     2.4718 C.ar    
  20 C20           -4.4429    -7.6619     1.5601 C.ar    
  21 C21           -3.4106    -6.9519     0.9761 C.ar    
  22 H22            1.0047     1.8421     0.0024 H       
  23 H23           -0.5450     1.8259    -0.8730 H       
  24 H24           -0.5280     1.8163     0.9069 H       
  25 H25            1.6459    -0.0016     1.3892 H       
  26 H26            1.4812    -2.1791     0.0203 H       
  27 H27            1.5276    -2.4493     1.7812 H       
  28 H28           -0.9024    -2.6839     1.8584 H       
  29 H29           -0.8571    -2.2043    -1.1553 H       
  30 H30           -2.2935    -2.4906    -0.1400 H       
  31 H31           -2.0915    -0.0419    -0.4898 H       
  32 H32           -0.2226    -1.2251     3.0373 H       
  33 H33           -0.1573     0.5560     2.8689 H       
  34 H34           -2.2135     0.5337     1.8352 H       
  35 H35           -2.2788    -1.2474     2.0035 H       
  36 H36           -0.0199    -6.8476     1.0336 H       
  37 H37           -1.0167    -7.7259    -1.0988 H       
  38 H38           -1.9424    -6.2130    -1.2490 H       
  39 H39            0.1355    -6.1052    -2.4222 H       
  40 H40           -0.7962    -8.4788     2.4632 H       
  41 H41           -2.6353    -9.7386     3.5089 H       
  42 H42           -4.9709    -9.2159     2.9301 H       
  43 H43           -5.4673    -7.4328     1.3061 H       
  44 H44           -3.6283    -6.1698     0.2639 H       
@<TRIPOS>BOND
   1    1    2 1
   2    1   22 1
   3    1   23 1
   4    1   24 1
   5    2    3 1
   6    2    7 1
   7    3    4 1
   8    3    8 1
   9    3   25 1
  10    4    5 1
  11    4   26 1
  12    4   27 1
  13    5    6 1
  14    5   10 1
  15    5   28 1
  16    6    7 1
  17    6   29 1
  18    6   30 1
  19    7    9 1
  20    7   31 1
  21    8    9 1
  22    8   32 1
  23    8   33 1
  24    9   34 1
  25    9   35 1
  26   10   11 1
  27   11   12 1
  28   11   14 2
  29   12   13 1
  30   12   15 1
  31   12   36 1
  32   13   17 ar
  33   13   21 ar
  34   15   16 1
  35   15   37 1
  36   15   38 1
  37   16   39 1
  38   17   18 ar
  39   17   40 1
  40   18   19 ar
  41   18   41 1
  42   19   20 ar
  43   19   42 1
  44   20   21 ar
  45   20   43 1
  46   21   44 1

#	End of record

