#	Name: ASD02160006
#	Creating user name:	WinNT
#	Creation time:	15. 06. 2019 20:18

#	Modifying user name:	WinNT
#	Modification time:	15. 06. 2019 20:18

#	Program:	/corina/corina34_cracker 3.40 0067  02.08.2006

@<TRIPOS>MOLECULE
ASD02160006
  58   60    0    0    0
SMALL
NO_CHARGES


@<TRIPOS>ATOM
   1 C1             0.0358     1.5767    -0.0089 C.3     
   2 C2            -0.0416     0.0764     0.0064 C.2     
   3 C3             1.0213    -0.6835    -0.3094 C.2     
   4 N4             2.2164    -0.1104    -0.6491 N.pl3   
   5 C5             2.4687     1.1972    -0.3351 C.2     
   6 C6             1.4664     2.0355    -0.0205 C.2     
   7 C7             0.8953    -2.1851    -0.2886 C.3     
   8 C8             3.8881     1.7036    -0.3413 C.3     
   9 C9             1.7649     3.3784     0.3071 C.2     
  10 O10            2.9191     3.7638     0.3018 O.2     
  11 O11            0.7698     4.2324     0.6257 O.3     
  12 C12            1.1438     5.5739     0.9460 C.3     
  13 C13           -0.0901     6.3750     1.2728 C.ar    
  14 C14           -0.6622     2.0971    -1.2389 C.ar    
  15 C15           -1.2588    -0.5499     0.3611 C.2     
  16 O16           -2.0759    -1.0297    -0.5999 O.3     
  17 O17           -1.5695    -0.6563     1.5328 O.2     
  18 C18           -3.2892    -1.6501    -0.1696 C.3     
  19 C19           -0.7732     7.0462     0.2760 C.ar    
  20 C20           -0.5577     6.4435     2.5760 C.ar    
  21 C21           -1.6968     7.1926     2.8300 C.ar    
  22 C22           -2.3234     7.8413     1.7831 C.ar    
  23 N23           -1.8532     7.7495     0.5544 N.ar    
  24 C24           -1.9424     3.0522    -3.4956 C.ar    
  25 C25           -0.8643     2.1963    -3.6226 C.ar    
  26 C26           -0.2241     1.7189    -2.4943 C.ar    
  27 C27           -1.7441     2.9481    -1.1118 C.ar    
  28 C28           -2.3843     3.4254    -2.2401 C.ar    
  29 N29           -2.6280     3.5633    -4.7037 N.pl3   
  30 O30           -2.2423     3.2297    -5.8098 O.2     
  31 O31           -3.5778     4.3175    -4.5918 O.2     
  32 C32           -4.3675    -1.4566    -1.2376 C.3     
  33 C33           -3.0483    -3.1455     0.0469 C.3     
  34 H34           -0.4602     1.9707     0.8781 H       
  35 H35            2.8879    -0.6335    -1.1142 H       
  36 H36            0.4905    -2.5289    -1.2404 H       
  37 H37            1.8776    -2.6300    -0.1295 H       
  38 H38            0.2267    -2.4824     0.5193 H       
  39 H39            4.5621     0.8923    -0.6163 H       
  40 H40            3.9815     2.5143    -1.0638 H       
  41 H41            4.1473     2.0704     0.6519 H       
  42 H42            1.8124     5.5690     1.8069 H       
  43 H43            1.6529     6.0226     0.0931 H       
  44 H44           -3.6179    -1.1959     0.7651 H       
  45 H45           -0.4179     6.9942    -0.7426 H       
  46 H46           -0.0473     5.9255     3.3745 H       
  47 H47           -2.0893     7.2677     3.8333 H       
  48 H48           -3.2110     8.4267     1.9726 H       
  49 H49           -0.5191     1.9046    -4.6035 H       
  50 H50            0.6187     1.0509    -2.5936 H       
  51 H51           -2.0894     3.2397    -0.1309 H       
  52 H52           -3.2266     4.0942    -2.1408 H       
  53 H53           -4.0388    -1.9108    -2.1723 H       
  54 H54           -5.2930    -1.9299    -0.9094 H       
  55 H55           -4.5391    -0.3913    -1.3918 H       
  56 H56           -2.7196    -3.5996    -0.8878 H       
  57 H57           -2.2801    -3.2833     0.8078 H       
  58 H58           -3.9737    -3.6187     0.3751 H       
@<TRIPOS>BOND
   1    1    2 1
   2    1    6 1
   3    1   14 1
   4    1   34 1
   5    2    3 2
   6    2   15 1
   7    3    4 1
   8    3    7 1
   9    4    5 1
  10    4   35 1
  11    5    6 2
  12    5    8 1
  13    6    9 1
  14    7   36 1
  15    7   37 1
  16    7   38 1
  17    8   39 1
  18    8   40 1
  19    8   41 1
  20    9   10 2
  21    9   11 1
  22   11   12 1
  23   12   13 1
  24   12   42 1
  25   12   43 1
  26   13   20 ar
  27   13   19 ar
  28   14   27 ar
  29   14   26 ar
  30   15   16 1
  31   15   17 2
  32   16   18 1
  33   18   32 1
  34   18   33 1
  35   18   44 1
  36   19   23 ar
  37   19   45 1
  38   20   21 ar
  39   20   46 1
  40   21   22 ar
  41   21   47 1
  42   22   23 ar
  43   22   48 1
  44   24   25 ar
  45   24   28 ar
  46   24   29 1
  47   25   26 ar
  48   25   49 1
  49   26   50 1
  50   27   28 ar
  51   27   51 1
  52   28   52 1
  53   29   30 2
  54   29   31 2
  55   32   53 1
  56   32   54 1
  57   32   55 1
  58   33   56 1
  59   33   57 1
  60   33   58 1

#	End of record

