#	Name: ASD01410783
#	Creating user name:	WinNT
#	Creation time:	15. 06. 2019 19:18

#	Modifying user name:	WinNT
#	Modification time:	15. 06. 2019 19:18

#	Program:	/corina/corina34_cracker 3.40 0067  02.08.2006

@<TRIPOS>MOLECULE
ASD01410783
 104  110    0    0    0
SMALL
NO_CHARGES


@<TRIPOS>ATOM
   1 C1             3.0433     2.0109    -0.6820 C.3     
   2 C2             1.8496    -1.6282    -1.0774 C.3     
   3 C3             2.4656    -0.2687    -1.4819 C.3     
   4 N4             3.9236    -0.5172    -1.4878 N.am    
   5 C5             4.1545    -1.9369    -1.7677 C.3     
   6 C6             2.7705    -2.6193    -1.8409 C.3     
   7 O7             1.9359    -1.8311     0.3345 O.3     
   8 C8             4.8719    -2.0900    -3.0841 C.2     
   9 O9             5.1655    -1.1080    -3.7325 O.2     
  10 N10            5.1873    -3.3181    -3.5409 N.am    
  11 C11            5.7714    -3.4757    -4.8751 C.3     
  12 C12            4.8737    -3.1011    -6.0261 C.2     
  13 N13            3.5837    -2.7835    -5.7989 N.am    
  14 O14            5.3120    -3.0854    -7.1568 O.2     
  15 C15            7.2685    -3.1996    -5.0280 C.3     
  16 C16            6.7450    -4.6368    -5.0874 C.3     
  17 C17            7.7326    -2.5742    -6.3182 C.2     
  18 C18            1.0600    -2.7078     0.8852 C.ar    
  19 C19            1.0641    -2.9609     2.2768 C.ar    
  20 C20            0.1437    -3.3678     0.1089 C.ar    
  21 C21           -0.7510    -4.2686     0.7023 C.ar    
  22 N22           -0.7356    -4.5021     2.0039 N.ar    
  23 C23            0.1319    -3.8841     2.8117 C.ar    
  24 C24           -1.7347    -4.9735    -0.1460 C.2     
  25 C25            0.1386    -4.1410     4.1930 C.ar    
  26 C26            1.0430    -3.4908     5.0013 C.ar    
  27 C27            1.9546    -2.5772     4.4633 C.ar    
  28 C28            1.9726    -2.3151     3.1280 C.ar    
  29 C29           -0.8391    -5.1226     4.7861 C.3     
  30 O30            1.0497    -3.7389     6.3367 O.3     
  31 N31           -2.6186    -5.8322     0.2758 N.2     
  32 C32            2.1883     0.7731    -0.3922 C.3     
  33 N33            4.4526     1.6465    -0.8045 N.am    
  34 C34            4.8436     0.4298    -1.2275 C.2     
  35 O35            6.0260     0.1867    -1.3736 O.2     
  36 C36            5.4737     2.6376    -0.4562 C.3     
  37 C37            5.8330     3.4573    -1.6971 C.3     
  38 C38            6.8994     4.4924    -1.3334 C.3     
  39 C39            7.3489     5.2275    -2.5977 C.3     
  40 S40            2.6328    -2.2427    -7.0422 S.o2    
  41 C41            2.5208    -3.6558    -8.1741 C.3     
  42 O42            1.3733    -1.9889    -6.4352 O.2     
  43 O43            3.3880    -1.1920    -7.6295 O.2     
  44 C44            1.7933    -3.4406    -9.5028 C.3     
  45 C45            3.3167    -3.5807    -9.4786 C.3     
  46 C46            8.3438    -1.4157    -6.3019 C.2     
  47 C47            6.3158     5.4981    -0.3390 C.3     
  48 C48            2.0119    -3.0331     7.1229 C.3     
  49 C49           -3.4138    -6.3607    -0.6226 C.2     
  50 C50           -3.2231    -5.9519    -1.8836 C.2     
  51 S51           -1.9050    -4.7816    -1.8890 S.3     
  52 C52           -4.4761    -7.3659    -0.2590 C.3     
  53 C53           -5.8103    -6.6460    -0.0530 C.3     
  54 C54           -4.6177    -8.3891    -1.3878 C.3     
  55 H55            2.7085     2.4689    -1.6127 H       
  56 H56            2.9268     2.7265     0.1319 H       
  57 H57            0.8180    -1.7081    -1.4199 H       
  58 H58            2.1106     0.0553    -2.4602 H       
  59 H59            4.7454    -2.3815    -0.9669 H       
  60 H60            2.7917    -3.5880    -1.3416 H       
  61 H61            2.4475    -2.7254    -2.8765 H       
  62 H62            5.0274    -4.0977    -2.9863 H       
  63 H63            3.2123    -2.8717    -4.9072 H       
  64 H64            7.8188    -2.9006    -4.1358 H       
  65 H65            6.9512    -5.2832    -4.2344 H       
  66 H66            6.7365    -5.1295    -6.0597 H       
  67 H67            7.5612    -3.0812    -7.2563 H       
  68 H68            0.1108    -3.1941    -0.9565 H       
  69 H69            2.6560    -2.0770     5.1147 H       
  70 H70            2.6818    -1.6072     2.7251 H       
  71 H71           -0.3990    -6.1198     4.7843 H       
  72 H72           -1.0718    -4.8300     5.8100 H       
  73 H73           -1.7536    -5.1279     4.1930 H       
  74 H74            2.4525     0.3641     0.5830 H       
  75 H75            1.1327     1.0447    -0.4037 H       
  76 H76            5.0874     3.3006     0.3179 H       
  77 H77            6.3638     2.1280    -0.0872 H       
  78 H78            6.2193     2.7943    -2.4713 H       
  79 H79            4.9430     3.9669    -2.0662 H       
  80 H80            7.7547     3.9896    -0.8820 H       
  81 H81            6.4936     5.7303    -3.0492 H       
  82 H82            8.1086     5.9649    -2.3386 H       
  83 H83            7.7646     4.5110    -3.3062 H       
  84 H84            2.4232    -4.6320    -7.6992 H       
  85 H85            1.2174    -4.2754    -9.9022 H       
  86 H86            1.3820    -2.4500    -9.6967 H       
  87 H87            3.9076    -2.6823    -9.6567 H       
  88 H88            3.7430    -4.5077    -9.8621 H       
  89 H89            8.5152    -0.9087    -5.3638 H       
  90 H90            8.6764    -0.9675    -7.2266 H       
  91 H91            5.4605     6.0008    -0.7904 H       
  92 H92            5.9956     4.9744     0.5617 H       
  93 H93            7.0755     6.2355    -0.0799 H       
  94 H94            1.9097    -3.3230     8.1686 H       
  95 H95            3.0154    -3.2774     6.7745 H       
  96 H96            1.8445    -1.9605     7.0252 H       
  97 H97           -3.7825    -6.2798    -2.7473 H       
  98 H98           -4.1931    -7.8769     0.6612 H       
  99 H99           -6.0934    -6.1350    -0.9732 H       
 100 H100          -6.5787    -7.3730     0.2100 H       
 101 H101          -5.7095    -5.9171     0.7511 H       
 102 H102          -3.6672    -8.9019    -1.5346 H       
 103 H103          -5.3860    -9.1161    -1.1248 H       
 104 H104          -4.9007    -7.8780    -2.3080 H       
@<TRIPOS>BOND
   1    1   32 1
   2    1   33 1
   3    1   55 1
   4    1   56 1
   5    2    3 1
   6    2    7 1
   7    2    6 1
   8    2   57 1
   9    3    4 1
  10    3   32 1
  11    3   58 1
  12    4    5 1
  13    4   34 am
  14    5    6 1
  15    5    8 1
  16    5   59 1
  17    6   60 1
  18    6   61 1
  19    7   18 1
  20    8    9 2
  21    8   10 am
  22   10   11 1
  23   10   62 1
  24   11   12 1
  25   11   15 1
  26   11   16 1
  27   12   13 am
  28   12   14 2
  29   13   40 am
  30   13   63 1
  31   15   16 1
  32   15   17 1
  33   15   64 1
  34   16   65 1
  35   16   66 1
  36   17   46 2
  37   17   67 1
  38   18   19 ar
  39   18   20 ar
  40   19   23 ar
  41   19   28 ar
  42   20   21 ar
  43   20   68 1
  44   21   22 ar
  45   21   24 1
  46   22   23 ar
  47   23   25 ar
  48   24   31 2
  49   24   51 1
  50   25   26 ar
  51   25   29 1
  52   26   27 ar
  53   26   30 1
  54   27   28 ar
  55   27   69 1
  56   28   70 1
  57   29   71 1
  58   29   72 1
  59   29   73 1
  60   30   48 1
  61   31   49 1
  62   32   74 1
  63   32   75 1
  64   33   34 am
  65   33   36 1
  66   34   35 2
  67   36   37 1
  68   36   76 1
  69   36   77 1
  70   37   38 1
  71   37   78 1
  72   37   79 1
  73   38   39 1
  74   38   47 1
  75   38   80 1
  76   39   81 1
  77   39   82 1
  78   39   83 1
  79   40   41 1
  80   40   42 2
  81   40   43 2
  82   41   44 1
  83   41   45 1
  84   41   84 1
  85   44   45 1
  86   44   85 1
  87   44   86 1
  88   45   87 1
  89   45   88 1
  90   46   89 1
  91   46   90 1
  92   47   91 1
  93   47   92 1
  94   47   93 1
  95   48   94 1
  96   48   95 1
  97   48   96 1
  98   49   50 2
  99   49   52 1
 100   50   51 1
 101   50   97 1
 102   52   53 1
 103   52   54 1
 104   52   98 1
 105   53   99 1
 106   53  100 1
 107   53  101 1
 108   54  102 1
 109   54  103 1
 110   54  104 1

#	End of record

