#	Name: ASD02039178
#	Creating user name:	WinNT
#	Creation time:	15. 06. 2019 20:17

#	Modifying user name:	WinNT
#	Modification time:	15. 06. 2019 20:17

#	Program:	/corina/corina34_cracker 3.40 0067  02.08.2006

@<TRIPOS>MOLECULE
ASD02039178
  46   48    0    0    0
SMALL
NO_CHARGES


@<TRIPOS>ATOM
   1 C1            -0.0637     1.4931    -0.0139 C.2     
   2 C2            -0.0343    -0.0136    -0.0186 C.3     
   3 C3             1.4178    -0.4954    -0.0285 C.3     
   4 O4             0.9707     2.1175    -0.0182 O.2     
   5 O5            -1.2390     2.1414    -0.0107 O.3     
   6 N6             1.5272    -6.1661    -0.0484 N.am    
   7 C7             1.9005    -6.8353    -1.1545 C.2     
   8 C8             2.3150    -6.0962    -2.3983 C.3     
   9 C9             1.4858    -4.8201    -2.5463 C.3     
  10 C10            1.4798    -4.0689    -1.2404 C.ar    
  11 C11            1.4535    -2.6883    -1.2337 C.ar    
  12 C12            1.4472    -2.0021    -0.0332 C.ar    
  13 C13            1.4681    -2.6955     1.1633 C.ar    
  14 C14            1.4949    -4.0763     1.1630 C.ar    
  15 C15            1.5008    -4.7682    -0.0410 C.ar    
  16 O16            1.9033    -8.0482    -1.1490 O.2     
  17 C17            1.1400    -6.9074     1.1544 C.3     
  18 C18           -0.3585    -7.0632     1.1879 C.ar    
  19 C19           -0.9590    -8.1082     0.5102 C.ar    
  20 C20           -2.3325    -8.2532     0.5393 C.ar    
  21 C21           -3.1094    -7.3493     1.2493 C.ar    
  22 C22           -2.5045    -6.3017     1.9284 C.ar    
  23 C23           -1.1301    -6.1643     1.9008 C.ar    
  24 O24           -4.4608    -7.4896     1.2791 O.3     
  25 C25           -5.1971    -6.5221     2.0299 C.3     
  26 H26           -0.5357    -0.3895     0.8733 H       
  27 H27           -0.5462    -0.3843    -0.9066 H       
  28 H28            1.9192    -0.1195    -0.9204 H       
  29 H29            1.9297    -0.1248     0.8595 H       
  30 H30           -1.2072     3.1079    -0.0078 H       
  31 H31            3.3712    -5.8358    -2.3296 H       
  32 H32            2.1566    -6.7338    -3.2680 H       
  33 H33            1.9208    -4.1926    -3.3242 H       
  34 H34            0.4635    -5.0810    -2.8199 H       
  35 H35            1.4378    -2.1442    -2.1665 H       
  36 H36            1.4639    -2.1564     2.0991 H       
  37 H37            1.5117    -4.6171     2.0977 H       
  38 H38            1.6075    -7.8920     1.1406 H       
  39 H39            1.4684    -6.3617     2.0390 H       
  40 H40           -0.3538    -8.8114    -0.0426 H       
  41 H41           -2.8011    -9.0694     0.0095 H       
  42 H42           -3.1071    -5.5967     2.4818 H       
  43 H43           -0.6583    -5.3517     2.4332 H       
  44 H44           -5.0147    -5.5286     1.6201 H       
  45 H45           -6.2614    -6.7496     1.9710 H       
  46 H46           -4.8767    -6.5499     3.0714 H       
@<TRIPOS>BOND
   1    1    2 1
   2    1    4 2
   3    1    5 1
   4    2    3 1
   5    2   26 1
   6    2   27 1
   7    3   12 1
   8    3   28 1
   9    3   29 1
  10    5   30 1
  11    6    7 am
  12    6   15 1
  13    6   17 1
  14    7    8 1
  15    7   16 2
  16    8    9 1
  17    8   31 1
  18    8   32 1
  19    9   10 1
  20    9   33 1
  21    9   34 1
  22   10   11 ar
  23   10   15 ar
  24   11   12 ar
  25   11   35 1
  26   12   13 ar
  27   13   14 ar
  28   13   36 1
  29   14   15 ar
  30   14   37 1
  31   17   18 1
  32   17   38 1
  33   17   39 1
  34   18   19 ar
  35   18   23 ar
  36   19   20 ar
  37   19   40 1
  38   20   21 ar
  39   20   41 1
  40   21   22 ar
  41   21   24 1
  42   22   23 ar
  43   22   42 1
  44   23   43 1
  45   24   25 1
  46   25   44 1
  47   25   45 1
  48   25   46 1

#	End of record

