#	Name: ASD00431346
#	Creating user name:	WinNT
#	Creation time:	15. 06. 2019 18:35

#	Modifying user name:	WinNT
#	Modification time:	15. 06. 2019 18:35

#	Program:	/corina/corina34_cracker 3.40 0067  02.08.2006

@<TRIPOS>MOLECULE
ASD00431346
  44   46    0    0    0
SMALL
NO_CHARGES


@<TRIPOS>ATOM
   1 C1             0.1716     1.3902     0.0021 C.3     
   2 C2             0.2065    -0.1393     0.0159 C.3     
   3 O3             2.4055     2.0251    -1.0404 O.3     
   4 N4             3.4766     2.4932    -0.7314 N.2     
   5 C5             3.5246     2.7704     0.5517 C.2     
   6 C6             2.2555     2.3968     1.0831 C.2     
   7 C7             1.5805     1.9250     0.0122 C.2     
   8 O8             4.6866     3.6257     2.6136 O.3     
   9 C9             4.6613     3.3505     1.2927 C.2     
  10 C10            5.8646     3.6994     0.7619 C.2     
  11 C11            6.6436     4.2066     1.8175 C.2     
  12 C12            5.8823     4.1436     2.9380 C.2     
  13 O13            6.2642     4.5379     4.1778 O.3     
  14 C14            5.3387     4.5003     5.1729 C.ar    
  15 C15            4.8265     3.2832     5.5983 C.ar    
  16 C16            3.8862     3.2451     6.6092 C.ar    
  17 C17            3.4539     4.4238     7.1991 C.ar    
  18 C18            3.9656     5.6408     6.7736 C.ar    
  19 C19            4.9105     5.6787     5.7669 C.ar    
  20 O20            2.5282     4.3862     8.1944 O.3     
  21 C21            1.9436     3.1160     8.4890 C.3     
  22 C22            2.7246     2.4454     9.6209 C.3     
  23 C23            0.4885     3.3117     8.9196 C.3     
  24 N24           -0.5192     1.8533    -1.2088 N.3     
  25 H25           -0.3597     1.7495     0.8834 H       
  26 H26            0.7191    -0.4829     0.9144 H       
  27 H27           -0.8125    -0.5261     0.0086 H       
  28 H28            0.7378    -0.4986    -0.8654 H       
  29 H29            1.9132     2.4733     2.1045 H       
  30 H30            6.1640     3.6050    -0.2714 H       
  31 H31            7.6562     4.5758     1.7488 H       
  32 H32            5.1628     2.3655     5.1388 H       
  33 H33            3.4872     2.2977     6.9402 H       
  34 H34            3.6284     6.5585     7.2325 H       
  35 H35            5.3124     6.6259     5.4389 H       
  36 H36            1.9779     2.4854     7.6006 H       
  37 H37            2.2787     1.4765     9.8456 H       
  38 H38            3.7612     2.3059     9.3142 H       
  39 H39            2.6903     3.0760    10.5093 H       
  40 H40           -0.0679     3.7895     8.1132 H       
  41 H41            0.0426     2.3428     9.1443 H       
  42 H42            0.4542     3.9423     9.8080 H       
  43 H43           -0.0109     1.5879    -2.0390 H       
  44 H44           -1.4668     1.5078    -1.2390 H       
@<TRIPOS>BOND
   1    1    2 1
   2    1    7 1
   3    1   24 1
   4    1   25 1
   5    2   26 1
   6    2   27 1
   7    2   28 1
   8    3    4 1
   9    3    7 1
  10    4    5 2
  11    5    6 1
  12    5    9 1
  13    6    7 2
  14    6   29 1
  15    8    9 1
  16    8   12 1
  17    9   10 2
  18   10   11 1
  19   10   30 1
  20   11   12 2
  21   11   31 1
  22   12   13 1
  23   13   14 1
  24   14   15 ar
  25   14   19 ar
  26   15   16 ar
  27   15   32 1
  28   16   17 ar
  29   16   33 1
  30   17   18 ar
  31   17   20 1
  32   18   19 ar
  33   18   34 1
  34   19   35 1
  35   20   21 1
  36   21   22 1
  37   21   23 1
  38   21   36 1
  39   22   37 1
  40   22   38 1
  41   22   39 1
  42   23   40 1
  43   23   41 1
  44   23   42 1
  45   24   43 1
  46   24   44 1

#	End of record

