#	Name: ASD02560139
#	Creating user name:	WinNT
#	Creation time:	15. 06. 2019 20:24

#	Modifying user name:	WinNT
#	Modification time:	15. 06. 2019 20:24

#	Program:	/corina/corina34_cracker 3.40 0067  02.08.2006

@<TRIPOS>MOLECULE
ASD02560139
  62   65    0    0    0
SMALL
NO_CHARGES


@<TRIPOS>ATOM
   1 C1             0.3962     1.7185    -0.3427 C.3     
   2 N2             1.0842    -0.2234     1.0058 N.2     
   3 N3             0.2724    -0.5538     1.8759 N.2     
   4 C4             0.4023     0.1929    -0.2265 C.3     
   5 N5            -0.9837    -0.3203    -0.0839 N.3     
   6 C6            -1.1080    -0.4218     1.3922 C.3     
   7 S7            -2.0788    -1.8856     1.8453 S.3     
   8 C8            -1.1118    -3.2501     1.1425 C.3     
   9 C9            -1.7993    -4.5579     1.4392 C.2     
  10 O10           -2.8392    -4.5685     2.0633 O.2     
  11 N11           -1.2585    -5.7158     1.0111 N.am    
  12 C12           -1.9095     0.5876    -0.6030 C.ar    
  13 C13           -1.8288    -6.9363     1.3892 C.ar    
  14 C14           -1.6412    -8.0655     0.6025 C.ar    
  15 C15           -2.2054    -9.2685     0.9784 C.ar    
  16 C16           -2.9566    -9.3498     2.1369 C.ar    
  17 C17           -3.1455    -8.2274     2.9219 C.ar    
  18 C18           -2.5786    -7.0225     2.5546 C.ar    
  19 S19           -3.6747   -10.8867     2.6130 S.o2    
  20 O20           -4.7772   -10.5715     3.4523 O.2     
  21 O21           -3.7974   -11.6573     1.4254 O.2     
  22 C22           -1.9713     0.8045    -1.9804 C.ar    
  23 C23           -2.7655     1.2638     0.2524 C.ar    
  24 C24           -3.6802     2.1611    -0.2636 C.ar    
  25 C25           -3.7380     2.3765    -1.6252 C.ar    
  26 C26           -2.8879     1.6952    -2.4882 C.ar    
  27 C27           -3.0178     1.9719    -3.9633 C.3     
  28 C28           -1.7694     1.5056    -4.7093 C.3     
  29 C29           -1.4804     0.0541    -4.3086 C.3     
  30 C30           -1.0086     0.0441    -2.8543 C.3     
  31 N31           -2.5700   -11.6695     3.5664 N.am    
  32 C32           -0.8233    -7.9778    -0.6602 C.3     
  33 C33           -4.7377     3.3565    -2.1831 C.3     
  34 H34            1.4198     2.0903    -0.2982 H       
  35 H35           -0.0549     2.0087    -1.2916 H       
  36 H36           -0.1807     2.1432     0.4788 H       
  37 H37            0.8845    -0.2530    -1.0963 H       
  38 H38           -1.5675     0.4798     1.7973 H       
  39 H39           -1.0298    -3.1193     0.0635 H       
  40 H40           -0.1155    -3.2548     1.5847 H       
  41 H41           -0.4739    -5.7030     0.4408 H       
  42 H42           -2.0603   -10.1469     0.3670 H       
  43 H43           -3.7329    -8.2940     3.8258 H       
  44 H44           -2.7263    -6.1462     3.1684 H       
  45 H45           -2.7176     1.0896     1.3171 H       
  46 H46           -4.3489     2.6925     0.3973 H       
  47 H47           -3.8878     1.4433    -4.3529 H       
  48 H48           -3.1498     3.0428    -4.1178 H       
  49 H49           -1.9414     1.5624    -5.7841 H       
  50 H50           -0.9228     2.1366    -4.4387 H       
  51 H51           -2.3875    -0.5418    -4.4084 H       
  52 H52           -0.6994    -0.3551    -4.9496 H       
  53 H53           -0.0228     0.5053    -2.7931 H       
  54 H54           -0.9451    -0.9861    -2.5042 H       
  55 H55           -2.8719   -12.2741     4.2623 H       
  56 H56           -1.6209   -11.5235     3.4290 H       
  57 H57            0.2216    -8.1873    -0.4315 H       
  58 H58           -1.1905    -8.7071    -1.3823 H       
  59 H59           -0.9096    -6.9756    -1.0800 H       
  60 H60           -4.2882     4.3485    -2.2274 H       
  61 H61           -5.0308     3.0454    -3.1858 H       
  62 H62           -5.6171     3.3844    -1.5397 H       
@<TRIPOS>BOND
   1    1    4 1
   2    1   34 1
   3    1   35 1
   4    1   36 1
   5    2    3 2
   6    2    4 1
   7    3    6 1
   8    4    5 1
   9    4   37 1
  10    5    6 1
  11    5   12 1
  12    6    7 1
  13    6   38 1
  14    7    8 1
  15    8    9 1
  16    8   39 1
  17    8   40 1
  18    9   10 2
  19    9   11 am
  20   11   13 1
  21   11   41 1
  22   12   22 ar
  23   12   23 ar
  24   13   14 ar
  25   13   18 ar
  26   14   15 ar
  27   14   32 1
  28   15   16 ar
  29   15   42 1
  30   16   17 ar
  31   16   19 1
  32   17   18 ar
  33   17   43 1
  34   18   44 1
  35   19   20 2
  36   19   21 2
  37   19   31 am
  38   22   26 ar
  39   22   30 1
  40   23   24 ar
  41   23   45 1
  42   24   25 ar
  43   24   46 1
  44   25   26 ar
  45   25   33 1
  46   26   27 1
  47   27   28 1
  48   27   47 1
  49   27   48 1
  50   28   29 1
  51   28   49 1
  52   28   50 1
  53   29   30 1
  54   29   51 1
  55   29   52 1
  56   30   53 1
  57   30   54 1
  58   31   55 1
  59   31   56 1
  60   32   57 1
  61   32   58 1
  62   32   59 1
  63   33   60 1
  64   33   61 1
  65   33   62 1

#	End of record

