#	Name: ASD01811345
#	Creating user name:	WinNT
#	Creation time:	15. 06. 2019 19:26

#	Modifying user name:	WinNT
#	Modification time:	15. 06. 2019 19:26

#	Program:	/corina/corina34_cracker 3.40 0067  02.08.2006

@<TRIPOS>MOLECULE
ASD01811345
  62   66    0    0    0
SMALL
NO_CHARGES


@<TRIPOS>ATOM
   1 C1            -0.2001     1.3905    -0.0276 C.2     
   2 C2            -0.2307    -0.0749     0.1388 C.ar    
   3 C3             0.8641    -0.8593    -0.2563 C.ar    
   4 C4             0.7922    -2.2150    -0.0835 C.ar    
   5 C5            -0.3564    -2.7732     0.4753 C.ar    
   6 N6            -1.3771    -2.0094     0.8403 N.ar    
   7 C7            -1.3465    -0.7008     0.6967 C.ar    
   8 O8             0.7786     1.9273    -0.5101 O.2     
   9 N9            -1.2590     2.1339     0.3501 N.am    
  10 C10           -1.1952     3.5306     0.2779 C.ar    
  11 C11           -2.3440     4.2669    -0.0010 C.ar    
  12 C12           -2.2849     5.6483    -0.0733 C.ar    
  13 C13           -1.0880     6.3032     0.1301 C.ar    
  14 C14            0.0687     5.5732     0.4103 C.ar    
  15 C15            0.0088     4.1806     0.4894 C.ar    
  16 F16           -3.5192     3.6315    -0.2021 F       
  17 C17            1.3516     6.2728     0.6279 C.2     
  18 O18            2.3942     5.7526     0.2809 O.2     
  19 N19            1.3661     7.4878     1.2110 N.am    
  20 C20            0.1297     8.0786     1.7409 C.3     
  21 C21            0.3592     8.4737     3.2031 C.3     
  22 C22            1.5824     9.3889     3.2941 C.3     
  23 C23            2.8204     8.6396     2.7961 C.3     
  24 C24            2.6198     8.2440     1.3343 C.3     
  25 F25            1.3751    10.5240     2.5030 F       
  26 C26            1.7911     9.8071     4.7268 C.ar    
  27 C27            2.6305    10.8674     5.0193 C.ar    
  28 C28            2.8261    11.2555     6.3286 C.ar    
  29 C29            2.1742    10.5759     7.3596 C.ar    
  30 C30            1.3282     9.5071     7.0571 C.ar    
  31 C31            1.1379     9.1327     5.7431 C.ar    
  32 C32            2.3729    10.9730     8.7210 C.1     
  33 N33            2.5305    11.2880     9.8010 N.1     
  34 N34           -0.4328    -4.1445     0.6512 N.3     
  35 C35           -1.7229    -4.5290     1.2536 C.3     
  36 C36           -1.7583    -5.7180     0.2832 C.3     
  37 C37           -0.8756    -4.8124    -0.5869 C.3     
  38 H38            1.7432    -0.4034    -0.6873 H       
  39 H39            1.6175    -2.8465    -0.3775 H       
  40 H40           -2.1934    -0.1077     1.0088 H       
  41 H41           -2.0653     1.7012     0.6718 H       
  42 H42           -3.1786     6.2148    -0.2899 H       
  43 H43           -1.0455     7.3808     0.0723 H       
  44 H44            0.8999     3.6117     0.7102 H       
  45 H45           -0.1308     8.9634     1.1599 H       
  46 H46           -0.6783     7.3494     1.6819 H       
  47 H47           -0.5179     9.0001     3.5797 H       
  48 H48            0.5302     7.5776     3.7995 H       
  49 H49            3.6952     9.2841     2.8831 H       
  50 H50            2.9682     7.7419     3.3964 H       
  51 H51            3.4543     7.6238     1.0072 H       
  52 H52            2.5666     9.1425     0.7195 H       
  53 H53            3.1340    11.3921     4.2209 H       
  54 H54            3.4821    12.0828     6.5556 H       
  55 H55            0.8209     8.9772     7.8497 H       
  56 H56            0.4806     8.3088     5.5074 H       
  57 H57           -1.6428    -4.8245     2.2997 H       
  58 H58           -2.5170    -3.8028     1.0797 H       
  59 H59           -1.2541    -6.6109     0.6529 H       
  60 H60           -2.7427    -5.9205    -0.1388 H       
  61 H61           -1.4435    -4.1618    -1.2520 H       
  62 H62           -0.0773    -5.3480    -1.1006 H       
@<TRIPOS>BOND
   1    1    2 1
   2    1    8 2
   3    1    9 am
   4    2    3 ar
   5    2    7 ar
   6    3    4 ar
   7    3   38 1
   8    4    5 ar
   9    4   39 1
  10    5    6 ar
  11    5   34 1
  12    6    7 ar
  13    7   40 1
  14    9   10 1
  15    9   41 1
  16   10   11 ar
  17   10   15 ar
  18   11   12 ar
  19   11   16 1
  20   12   13 ar
  21   12   42 1
  22   13   14 ar
  23   13   43 1
  24   14   15 ar
  25   14   17 1
  26   15   44 1
  27   17   18 2
  28   17   19 am
  29   19   20 1
  30   19   24 1
  31   20   21 1
  32   20   45 1
  33   20   46 1
  34   21   22 1
  35   21   47 1
  36   21   48 1
  37   22   23 1
  38   22   25 1
  39   22   26 1
  40   23   24 1
  41   23   49 1
  42   23   50 1
  43   24   51 1
  44   24   52 1
  45   26   27 ar
  46   26   31 ar
  47   27   28 ar
  48   27   53 1
  49   28   29 ar
  50   28   54 1
  51   29   30 ar
  52   29   32 1
  53   30   31 ar
  54   30   55 1
  55   31   56 1
  56   32   33 3
  57   34   35 1
  58   34   37 1
  59   35   36 1
  60   35   57 1
  61   35   58 1
  62   36   37 1
  63   36   59 1
  64   36   60 1
  65   37   61 1
  66   37   62 1

#	End of record

