#	Name: ASD03331446
#	Creating user name:	WinNT
#	Creation time:	15. 06. 2019 20:39

#	Modifying user name:	WinNT
#	Modification time:	15. 06. 2019 20:39

#	Program:	/corina/corina34_cracker 3.40 0067  02.08.2006

@<TRIPOS>MOLECULE
ASD03331446
  80   84    0    0    0
SMALL
NO_CHARGES


@<TRIPOS>ATOM
   1 N1            -1.0195     1.2087    -0.7729 N.am    
   2 C2            -1.0931    -0.2586    -0.7532 C.3     
   3 C3            -1.9314    -0.7263    -1.9470 C.3     
   4 C4            -1.3465    -0.1436    -3.2356 C.3     
   5 C5            -1.4004     1.3848    -3.1768 C.3     
   6 C6            -0.5560     1.8764    -1.9969 C.3     
   7 C7             0.0851    -0.5901    -3.3840 C.2     
   8 O8             0.9885     0.1540    -3.0661 O.2     
   9 N9             0.3615    -1.8165    -3.8699 N.am    
  10 N10           -2.1283    -0.6169    -4.3857 N.3     
  11 C11           -1.6344    -0.0263    -5.6368 C.3     
  12 C12           -2.5205    -0.4790    -6.7991 C.3     
  13 C13           -2.2406     0.1238    -8.1772 C.3     
  14 C14           -1.8723    -1.3332    -7.8905 C.3     
  15 C15           -1.3757     1.9287     0.3093 C.2     
  16 O16           -1.8425     1.3709     1.2841 O.2     
  17 N17           -1.6066     5.5616     0.4736 N.pl3   
  18 C18           -2.1719     4.3333     0.5711 C.2     
  19 C19           -1.1997     3.3911     0.3114 C.2     
  20 C20            0.0027     4.0968     0.0465 C.2     
  21 C21           -0.2767     5.4209     0.1528 C.2     
  22 C22           -3.6133     4.0474     0.9056 C.3     
  23 C23           -4.4349     3.9929    -0.3839 C.3     
  24 C24           -5.8982     3.7026    -0.0444 C.3     
  25 N25           -6.6850     3.6504    -1.2791 N.am    
  26 S26           -8.2058     2.9954    -1.2648 S.o2    
  27 O27           -8.6414     3.0914    -2.6140 O.2     
  28 O28           -8.0371     1.7315    -0.6376 O.2     
  29 C29           -9.1683     4.1088    -0.2044 C.3     
  30 C30            0.6866     6.5258    -0.0427 C.ar    
  31 C31            1.9259     6.4977     0.6008 C.ar    
  32 C32            2.8208     7.5320     0.4136 C.ar    
  33 C33            2.4913     8.5953    -0.4100 C.ar    
  34 C34            1.2640     8.6283    -1.0498 C.ar    
  35 C35            0.3634     7.5976    -0.8753 C.ar    
  36 Cl36           3.6216     9.8925    -0.6407 Cl      
  37 Cl37           2.3398     5.1654     1.6340 Cl      
  38 C38           -2.2723     6.7801     0.6633 C.ar    
  39 C39           -2.0782     7.5039     1.8322 C.ar    
  40 C40           -2.7351     8.7047     2.0167 C.ar    
  41 C41           -3.5862     9.1866     1.0377 C.ar    
  42 C42           -3.7817     8.4669    -0.1280 C.ar    
  43 C43           -3.1227     7.2683    -0.3197 C.ar    
  44 Cl44          -4.4104    10.6963     1.2725 Cl      
  45 H45           -0.0887    -0.6758    -0.8262 H       
  46 H46           -1.5616    -0.5885     0.1740 H       
  47 H47           -1.9143    -1.8149    -1.9994 H       
  48 H48           -2.9591    -0.3836    -1.8264 H       
  49 H49           -1.0052     1.7987    -4.1044 H       
  50 H50           -2.4331     1.7076    -3.0446 H       
  51 H51           -0.6702     2.9552    -1.8903 H       
  52 H52            0.4921     1.6333    -2.1713 H       
  53 H53           -0.3565    -2.3841    -4.1912 H       
  54 H54            1.2785    -2.1315    -3.8984 H       
  55 H55           -2.1245    -1.6246    -4.4354 H       
  56 H56           -1.6618     1.0607    -5.5611 H       
  57 H57           -0.6094    -0.3525    -5.8129 H       
  58 H58           -3.5588    -0.6910    -6.5439 H       
  59 H59           -3.0948     0.3081    -8.8288 H       
  60 H60           -1.4253     0.8429    -8.2558 H       
  61 H61           -0.8146    -1.5727    -7.7804 H       
  62 H62           -2.4841    -2.1075    -8.3534 H       
  63 H63            0.9612     3.6615    -0.1951 H       
  64 H64           -3.6835     3.0900     1.4219 H       
  65 H65           -4.0002     4.8369     1.5498 H       
  66 H66           -4.3647     4.9503    -0.9002 H       
  67 H67           -4.0479     3.2034    -1.0282 H       
  68 H68           -5.9684     2.7452     0.4719 H       
  69 H69           -6.2852     4.4921     0.5999 H       
  70 H70           -6.3150     3.9996    -2.1051 H       
  71 H71           -9.1614     5.1122    -0.6301 H       
  72 H72          -10.1952     3.7495    -0.1376 H       
  73 H73           -8.7266     4.1338     0.7918 H       
  74 H74            3.7794     7.5121     0.9107 H       
  75 H75            1.0127     9.4605    -1.6907 H       
  76 H76           -0.5916     7.6226    -1.3789 H       
  77 H77           -1.4144     7.1280     2.5967 H       
  78 H78           -2.5847     9.2678     2.9258 H       
  79 H79           -4.4467     8.8449    -0.8905 H       
  80 H80           -3.2718     6.7094    -1.2316 H       
@<TRIPOS>BOND
   1    1    2 1
   2    1    6 1
   3    1   15 am
   4    2    3 1
   5    2   45 1
   6    2   46 1
   7    3    4 1
   8    3   47 1
   9    3   48 1
  10    4    5 1
  11    4    7 1
  12    4   10 1
  13    5    6 1
  14    5   49 1
  15    5   50 1
  16    6   51 1
  17    6   52 1
  18    7    8 2
  19    7    9 am
  20    9   53 1
  21    9   54 1
  22   10   11 1
  23   10   55 1
  24   11   12 1
  25   11   56 1
  26   11   57 1
  27   12   13 1
  28   12   14 1
  29   12   58 1
  30   13   14 1
  31   13   59 1
  32   13   60 1
  33   14   61 1
  34   14   62 1
  35   15   16 2
  36   15   19 1
  37   17   18 1
  38   17   21 1
  39   17   38 1
  40   18   19 2
  41   18   22 1
  42   19   20 1
  43   20   21 2
  44   20   63 1
  45   21   30 1
  46   22   23 1
  47   22   64 1
  48   22   65 1
  49   23   24 1
  50   23   66 1
  51   23   67 1
  52   24   25 1
  53   24   68 1
  54   24   69 1
  55   25   26 am
  56   25   70 1
  57   26   27 2
  58   26   28 2
  59   26   29 1
  60   29   71 1
  61   29   72 1
  62   29   73 1
  63   30   31 ar
  64   30   35 ar
  65   31   32 ar
  66   31   37 1
  67   32   33 ar
  68   32   74 1
  69   33   34 ar
  70   33   36 1
  71   34   35 ar
  72   34   75 1
  73   35   76 1
  74   38   39 ar
  75   38   43 ar
  76   39   40 ar
  77   39   77 1
  78   40   41 ar
  79   40   78 1
  80   41   42 ar
  81   41   44 1
  82   42   43 ar
  83   42   79 1
  84   43   80 1

#	End of record

