#	Name: ASD03180081
#	Creating user name:	WinNT
#	Creation time:	15. 06. 2019 20:33

#	Modifying user name:	WinNT
#	Modification time:	15. 06. 2019 20:33

#	Program:	/corina/corina34_cracker 3.40 0067  02.08.2006

@<TRIPOS>MOLECULE
ASD03180081
  39   41    0    0    0
SMALL
NO_CHARGES


@<TRIPOS>ATOM
   1 C1            -0.0143     1.4200     0.2348 C.ar    
   2 C2            -1.2879    -0.1650     1.5099 C.ar    
   3 C3            -2.3851     0.0645     0.7012 C.ar    
   4 C4            -2.2979     0.9654    -0.3509 C.ar    
   5 C5            -1.1136     1.6478    -0.5815 C.ar    
   6 C6            -0.1045     0.5089     1.2804 C.ar    
   7 C7            -1.0199     2.6353    -1.7159 C.3     
   8 N8             1.1833     2.1017     0.0020 N.pl3   
   9 C9             2.3922     1.4294     0.0915 C.2     
  10 N10            3.5636     1.9803     0.0070 N.2     
  11 S11            2.5753    -0.3034     0.3451 S.3     
  12 C12            4.3280    -0.1276     0.3062 C.2     
  13 C13            4.6181     1.1729     0.1170 C.2     
  14 C14            6.0086     1.6711     0.0389 C.2     
  15 S15            7.4699     0.6952     0.1696 S.3     
  16 C16            8.4334     2.0926    -0.0339 C.2     
  17 N17            7.6874     3.1358    -0.1780 N.2     
  18 C18            6.3847     2.9539    -0.1512 C.2     
  19 C19            5.3974     4.0806    -0.3144 C.3     
  20 C20            9.9403     2.1047    -0.0431 C.3     
  21 O21           -3.3775     1.1899    -1.1450 O.3     
  22 C22           -4.5699     0.4640    -0.8393 C.3     
  23 H23           -1.3588    -0.8664     2.3281 H       
  24 H24           -3.3091    -0.4643     0.8830 H       
  25 H25            0.7515     0.3274     1.9135 H       
  26 H26           -1.3079     3.6248    -1.3609 H       
  27 H27            0.0045     2.6664    -2.0870 H       
  28 H28           -1.6886     2.3291    -2.5204 H       
  29 H29            1.1685     3.0453    -0.2221 H       
  30 H30            5.0464    -0.9261     0.4183 H       
  31 H31            5.1622     4.5021     0.6629 H       
  32 H32            5.8303     4.8540    -0.9489 H       
  33 H33            4.4856     3.7008    -0.7753 H       
  34 H34           10.2985     1.9629    -1.0628 H       
  35 H35           10.2983     3.0610     0.3381 H       
  36 H36           10.3140     1.2988     0.5886 H       
  37 H37           -5.3525     0.7360    -1.5476 H       
  38 H38           -4.3722    -0.6056    -0.9094 H       
  39 H39           -4.8945     0.7080     0.1722 H       
@<TRIPOS>BOND
   1    1    6 ar
   2    1    8 1
   3    1    5 ar
   4    2    3 ar
   5    2    6 ar
   6    2   23 1
   7    3    4 ar
   8    3   24 1
   9    4    5 ar
  10    4   21 1
  11    5    7 1
  12    6   25 1
  13    7   26 1
  14    7   27 1
  15    7   28 1
  16    8    9 1
  17    8   29 1
  18    9   11 1
  19    9   10 2
  20   10   13 1
  21   11   12 1
  22   12   13 2
  23   12   30 1
  24   13   14 1
  25   14   15 1
  26   14   18 2
  27   15   16 1
  28   16   17 2
  29   16   20 1
  30   17   18 1
  31   18   19 1
  32   19   31 1
  33   19   32 1
  34   19   33 1
  35   20   34 1
  36   20   35 1
  37   20   36 1
  38   21   22 1
  39   22   37 1
  40   22   38 1
  41   22   39 1

#	End of record

