#	Name: ASD01912236
#	Creating user name:	WinNT
#	Creation time:	15. 06. 2019 19:59

#	Modifying user name:	WinNT
#	Modification time:	15. 06. 2019 19:59

#	Program:	/corina/corina34_cracker 3.40 0067  02.08.2006

@<TRIPOS>MOLECULE
ASD01912236
  50   52    0    0    0
SMALL
NO_CHARGES


@<TRIPOS>ATOM
   1 C1            -0.0790     1.2333     0.1585 C.ar    
   2 C2             0.1525     0.2506    -0.7990 C.ar    
   3 C3             1.4318    -0.2522    -0.9510 C.ar    
   4 C4             2.4409     0.2463    -0.1373 C.ar    
   5 C5             2.1403     1.2214     0.7921 C.ar    
   6 N6             0.9100     1.6828     0.9153 N.ar    
   7 N7            -0.8618    -0.2078    -1.5716 N.pl3   
   8 O8            -0.6741    -1.1395    -2.3334 O.2     
   9 O9            -1.9614     0.3119    -1.5045 O.2     
  10 N10           -1.3588     1.7517     0.3180 N.3     
  11 C11           -1.3103     3.1845     0.6354 C.3     
  12 C12           -2.7252     3.7701     0.5634 C.3     
  13 C13           -3.6266     2.9430     1.4561 C.2     
  14 C14           -3.5777     1.4368     1.3071 C.3     
  15 C15           -2.1086     0.9995     1.3318 C.3     
  16 C16           -4.4351     3.5211     2.3431 C.2     
  17 C17           -5.2776     2.7160     3.1753 C.1     
  18 C18           -5.9682     2.0559     3.8576 C.1     
  19 C19           -7.6626     1.8454     5.6235 C.ar    
  20 C20           -6.8107     1.2507     4.6899 C.ar    
  21 C21           -6.7936    -0.1481     4.5799 C.ar    
  22 C22           -7.6246    -0.8804     5.4042 C.ar    
  23 C23           -8.4443    -0.2147     6.3087 C.ar    
  24 N24           -8.4383     1.1064     6.3894 N.ar    
  25 O25           -9.2627    -0.9298     7.1203 O.3     
  26 C26          -10.0819    -0.1915     8.0291 C.3     
  27 C27          -11.4175     0.1379     7.3594 C.3     
  28 C28          -10.3336    -1.0291     9.2845 C.3     
  29 H29            1.6414    -1.0156    -1.6856 H       
  30 H30            3.4506    -0.1255    -0.2307 H       
  31 H31            2.9220     1.6119     1.4268 H       
  32 H32           -0.9111     3.3209     1.6404 H       
  33 H33           -0.6688     3.6945    -0.0833 H       
  34 H34           -2.7134     4.8036     0.9094 H       
  35 H35           -3.0879     3.7298    -0.4637 H       
  36 H36           -4.1147     0.9682     2.1318 H       
  37 H37           -4.0319     1.1462     0.3598 H       
  38 H38           -2.0431    -0.0668     1.1156 H       
  39 H39           -1.6869     1.1975     2.3172 H       
  40 H40           -4.4552     4.5971     2.4345 H       
  41 H41           -7.6820     2.9208     5.7213 H       
  42 H42           -6.1470    -0.6395     3.8681 H       
  43 H43           -7.6380    -1.9588     5.3467 H       
  44 H44           -9.5758     0.7336     8.3049 H       
  45 H45          -12.0424     0.7010     8.0526 H       
  46 H46          -11.2382     0.7346     6.4650 H       
  47 H47          -11.9236    -0.7873     7.0835 H       
  48 H48           -9.3821    -1.2637     9.7615 H       
  49 H49          -10.9585    -0.4659     9.9777 H       
  50 H50          -10.8397    -1.9542     9.0086 H       
@<TRIPOS>BOND
   1    1    2 ar
   2    1    6 ar
   3    1   10 1
   4    2    3 ar
   5    2    7 1
   6    3    4 ar
   7    3   29 1
   8    4    5 ar
   9    4   30 1
  10    5    6 ar
  11    5   31 1
  12    7    8 2
  13    7    9 2
  14   10   11 1
  15   10   15 1
  16   11   12 1
  17   11   32 1
  18   11   33 1
  19   12   13 1
  20   12   34 1
  21   12   35 1
  22   13   14 1
  23   13   16 2
  24   14   15 1
  25   14   36 1
  26   14   37 1
  27   15   38 1
  28   15   39 1
  29   16   17 1
  30   16   40 1
  31   17   18 3
  32   18   20 1
  33   19   20 ar
  34   19   24 ar
  35   19   41 1
  36   20   21 ar
  37   21   22 ar
  38   21   42 1
  39   22   23 ar
  40   22   43 1
  41   23   24 ar
  42   23   25 1
  43   25   26 1
  44   26   27 1
  45   26   28 1
  46   26   44 1
  47   27   45 1
  48   27   46 1
  49   27   47 1
  50   28   48 1
  51   28   49 1
  52   28   50 1

#	End of record

