#	Name: ASD01913445
#	Creating user name:	WinNT
#	Creation time:	15. 06. 2019 20:01

#	Modifying user name:	WinNT
#	Modification time:	15. 06. 2019 20:01

#	Program:	/corina/corina34_cracker 3.40 0067  02.08.2006

@<TRIPOS>MOLECULE
ASD01913445
  36   38    0    0    0
SMALL
NO_CHARGES


@<TRIPOS>ATOM
   1 C1            -2.6123    -6.9911     0.9943 C.ar    
   2 C2            -3.0895    -6.2224    -0.0624 C.ar    
   3 C3            -3.4299    -6.8684    -1.2465 C.ar    
   4 N4            -3.2888    -8.1813    -1.3249 N.ar    
   5 C5            -2.8331    -8.8750    -0.3012 C.ar    
   6 N6            -2.5000    -8.2997     0.8368 N.ar    
   7 C7            -2.0891    -4.1301     0.1397 C.ar    
   8 C8            -2.1710    -2.7433     0.1749 C.ar    
   9 N9            -1.0709    -2.0169     0.2585 N.ar    
  10 C10            0.1100    -2.6054     0.3092 C.ar    
  11 C11            0.1987    -3.9934     0.2743 C.ar    
  12 N12           -0.9051    -4.7249     0.1904 N.ar    
  13 N13            1.4446    -4.6142     0.3269 N.am    
  14 C14            1.5256    -5.9577     0.3983 C.2     
  15 O15           -3.2202    -4.8750     0.0590 O.3     
  16 C16            2.8391    -6.6102     0.5813 C.ar    
  17 C17            3.9976    -5.8380     0.6805 C.ar    
  18 C18            5.2206    -6.4535     0.8517 C.ar    
  19 C19            5.3001    -7.8327     0.9246 C.ar    
  20 C20            4.1555    -8.6041     0.8265 C.ar    
  21 C21            2.9259    -8.0013     0.6614 C.ar    
  22 O22            0.5184    -6.6327     0.3122 O.2     
  23 C23            4.2519   -10.1059     0.9060 C.3     
  24 H24           -2.3334    -6.5257     1.9281 H       
  25 H25           -3.8043    -6.3063    -2.0892 H       
  26 H26           -2.7296    -9.9457    -0.3976 H       
  27 H27           -3.1353    -2.2587     0.1336 H       
  28 H28            1.0077    -2.0089     0.3776 H       
  29 H29            2.2539    -4.0797     0.3122 H       
  30 H30            3.9369    -4.7613     0.6230 H       
  31 H31            6.1178    -5.8572     0.9286 H       
  32 H32            6.2599    -8.3094     1.0583 H       
  33 H33            2.0333    -8.6045     0.5850 H       
  34 H34            4.1566   -10.4217     1.9449 H       
  35 H35            3.4523   -10.5531     0.3154 H       
  36 H36            5.2167   -10.4293     0.5151 H       
@<TRIPOS>BOND
   1    1    2 ar
   2    1    6 ar
   3    1   24 1
   4    2    3 ar
   5    2   15 1
   6    3    4 ar
   7    3   25 1
   8    4    5 ar
   9    5    6 ar
  10    5   26 1
  11    7    8 ar
  12    7   12 ar
  13    7   15 1
  14    8    9 ar
  15    8   27 1
  16    9   10 ar
  17   10   11 ar
  18   10   28 1
  19   11   12 ar
  20   11   13 1
  21   13   14 am
  22   13   29 1
  23   14   16 1
  24   14   22 2
  25   16   17 ar
  26   16   21 ar
  27   17   18 ar
  28   17   30 1
  29   18   19 ar
  30   18   31 1
  31   19   20 ar
  32   19   32 1
  33   20   21 ar
  34   20   23 1
  35   21   33 1
  36   23   34 1
  37   23   35 1
  38   23   36 1

#	End of record

