#	Name: ASD01900339
#	Creating user name:	WinNT
#	Creation time:	15. 06. 2019 19:51

#	Modifying user name:	WinNT
#	Modification time:	15. 06. 2019 19:51

#	Program:	/corina/corina34_cracker 3.40 0067  02.08.2006

@<TRIPOS>MOLECULE
ASD01900339
  38   40    0    0    0
SMALL
NO_CHARGES


@<TRIPOS>ATOM
   1 C1            -0.0168     1.3891     0.0097 C.ar    
   2 C2             0.0021    -0.0041     0.0020 C.ar    
   3 C3             1.2224    -0.6606    -0.0132 C.ar    
   4 C4             2.3820     0.0992    -0.0202 C.ar    
   5 C5             2.2884     1.4815    -0.0119 C.ar    
   6 N6             1.1169     2.0792     0.0026 N.ar    
   7 C7            -1.3131     2.1060     0.0197 C.2     
   8 O8            -2.3544     1.4790     0.0212 O.2     
   9 N9            -1.3378     3.4535     0.0271 N.am    
  10 N10           -4.0866     5.7298     0.0525 N.am    
  11 C11           -2.7427     5.4762     0.0448 C.2     
  12 C12           -2.5683     4.1341     0.0367 C.2     
  13 C13           -3.8517     3.5436     0.0395 C.2     
  14 C14           -4.7569     4.5428     0.0492 C.2     
  15 S15           -4.7846     7.2314     0.0702 S.o2    
  16 O16           -6.0849     7.0631     0.6180 O.2     
  17 O17           -3.8183     8.1166     0.6197 O.2     
  18 O18           -4.7576     8.5427    -3.5871 O.3     
  19 N19           -5.8539     8.0327    -3.5882 N.2     
  20 C20           -6.1329     7.4936    -2.4367 C.2     
  21 C21           -5.0109     7.7211    -1.6072 C.2     
  22 C22           -4.1506     8.4035    -2.4002 C.2     
  23 C23           -2.7809     8.9062    -2.0228 C.3     
  24 C24           -7.4009     6.7705    -2.0619 C.3     
  25 H25           -0.9212    -0.5644     0.0082 H       
  26 H26            1.2690    -1.7395    -0.0191 H       
  27 H27            3.3489    -0.3818    -0.0317 H       
  28 H28            3.1898     2.0763    -0.0170 H       
  29 H29           -0.5068     3.9539     0.0259 H       
  30 H30           -1.9574     6.2177     0.0448 H       
  31 H31           -4.0681     2.4856     0.0351 H       
  32 H32           -5.8302     4.4231     0.0537 H       
  33 H33           -2.3338     9.4172    -2.8754 H       
  34 H34           -2.8663     9.6005    -1.1869 H       
  35 H35           -2.1520     8.0643    -1.7330 H       
  36 H36           -7.2940     5.7093    -2.2864 H       
  37 H37           -7.5911     6.8991    -0.9963 H       
  38 H38           -8.2348     7.1802    -2.6318 H       
@<TRIPOS>BOND
   1    1    2 ar
   2    1    6 ar
   3    1    7 1
   4    2    3 ar
   5    2   25 1
   6    3    4 ar
   7    3   26 1
   8    4    5 ar
   9    4   27 1
  10    5    6 ar
  11    5   28 1
  12    7    8 2
  13    7    9 am
  14    9   12 1
  15    9   29 1
  16   10   11 1
  17   10   14 1
  18   10   15 am
  19   11   12 2
  20   11   30 1
  21   12   13 1
  22   13   14 2
  23   13   31 1
  24   14   32 1
  25   15   16 2
  26   15   17 2
  27   15   21 1
  28   18   19 1
  29   18   22 1
  30   19   20 2
  31   20   21 1
  32   20   24 1
  33   21   22 2
  34   22   23 1
  35   23   33 1
  36   23   34 1
  37   23   35 1
  38   24   36 1
  39   24   37 1
  40   24   38 1

#	End of record

