#	Name: ASD02198708
#	Creating user name:	WinNT
#	Creation time:	15. 06. 2019 20:20

#	Modifying user name:	WinNT
#	Modification time:	15. 06. 2019 20:20

#	Program:	/corina/corina34_cracker 3.40 0067  02.08.2006

@<TRIPOS>MOLECULE
ASD02198708
  53   57    0    0    0
SMALL
NO_CHARGES


@<TRIPOS>ATOM
   1 C1             0.2337     1.3898     0.0206 C.2     
   2 C2             0.2892     0.0914     0.4107 C.2     
   3 N3             1.4751    -0.5059     0.6648 N.pl3   
   4 N4             2.6027     0.0945     0.5586 N.2     
   5 C5             2.6918     1.3545     0.1893 C.2     
   6 C6             1.4550     2.0933    -0.1102 C.2     
   7 C7             1.4715    -1.8468     1.0642 C.ar    
   8 C8             2.1001    -2.2232     2.2505 C.ar    
   9 C9             2.0944    -3.5511     2.6433 C.ar    
  10 C10            1.4631    -4.5041     1.8556 C.ar    
  11 C11            0.8376    -4.1267     0.6733 C.ar    
  12 C12            0.8369    -2.8032     0.2824 C.ar    
  13 C13            4.0083     2.0147     0.0779 C.2     
  14 N14            4.5087     2.6474    -1.0252 N.pl3   
  15 N15            5.7821     3.1304    -0.6990 N.2     
  16 C16            6.0488     2.8098     0.5420 C.2     
  17 C17            4.9607     2.1138     1.0685 C.2     
  18 C18            3.8638     2.7873    -2.2607 C.ar    
  19 C19            3.9357     3.9901    -2.9509 C.ar    
  20 C20            3.2991     4.1248    -4.1691 C.ar    
  21 C21            2.5906     3.0633    -4.7017 C.ar    
  22 C22            2.5167     1.8644    -4.0166 C.ar    
  23 C23            3.1559     1.7216    -2.8006 C.ar    
  24 O24            1.4811     3.2648    -0.4573 O.2     
  25 N25            1.4570    -5.8459     2.2521 N.am    
  26 C26            0.7901    -6.8226     1.6131 C.2     
  27 C27            2.1830    -6.3690     3.4153 C.3     
  28 C28            2.2459    -7.8986     3.2083 C.3     
  29 C29            1.0142    -8.1470     2.3090 C.3     
  30 O30            0.1074    -6.6648     0.6231 O.2     
  31 O31            2.7179    -1.2886     3.0198 O.3     
  32 C32            3.3411    -1.7462     4.2216 C.3     
  33 H33           -0.7112     1.8695    -0.1876 H       
  34 H34           -0.6257    -0.4721     0.5199 H       
  35 H35            2.5809    -3.8452     3.5616 H       
  36 H36            0.3473    -4.8697     0.0618 H       
  37 H37            0.3498    -2.5122    -0.6366 H       
  38 H38            6.9594     3.0479     1.0716 H       
  39 H39            4.8816     1.7183     2.0704 H       
  40 H40            4.4886     4.8196    -2.5353 H       
  41 H41            3.3544     5.0601    -4.7062 H       
  42 H42            2.0936     3.1711    -5.6545 H       
  43 H43            1.9623     1.0373    -4.4350 H       
  44 H44            3.0981     0.7848    -2.2663 H       
  45 H45            3.1893    -5.9515     3.4509 H       
  46 H46            1.6439    -6.1345     4.3332 H       
  47 H47            3.1642    -8.1854     2.6958 H       
  48 H48            2.1502    -8.4250     4.1579 H       
  49 H49            0.1472    -8.4118     2.9142 H       
  50 H50            1.2254    -8.9297     1.5804 H       
  51 H51            4.1103    -2.4783     3.9759 H       
  52 H52            3.7954    -0.9017     4.7396 H       
  53 H53            2.5928    -2.2078     4.8658 H       
@<TRIPOS>BOND
   1    1    2 2
   2    1    6 1
   3    1   33 1
   4    2    3 1
   5    2   34 1
   6    3    4 1
   7    3    7 1
   8    4    5 2
   9    5    6 1
  10    5   13 1
  11    6   24 2
  12    7    8 ar
  13    7   12 ar
  14    8    9 ar
  15    8   31 1
  16    9   10 ar
  17    9   35 1
  18   10   11 ar
  19   10   25 1
  20   11   12 ar
  21   11   36 1
  22   12   37 1
  23   13   14 1
  24   13   17 2
  25   14   15 1
  26   14   18 1
  27   15   16 2
  28   16   17 1
  29   16   38 1
  30   17   39 1
  31   18   19 ar
  32   18   23 ar
  33   19   20 ar
  34   19   40 1
  35   20   21 ar
  36   20   41 1
  37   21   22 ar
  38   21   42 1
  39   22   23 ar
  40   22   43 1
  41   23   44 1
  42   25   27 1
  43   25   26 am
  44   26   30 2
  45   26   29 1
  46   27   28 1
  47   27   45 1
  48   27   46 1
  49   28   29 1
  50   28   47 1
  51   28   48 1
  52   29   49 1
  53   29   50 1
  54   31   32 1
  55   32   51 1
  56   32   52 1
  57   32   53 1

#	End of record

