#	Name: ASD01790014
#	Creating user name:	WinNT
#	Creation time:	15. 06. 2019 19:23

#	Modifying user name:	WinNT
#	Modification time:	15. 06. 2019 19:23

#	Program:	/corina/corina34_cracker 3.40 0067  02.08.2006

@<TRIPOS>MOLECULE
ASD01790014
  40   42    0    0    0
SMALL
NO_CHARGES


@<TRIPOS>ATOM
   1 C1            -0.0168     1.3900     0.0097 C.ar    
   2 C2             0.0021    -0.0041     0.0020 C.ar    
   3 C3            -1.1889    -0.7178     0.0100 C.ar    
   4 C4            -2.3948    -0.0518     0.0256 C.ar    
   5 C5            -2.4212     1.3456     0.0334 C.ar    
   6 C6            -1.2221     2.0641     0.0306 C.ar    
   7 O7             1.1516     2.0859     0.0023 O.3     
   8 O8             1.1880    -0.6653    -0.0138 O.3     
   9 C9            -3.7111     2.0603     0.0501 C.2     
  10 O10           -4.8659     1.3661     0.0579 O.3     
  11 O11           -3.7324     3.2751     0.0568 O.2     
  12 C12           -6.0973     2.1353     0.0743 C.3     
  13 C13           -7.2362     1.3537    -0.6493 C.3     
  14 C14           -7.1778    -0.0784    -0.0354 C.3     
  15 C15           -7.6843     0.0970     1.4145 C.3     
  16 C16           -8.0010     1.6185     1.5401 C.3     
  17 C17           -6.6039     2.3107     1.5242 C.3     
  18 C18           -8.4970     1.9327     0.0845 C.3     
  19 C19           -8.6603     3.4351    -0.1542 C.3     
  20 C20           -9.7703     1.1608    -0.2669 C.3     
  21 H21           -1.1699    -1.7976     0.0037 H       
  22 H22           -3.3197    -0.6094     0.0315 H       
  23 H23           -1.2382     3.1440     0.0366 H       
  24 H24            1.4811     2.2919    -0.8832 H       
  25 H25            1.5406    -0.8616     0.8650 H       
  26 H26           -5.9442     3.1063    -0.3966 H       
  27 H27           -7.2326     1.4060    -1.7380 H       
  28 H28           -7.8307    -0.7551    -0.5867 H       
  29 H29           -6.1536    -0.4514    -0.0376 H       
  30 H30           -8.5862    -0.4935     1.5760 H       
  31 H31           -6.9092    -0.1898     2.1251 H       
  32 H32           -8.6636     1.9014     2.3581 H       
  33 H33           -5.9285     1.8194     2.2247 H       
  34 H34           -6.7012     3.3687     1.7674 H       
  35 H35           -7.7077     3.9361     0.0185 H       
  36 H36           -8.9801     3.6071    -1.1820 H       
  37 H37           -9.4092     3.8326     0.5307 H       
  38 H38          -10.5711     1.4521     0.4127 H       
  39 H39          -10.0625     1.3894    -1.2919 H       
  40 H40           -9.5845     0.0909    -0.1721 H       
@<TRIPOS>BOND
   1    1    2 ar
   2    1    7 1
   3    1    6 ar
   4    2    3 ar
   5    2    8 1
   6    3    4 ar
   7    3   21 1
   8    4    5 ar
   9    4   22 1
  10    5    6 ar
  11    5    9 1
  12    6   23 1
  13    7   24 1
  14    8   25 1
  15    9   10 1
  16    9   11 2
  17   10   12 1
  18   12   13 1
  19   12   17 1
  20   12   26 1
  21   13   14 1
  22   13   18 1
  23   13   27 1
  24   14   15 1
  25   14   28 1
  26   14   29 1
  27   15   16 1
  28   15   30 1
  29   15   31 1
  30   16   17 1
  31   16   18 1
  32   16   32 1
  33   17   33 1
  34   17   34 1
  35   18   19 1
  36   18   20 1
  37   19   35 1
  38   19   36 1
  39   19   37 1
  40   20   38 1
  41   20   39 1
  42   20   40 1

#	End of record

