#	Name: ASD02030431
#	Creating user name:	WinNT
#	Creation time:	15. 06. 2019 20:15

#	Modifying user name:	WinNT
#	Modification time:	15. 06. 2019 20:15

#	Program:	/corina/corina34_cracker 3.40 0067  02.08.2006

@<TRIPOS>MOLECULE
ASD02030431
  22   23    0    0    0
SMALL
NO_CHARGES


@<TRIPOS>ATOM
   1 C1            -0.0170     1.4028     0.0098 C.ar    
   2 C2             0.0021    -0.0041     0.0020 C.ar    
   3 C3             1.1939    -0.6618    -0.0128 C.ar    
   4 C4             2.3999     0.0389    -0.0205 C.ar    
   5 C5             2.4202     1.3996    -0.0134 C.ar    
   6 C6             1.2102     2.1149     0.0019 C.ar    
   7 C7             1.2009     3.5205     0.0089 C.ar    
   8 C8             0.0148     4.1945     0.0234 C.ar    
   9 C9            -1.2109     3.4951     0.0319 C.ar    
  10 C10           -1.2281     2.1091     0.0193 C.ar    
  11 Br11           1.2147    -2.5527    -0.0226 Br      
  12 O12            0.0136     5.5520     0.0301 O.3     
  13 C13           -2.4813     4.2435     0.0480 C.2     
  14 O14           -2.4707     5.4584     0.0540 O.2     
  15 O15           -3.6541     3.5799     0.0562 O.3     
  16 Br16           2.8321     4.4770    -0.0010 Br      
  17 H17           -0.9242    -0.5594     0.0082 H       
  18 H18            3.3319    -0.5067    -0.0319 H       
  19 H19            3.3622     1.9278    -0.0191 H       
  20 H20           -2.1679     1.5770     0.0209 H       
  21 H21            0.0050     5.9497    -0.8513 H       
  22 H22           -4.4604     4.1136     0.0668 H       
@<TRIPOS>BOND
   1    1    2 ar
   2    1    6 ar
   3    1   10 ar
   4    2    3 ar
   5    2   17 1
   6    3    4 ar
   7    3   11 1
   8    4    5 ar
   9    4   18 1
  10    5    6 ar
  11    5   19 1
  12    6    7 ar
  13    7    8 ar
  14    7   16 1
  15    8    9 ar
  16    8   12 1
  17    9   10 ar
  18    9   13 1
  19   10   20 1
  20   12   21 1
  21   13   14 2
  22   13   15 1
  23   15   22 1

#	End of record

