#	Name: ASD01901064
#	Creating user name:	WinNT
#	Creation time:	15. 06. 2019 19:53

#	Modifying user name:	WinNT
#	Modification time:	15. 06. 2019 19:53

#	Program:	/corina/corina34_cracker 3.40 0067  02.08.2006

@<TRIPOS>MOLECULE
ASD01901064
  40   42    0    0    0
SMALL
NO_CHARGES


@<TRIPOS>ATOM
   1 C1            -0.6134     1.7878     0.8219 C.ar    
   2 C2             0.4701     1.9119     1.6890 C.ar    
   3 C3             1.4358     0.9181     1.7060 C.ar    
   4 C4             1.2844    -0.1658     0.8550 C.ar    
   5 C5             0.1811    -0.2239     0.0189 C.ar    
   6 N6            -0.7208     0.7334     0.0229 N.ar    
   7 C7            -1.6574     2.8383     0.7959 C.2     
   8 O8            -1.5667     3.8034     1.5289 O.2     
   9 N9            -2.7079     2.7239    -0.0407 N.am    
  10 C10           -3.7421     3.6648     0.0025 C.ar    
  11 C11           -3.4586     4.9985     0.2677 C.ar    
  12 C12           -4.4814     5.9252     0.3097 C.ar    
  13 C13           -5.7881     5.5262     0.0879 C.ar    
  14 C14           -6.0732     4.1983    -0.1765 C.ar    
  15 C15           -5.0532     3.2682    -0.2254 C.ar    
  16 S16           -4.1229     7.6172     0.6466 S.o2    
  17 O17           -5.0058     8.0151     1.6864 O.2     
  18 O18           -2.7089     7.7153     0.7476 O.2     
  19 N19           -4.5573     8.4867    -0.6942 N.am    
  20 C20           -3.8457     8.3336    -1.8871 C.ar    
  21 C21           -3.7325     9.3995    -2.7726 C.ar    
  22 C22           -3.0281     9.2442    -3.9511 C.ar    
  23 C23           -2.4362     8.0303    -4.2497 C.ar    
  24 C24           -2.5475     6.9686    -3.3712 C.ar    
  25 C25           -3.2451     7.1186    -2.1881 C.ar    
  26 Cl26          -4.4758    10.9231    -2.3985 Cl      
  27 Cl27          -7.0716     6.6939     0.1420 Cl      
  28 H28            0.5564     2.7706     2.3383 H       
  29 H29            2.2872     0.9866     2.3670 H       
  30 H30            2.0194    -0.9570     0.8437 H       
  31 H31            0.0601    -1.0669    -0.6453 H       
  32 H32           -2.7468     1.9890    -0.6726 H       
  33 H33           -2.4393     5.3103     0.4412 H       
  34 H34           -7.0936     3.8896    -0.3492 H       
  35 H35           -5.2758     2.2326    -0.4362 H       
  36 H36           -5.3058     9.1022    -0.6515 H       
  37 H37           -2.9399    10.0714    -4.6398 H       
  38 H38           -1.8862     7.9114    -5.1715 H       
  39 H39           -2.0843     6.0221    -3.6078 H       
  40 H40           -3.3273     6.2899    -1.5003 H       
@<TRIPOS>BOND
   1    1    2 ar
   2    1    6 ar
   3    1    7 1
   4    2    3 ar
   5    2   28 1
   6    3    4 ar
   7    3   29 1
   8    4    5 ar
   9    4   30 1
  10    5    6 ar
  11    5   31 1
  12    7    8 2
  13    7    9 am
  14    9   10 1
  15    9   32 1
  16   10   11 ar
  17   10   15 ar
  18   11   12 ar
  19   11   33 1
  20   12   13 ar
  21   12   16 1
  22   13   14 ar
  23   13   27 1
  24   14   15 ar
  25   14   34 1
  26   15   35 1
  27   16   17 2
  28   16   18 2
  29   16   19 am
  30   19   20 1
  31   19   36 1
  32   20   21 ar
  33   20   25 ar
  34   21   22 ar
  35   21   26 1
  36   22   23 ar
  37   22   37 1
  38   23   24 ar
  39   23   38 1
  40   24   25 ar
  41   24   39 1
  42   25   40 1

#	End of record

