#	Name: ASD05490120
#	Creating user name:	WinNT
#	Creation time:	15. 06. 2019 21:01

#	Modifying user name:	WinNT
#	Modification time:	15. 06. 2019 21:01

#	Program:	/corina/corina34_cracker 3.40 0067  02.08.2006

@<TRIPOS>MOLECULE
ASD05490120
  75   80    0    0    0
SMALL
NO_CHARGES


@<TRIPOS>ATOM
   1 O1            -2.2741     1.9591     0.1882 O.2     
   2 N2            -0.0940     1.3580    -0.0766 N.am    
   3 O3             4.5869     2.1980    -0.7236 O.3     
   4 N4             3.0369     3.8998    -0.5648 N.ar    
   5 C5             1.7900     4.3414    -0.4114 C.ar    
   6 C6             3.3036     2.6036    -0.5644 C.ar    
   7 N7             2.3581     1.6911    -0.4125 N.ar    
   8 C8             1.0891     2.0521    -0.2535 C.ar    
   9 C9             0.7663     3.4097    -0.2489 C.ar    
  10 N10            1.5156     5.7013    -0.4129 N.pl3   
  11 C11           -1.1022     2.2448     0.0265 C.2     
  12 N12           -0.6137     3.4972    -0.0679 N.am    
  13 C13            5.5747     3.2182    -0.8829 C.3     
  14 C14            6.9522     2.5731    -1.0480 C.3     
  15 C15            7.9936     3.6570    -1.3431 C.3     
  16 C16            9.3795     3.0123    -1.4285 C.3     
  17 C17           -0.2288    -0.0996    -0.0175 C.3     
  18 C18           -0.0878    -0.5596     1.4106 C.ar    
  19 C19           -1.2069    -0.6542     2.2177 C.ar    
  20 C20           -1.0835    -1.0750     3.5266 C.ar    
  21 C21            0.1712    -1.4051     4.0341 C.ar    
  22 C22            1.2955    -1.3084     3.2163 C.ar    
  23 C23            1.1599    -0.8912     1.9079 C.ar    
  24 C24            0.3102    -1.8576     5.4405 C.ar    
  25 O25            9.6624     2.3302    -0.2051 O.3     
  26 C26            8.7487     1.2744     0.0991 C.3     
  27 C27            7.3374     1.8493     0.2459 C.3     
  28 C28           -0.3821    -2.9823     5.8847 C.ar    
  29 C29            1.1378    -1.1628     6.3200 C.ar    
  30 C30            1.2633    -1.5880     7.6271 C.ar    
  31 C31            0.5696    -2.7021     8.0642 C.ar    
  32 C32           -0.2493    -3.3987     7.1939 C.ar    
  33 C33            0.7115    -3.1622     9.4922 C.3     
  34 N34           -0.3074    -2.5051    10.3218 N.3     
  35 C35           -0.3573    -3.1022    11.6690 C.3     
  36 C36           -0.1213    -1.9631    12.6830 C.3     
  37 C37           -0.5164    -0.6947    11.8819 C.3     
  38 C38           -0.0285    -1.0596    10.4576 C.3     
  39 C39           -2.3038    -1.1767     4.4050 C.3     
  40 F40           -3.4108    -0.6545     3.7277 F       
  41 F41           -2.5407    -2.5189     4.7206 F       
  42 F42           -2.0925    -0.4511     5.5824 F       
  43 H43            2.2357     6.3412    -0.5264 H       
  44 H44            0.6037     6.0122    -0.3004 H       
  45 H45           -1.1320     4.3160    -0.0245 H       
  46 H46            5.3437     3.8128    -1.7667 H       
  47 H47            5.5779     3.8615    -0.0029 H       
  48 H48            6.9245     1.8600    -1.8719 H       
  49 H49            7.7576     4.1403    -2.2911 H       
  50 H50            7.9851     4.3977    -0.5435 H       
  51 H51            9.3993     2.3010    -2.2542 H       
  52 H52           10.1301     3.7848    -1.5960 H       
  53 H53           -1.2083    -0.3896    -0.3976 H       
  54 H54            0.5485    -0.5613    -0.6264 H       
  55 H55           -2.1791    -0.3981     1.8232 H       
  56 H56            2.2705    -1.5631     3.6046 H       
  57 H57            2.0305    -0.8158     1.2732 H       
  58 H58            8.7602     0.5404    -0.7066 H       
  59 H59            9.0448     0.7949     1.0321 H       
  60 H60            7.3156     2.5534     1.0776 H       
  61 H61            6.6322     1.0398     0.4342 H       
  62 H62           -1.0218    -3.5269     5.2061 H       
  63 H63            1.6804    -0.2932     5.9796 H       
  64 H64            1.9045    -1.0502     8.3097 H       
  65 H65           -0.7886    -4.2679     7.5404 H       
  66 H66            0.5779    -4.2429     9.5407 H       
  67 H67            1.7036    -2.9018     9.8610 H       
  68 H68           -1.3350    -3.5532    11.8388 H       
  69 H69            0.4236    -3.8560    11.7697 H       
  70 H70           -0.7641    -2.0840    13.5549 H       
  71 H71            0.9270    -1.9213    12.9786 H       
  72 H72           -1.5956    -0.5431    11.8980 H       
  73 H73            0.0056     0.1843    12.2601 H       
  74 H74            1.0404    -0.8687    10.3621 H       
  75 H75           -0.5842    -0.4940     9.7097 H       
@<TRIPOS>BOND
   1    1   11 2
   2    2   17 1
   3    2    8 1
   4    2   11 am
   5    3   13 1
   6    3    6 1
   7    4    5 ar
   8    4    6 ar
   9    5   10 1
  10    5    9 ar
  11    6    7 ar
  12    7    8 ar
  13    8    9 ar
  14    9   12 1
  15   10   43 1
  16   10   44 1
  17   11   12 am
  18   12   45 1
  19   13   14 1
  20   13   46 1
  21   13   47 1
  22   14   15 1
  23   14   27 1
  24   14   48 1
  25   15   16 1
  26   15   49 1
  27   15   50 1
  28   16   25 1
  29   16   51 1
  30   16   52 1
  31   17   18 1
  32   17   53 1
  33   17   54 1
  34   18   19 ar
  35   18   23 ar
  36   19   20 ar
  37   19   55 1
  38   20   21 ar
  39   20   39 1
  40   21   22 ar
  41   21   24 1
  42   22   23 ar
  43   22   56 1
  44   23   57 1
  45   24   28 ar
  46   24   29 ar
  47   25   26 1
  48   26   27 1
  49   26   58 1
  50   26   59 1
  51   27   60 1
  52   27   61 1
  53   28   32 ar
  54   28   62 1
  55   29   30 ar
  56   29   63 1
  57   30   31 ar
  58   30   64 1
  59   31   32 ar
  60   31   33 1
  61   32   65 1
  62   33   34 1
  63   33   66 1
  64   33   67 1
  65   34   35 1
  66   34   38 1
  67   35   36 1
  68   35   68 1
  69   35   69 1
  70   36   37 1
  71   36   70 1
  72   36   71 1
  73   37   38 1
  74   37   72 1
  75   37   73 1
  76   38   74 1
  77   38   75 1
  78   39   40 1
  79   39   41 1
  80   39   42 1

#	End of record

