#	Name: ASD02508083
#	Creating user name:	WinNT
#	Creation time:	15. 06. 2019 20:23

#	Modifying user name:	WinNT
#	Modification time:	15. 06. 2019 20:23

#	Program:	/corina/corina34_cracker 3.40 0067  02.08.2006

@<TRIPOS>MOLECULE
ASD02508083
  33   35    0    0    0
SMALL
NO_CHARGES


@<TRIPOS>ATOM
   1 C1             0.0251     1.4678    -0.1326 C.ar    
   2 C2             0.0191     0.0745     0.0338 C.ar    
   3 C3             1.2624     2.0991    -0.2647 C.ar    
   4 C4             2.4470     1.3860    -0.2348 C.ar    
   5 C5             2.4206     0.0088    -0.0701 C.ar    
   6 C6             1.1960    -0.6369     0.0650 C.ar    
   7 N7            -1.0638     2.3231    -0.1901 N.am    
   8 C8            -0.8422     3.6307    -0.3551 C.2     
   9 S9             0.9158     3.8235    -0.4544 S.3     
  10 N10            3.6135    -0.7230    -0.0388 N.am    
  11 S11            4.9637    -0.0756     0.6684 S.o2    
  12 C12            4.5910     0.1745     2.3723 C.ar    
  13 C13            4.8427    -0.8297     3.2910 C.ar    
  14 O14           -1.6797     4.5112    -0.4259 O.2     
  15 O15            5.9643    -1.0834     0.6203 O.2     
  16 O16            5.1337     1.2161     0.1011 O.2     
  17 C17           -2.4290     1.8048    -0.0731 C.3     
  18 Cl18           1.1522    -2.3600     0.2716 Cl      
  19 C19            4.0514     1.3775     2.7940 C.ar    
  20 C20            3.7589     1.5729     4.1332 C.ar    
  21 C21            4.0054     0.5674     5.0488 C.ar    
  22 C22            4.5493    -0.6321     4.6298 C.ar    
  23 F23            5.3740    -2.0025     2.8817 F       
  24 F24            3.8108     2.3607     1.8992 F       
  25 H25           -0.9214    -0.4458     0.1391 H       
  26 H26            3.3909     1.9003    -0.3399 H       
  27 H27            3.6492    -1.6093    -0.4314 H       
  28 H28           -2.7262     1.7975     0.9756 H       
  29 H29           -3.1091     2.4414    -0.6391 H       
  30 H30           -2.4675     0.7899    -0.4687 H       
  31 H31            3.3383     2.5116     4.4625 H       
  32 H32            3.7772     0.7208     6.0933 H       
  33 H33            4.7415    -1.4172     5.3462 H       
@<TRIPOS>BOND
   1    1    2 ar
   2    1    3 ar
   3    1    7 1
   4    2    6 ar
   5    2   25 1
   6    3    4 ar
   7    3    9 1
   8    4    5 ar
   9    4   26 1
  10    5    6 ar
  11    5   10 1
  12    6   18 1
  13    7    8 am
  14    7   17 1
  15    8    9 1
  16    8   14 2
  17   10   11 am
  18   10   27 1
  19   11   12 1
  20   11   15 2
  21   11   16 2
  22   12   13 ar
  23   12   19 ar
  24   13   23 1
  25   13   22 ar
  26   17   28 1
  27   17   29 1
  28   17   30 1
  29   19   20 ar
  30   19   24 1
  31   20   21 ar
  32   20   31 1
  33   21   22 ar
  34   21   32 1
  35   22   33 1

#	End of record

