#	Name: ASD05430241
#	Creating user name:	WinNT
#	Creation time:	15. 06. 2019 21:00

#	Modifying user name:	WinNT
#	Modification time:	15. 06. 2019 21:00

#	Program:	/corina/corina34_cracker 3.40 0067  02.08.2006

@<TRIPOS>MOLECULE
ASD05430241
  66   72    0    0    0
SMALL
NO_CHARGES


@<TRIPOS>ATOM
   1 C1            -0.0102     1.3700    -0.1561 C.ar    
   2 C2             0.0204    -0.0143    -0.3187 C.ar    
   3 C3             1.2358    -0.6829    -0.3835 C.ar    
   4 C4             2.4181     0.0186    -0.2870 C.ar    
   5 C5             2.3956     1.4080    -0.1237 C.ar    
   6 C6             1.1713     2.0810    -0.0589 C.ar    
   7 O7             4.8740     0.1404     0.2371 O.3     
   8 C8             4.8323     1.4969     0.0682 C.2     
   9 C9             3.6562     2.1589    -0.0200 C.2     
  10 C10            6.1002    -0.4003     0.7404 C.3     
  11 C11            6.9407     0.5467     1.6070 C.3     
  12 N12            7.1388     1.7931     0.8613 N.pl3   
  13 C13            6.1209     2.2088    -0.0135 C.2     
  14 N14            6.3308     3.1538    -0.8733 N.2     
  15 N15           -1.1801    -0.7340    -0.4166 N.pl3   
  16 C16           -1.5012    -1.6556    -1.3788 C.2     
  17 C17           -2.7410    -2.0995    -1.0957 C.2     
  18 N18           -3.1693    -1.4693     0.0078 N.2     
  19 C19           -2.2407    -0.6530     0.4274 C.2     
  20 C20           -3.5135    -3.1260    -1.8834 C.3     
  21 C21            6.1241    -1.8872     1.0958 C.3     
  22 C22            6.8534    -1.3874    -0.1530 C.3     
  23 C23           -1.1587     3.4399     0.0691 C.3     
  24 O24           -1.2021     2.0215    -0.0987 O.3     
  25 C25            8.3292     2.6150     1.0191 C.3     
  26 C26            8.7630     3.1743    -0.3341 C.3     
  27 N27            7.5961     3.7317    -1.0253 N.pl3   
  28 C28            8.1127     3.7161     2.0129 C.ar    
  29 C29            9.2243     3.7498     2.8658 C.ar    
  30 N30           10.1535     2.7789     2.5159 N.3     
  31 C31            9.4751     1.7907     1.6417 C.3     
  32 C32            7.0560     4.5936     2.1551 C.ar    
  33 C33            7.1347     5.5194     3.1885 C.ar    
  34 C34            9.2916     4.6830     3.9014 C.ar    
  35 C35            8.2240     5.5600     4.0378 C.ar    
  36 F36            8.2510     6.4786     5.0281 F       
  37 C37           10.7117     2.1299     3.7097 C.3     
  38 H38            1.2545    -1.7554    -0.5095 H       
  39 H39            3.3618    -0.5041    -0.3370 H       
  40 H40            1.1490     3.1534     0.0667 H       
  41 H41            3.6426     3.2388    -0.0142 H       
  42 H42            6.4160     0.7552     2.5394 H       
  43 H43            7.9063     0.0891     1.8220 H       
  44 H44           -0.8796    -1.9661    -2.2056 H       
  45 H45           -2.3080    -0.0146     1.2959 H       
  46 H46           -3.2996    -4.1206    -1.4921 H       
  47 H47           -4.5809    -2.9231    -1.7961 H       
  48 H48           -3.2189    -3.0769    -2.9317 H       
  49 H49            6.7336    -2.1916     1.9467 H       
  50 H50            5.2051    -2.4546     0.9487 H       
  51 H51            6.4141    -1.6258    -1.1216 H       
  52 H52            7.9427    -1.3628    -0.1237 H       
  53 H53           -2.1747     3.8335     0.0989 H       
  54 H54           -0.6485     3.6800     1.0019 H       
  55 H55           -0.6198     3.8883    -0.7656 H       
  56 H56            9.5050     3.9583    -0.1827 H       
  57 H57            9.1952     2.3752    -0.9364 H       
  58 H58            7.7025     4.5098    -1.5947 H       
  59 H59            9.0798     0.9623     2.2297 H       
  60 H60           10.1538     1.4282     0.8696 H       
  61 H61            6.2047     4.5619     1.4913 H       
  62 H62            6.3274     6.2226     3.3306 H       
  63 H63           10.1393     4.7211     4.5695 H       
  64 H64            9.9085     1.6594     4.2766 H       
  65 H65           11.4348     1.3725     3.4070 H       
  66 H66           11.2062     2.8764     4.3313 H       
@<TRIPOS>BOND
   1    1    2 ar
   2    1    6 ar
   3    1   24 1
   4    2    3 ar
   5    2   15 1
   6    3    4 ar
   7    3   38 1
   8    4    5 ar
   9    4   39 1
  10    5    6 ar
  11    5    9 1
  12    6   40 1
  13    7    8 1
  14    7   10 1
  15    8    9 2
  16    8   13 1
  17    9   41 1
  18   10   11 1
  19   10   21 1
  20   10   22 1
  21   11   12 1
  22   11   42 1
  23   11   43 1
  24   12   13 1
  25   12   25 1
  26   13   14 2
  27   14   27 1
  28   15   16 1
  29   15   19 1
  30   16   17 2
  31   16   44 1
  32   17   18 1
  33   17   20 1
  34   18   19 2
  35   19   45 1
  36   20   46 1
  37   20   47 1
  38   20   48 1
  39   21   22 1
  40   21   49 1
  41   21   50 1
  42   22   51 1
  43   22   52 1
  44   23   24 1
  45   23   53 1
  46   23   54 1
  47   23   55 1
  48   25   26 1
  49   25   28 1
  50   25   31 1
  51   26   27 1
  52   26   56 1
  53   26   57 1
  54   27   58 1
  55   28   29 ar
  56   28   32 ar
  57   29   30 1
  58   29   34 ar
  59   30   31 1
  60   30   37 1
  61   31   59 1
  62   31   60 1
  63   32   33 ar
  64   32   61 1
  65   33   35 ar
  66   33   62 1
  67   34   35 ar
  68   34   63 1
  69   35   36 1
  70   37   64 1
  71   37   65 1
  72   37   66 1

#	End of record

