#	Name: ASD00061029
#	Creating user name:	WinNT
#	Creation time:	15. 06. 2019 18:29

#	Modifying user name:	WinNT
#	Modification time:	15. 06. 2019 18:29

#	Program:	/corina/corina34_cracker 3.40 0067  02.08.2006

@<TRIPOS>MOLECULE
ASD00061029
  39   40    0    0    0
SMALL
NO_CHARGES


@<TRIPOS>ATOM
   1 C1            -0.4212     3.9415    -0.3672 C.ar    
   2 C2            -0.9388     2.6608    -0.4658 C.ar    
   3 C3            -0.0938     1.5637    -0.4756 C.ar    
   4 C4             1.2706     1.7395    -0.3870 C.ar    
   5 C5             1.8009     3.0300    -0.2871 C.ar    
   6 C6             0.9410     4.1332    -0.2780 C.ar    
   7 C7             3.2559     3.2260    -0.1917 C.2     
   8 C8             3.8233     4.6180    -0.0843 C.3     
   9 O9             3.9986     2.2675    -0.1996 O.2     
  10 C10            5.3340     4.5368     0.1439 C.3     
  11 C11            5.9212     5.9244     0.1182 C.ar    
  12 C12            6.8850     6.2496    -0.8180 C.ar    
  13 C13            7.4239     7.5221    -0.8421 C.ar    
  14 C14            6.9987     8.4705     0.0710 C.ar    
  15 C15            6.0341     8.1445     1.0077 C.ar    
  16 C16            5.4918     6.8734     1.0271 C.ar    
  17 I17           -3.0108     2.3816    -0.6003 I       
  18 Cl18           7.6755    10.0689     0.0417 Cl      
  19 C19            5.6105     3.8911     1.5032 C.3     
  20 C20            7.0916     3.9178     1.7800 C.2     
  21 O21            7.5093     4.4464     2.7830 O.2     
  22 O22            7.9468     3.3542     0.9124 O.3     
  23 C23            4.8844     4.6560     2.5796 C.2     
  24 O24            5.4720     5.4863     3.2317 O.2     
  25 O25            3.5849     4.4149     2.8140 O.3     
  26 H26           -1.0862     4.7925    -0.3647 H       
  27 H27           -0.5047     0.5679    -0.5524 H       
  28 H28            1.9284     0.8829    -0.3944 H       
  29 H29            1.3432     5.1325    -0.2015 H       
  30 H30            3.6239     5.1638    -1.0065 H       
  31 H31            3.3567     5.1369     0.7531 H       
  32 H32            5.7885     3.9352    -0.6432 H       
  33 H33            7.2171     5.5090    -1.5305 H       
  34 H34            8.1771     7.7759    -1.5733 H       
  35 H35            5.7017     8.8845     1.7207 H       
  36 H36            4.7388     6.6188     1.7583 H       
  37 H37            5.2613     2.8586     1.4927 H       
  38 H38            8.8905     3.4611     1.0940 H       
  39 H39            3.1621     4.9304     3.5145 H       
@<TRIPOS>BOND
   1    1    2 ar
   2    1    6 ar
   3    1   26 1
   4    2    3 ar
   5    2   17 1
   6    3    4 ar
   7    3   27 1
   8    4    5 ar
   9    4   28 1
  10    5    6 ar
  11    5    7 1
  12    6   29 1
  13    7    8 1
  14    7    9 2
  15    8   10 1
  16    8   30 1
  17    8   31 1
  18   10   11 1
  19   10   19 1
  20   10   32 1
  21   11   12 ar
  22   11   16 ar
  23   12   13 ar
  24   12   33 1
  25   13   14 ar
  26   13   34 1
  27   14   15 ar
  28   14   18 1
  29   15   16 ar
  30   15   35 1
  31   16   36 1
  32   19   20 1
  33   19   23 1
  34   19   37 1
  35   20   21 2
  36   20   22 1
  37   22   38 1
  38   23   24 2
  39   23   25 1
  40   25   39 1

#	End of record

