#	Name: ASD01948067
#	Creating user name:	WinNT
#	Creation time:	15. 06. 2019 20:13

#	Modifying user name:	WinNT
#	Modification time:	15. 06. 2019 20:13

#	Program:	/corina/corina34_cracker 3.40 0067  02.08.2006

@<TRIPOS>MOLECULE
ASD01948067
  39   39    0    0    0
SMALL
NO_CHARGES


@<TRIPOS>ATOM
   1 C1            -0.0188     1.5336     0.0105 C.3     
   2 C2             0.0021    -0.0041     0.0020 C.3     
   3 C3             1.3941     0.0896     0.6488 C.3     
   4 C4             1.5179     1.4762    -0.0045 C.3     
   5 S5            -0.7335     2.2589    -1.4908 S.o2    
   6 O6             0.0533     1.9291    -2.6272 O.2     
   7 O7            -2.1445     2.0907    -1.5028 O.2     
   8 O8            -0.5357     3.7582    -1.3195 O.3     
   9 C9             0.6922    -1.1377     2.7088 C.3     
  10 C10            1.3578     0.1335     2.1778 C.3     
  11 C11            2.7857     0.2259     2.7194 C.3     
  12 O12            2.7474     0.3840     4.1391 O.3     
  13 O13            0.5530    -1.0452     4.1280 O.3     
  14 C14            0.8089     4.1947    -1.5286 C.3     
  15 C15            0.8897     5.7098    -1.3316 C.3     
  16 C16            2.3293     6.1771    -1.5555 C.3     
  17 C17            2.4102     7.6922    -1.3585 C.3     
  18 H18           -0.4309     1.9596     0.9252 H       
  19 H19           -0.7506    -0.4545     0.6490 H       
  20 H20            0.0139    -0.4351    -0.9991 H       
  21 H21            2.1053    -0.6404     0.2621 H       
  22 H22            1.9441     1.4499    -1.0074 H       
  23 H23            1.9889     2.2208     0.6373 H       
  24 H24           -0.2919    -1.2498     2.2537 H       
  25 H25            1.3083    -2.0017     2.4597 H       
  26 H26            0.7888     1.0045     2.5028 H       
  27 H27            3.3287    -0.6858     2.4699 H       
  28 H28            3.2894     1.0827     2.2718 H       
  29 H29            3.6197     0.4496     4.5512 H       
  30 H30            0.1375    -1.8184     4.5337 H       
  31 H31            1.4668     3.6998    -0.8143 H       
  32 H32            1.1189     3.9431    -2.5429 H       
  33 H33            0.2318     6.2047    -2.0459 H       
  34 H34            0.5797     5.9613    -0.3174 H       
  35 H35            2.9873     5.6822    -0.8412 H       
  36 H36            2.6394     5.9255    -2.5698 H       
  37 H37            1.7522     8.1871    -2.0728 H       
  38 H38            2.1001     7.9437    -0.3443 H       
  39 H39            3.4357     8.0251    -1.5180 H       
@<TRIPOS>BOND
   1    1    2 1
   2    1    4 1
   3    1    5 1
   4    1   18 1
   5    2    3 1
   6    2   19 1
   7    2   20 1
   8    3    4 1
   9    3   10 1
  10    3   21 1
  11    4   22 1
  12    4   23 1
  13    5    6 2
  14    5    7 2
  15    5    8 1
  16    8   14 1
  17    9   10 1
  18    9   13 1
  19    9   24 1
  20    9   25 1
  21   10   11 1
  22   10   26 1
  23   11   12 1
  24   11   27 1
  25   11   28 1
  26   12   29 1
  27   13   30 1
  28   14   15 1
  29   14   31 1
  30   14   32 1
  31   15   16 1
  32   15   33 1
  33   15   34 1
  34   16   17 1
  35   16   35 1
  36   16   36 1
  37   17   37 1
  38   17   38 1
  39   17   39 1

#	End of record

