#	Name: ASD01120033
#	Creating user name:	WinNT
#	Creation time:	15. 06. 2019 18:58

#	Modifying user name:	WinNT
#	Modification time:	15. 06. 2019 18:58

#	Program:	/corina/corina34_cracker 3.40 0067  02.08.2006

@<TRIPOS>MOLECULE
ASD01120033
  49   52    0    0    0
SMALL
NO_CHARGES


@<TRIPOS>ATOM
   1 C1            -0.0905     1.3501     0.6498 C.ar    
   2 C2            -0.0523    -0.0391     0.4659 C.ar    
   3 C3            -1.1845    -0.7311     0.0966 C.ar    
   4 C4            -2.3851    -0.0371    -0.0960 C.ar    
   5 C5            -2.4161     1.3670     0.0922 C.ar    
   6 C6            -1.2524     2.0461     0.4722 C.ar    
   7 N7            -3.5158    -0.6645    -0.4564 N.ar    
   8 C8            -4.6257     0.0128    -0.6300 C.ar    
   9 N9            -4.7020     1.3239    -0.4661 N.ar    
  10 C10           -3.6440     2.0408    -0.1103 C.ar    
  11 N11           -3.7382     3.4079     0.0575 N.pl3   
  12 C12           -4.9822     4.0392    -0.0332 C.ar    
  13 O13            1.0404     2.0114     1.0145 O.3     
  14 O14            1.1140    -0.7099     0.6536 O.3     
  15 C15           -6.1283     3.3761     0.3791 C.ar    
  16 C16           -7.3650     4.0089     0.2868 C.ar    
  17 C17           -7.4445     5.3048    -0.2193 C.ar    
  18 C18           -6.2988     5.9587    -0.6278 C.ar    
  19 C19           -5.0702     5.3339    -0.5314 C.ar    
  20 C20           -8.5957     3.3049     0.7258 C.2     
  21 C21            0.9377     3.4263     1.1864 C.3     
  22 C22            2.3002     3.9908     1.5936 C.3     
  23 C23            1.0888    -2.1242     0.4509 C.3     
  24 C24            2.4827    -2.7010     0.7064 C.3     
  25 N25           -8.6563     2.0862     1.2192 N.2     
  26 N26           -9.9968     1.7991     1.5067 N.pl3   
  27 C27          -10.7385     2.8771     1.1731 C.2     
  28 C28           -9.9041     3.8251     0.6937 C.2     
  29 H29           -1.1463    -1.8013    -0.0437 H       
  30 H30           -1.2714     3.1162     0.6171 H       
  31 H31           -5.5172    -0.5235    -0.9200 H       
  32 H32           -2.9412     3.9304     0.2383 H       
  33 H33           -6.0618     2.3716     0.7703 H       
  34 H34           -8.4025     5.7980    -0.2923 H       
  35 H35           -6.3628     6.9629    -1.0201 H       
  36 H36           -4.1771     5.8496    -0.8519 H       
  37 H37            0.6200     3.8840     0.2496 H       
  38 H38            0.2064     3.6456     1.9644 H       
  39 H39            2.6179     3.5331     2.5304 H       
  40 H40            3.0315     3.7714     0.8157 H       
  41 H41            2.2219     5.0700     1.7247 H       
  42 H42            0.3761    -2.5774     1.1401 H       
  43 H43            0.7891    -2.3390    -0.5749 H       
  44 H44            2.4634    -3.7798     0.5518 H       
  45 H45            3.1953    -2.2479     0.0173 H       
  46 H46            2.7823    -2.4862     1.7322 H       
  47 H47          -10.3339     0.9698     1.8802 H       
  48 H48          -11.8099     2.9671     1.2756 H       
  49 H49          -10.1902     4.8055     0.3423 H       
@<TRIPOS>BOND
   1    1    2 ar
   2    1   13 1
   3    1    6 ar
   4    2    3 ar
   5    2   14 1
   6    3    4 ar
   7    3   29 1
   8    4    5 ar
   9    4    7 ar
  10    5    6 ar
  11    5   10 ar
  12    6   30 1
  13    7    8 ar
  14    8    9 ar
  15    8   31 1
  16    9   10 ar
  17   10   11 1
  18   11   12 1
  19   11   32 1
  20   12   15 ar
  21   12   19 ar
  22   13   21 1
  23   14   23 1
  24   15   16 ar
  25   15   33 1
  26   16   17 ar
  27   16   20 1
  28   17   18 ar
  29   17   34 1
  30   18   19 ar
  31   18   35 1
  32   19   36 1
  33   20   25 2
  34   20   28 1
  35   21   22 1
  36   21   37 1
  37   21   38 1
  38   22   39 1
  39   22   40 1
  40   22   41 1
  41   23   24 1
  42   23   42 1
  43   23   43 1
  44   24   44 1
  45   24   45 1
  46   24   46 1
  47   25   26 1
  48   26   27 1
  49   26   47 1
  50   27   28 2
  51   27   48 1
  52   28   49 1

#	End of record

