#	Name: ASD05430018
#	Creating user name:	WinNT
#	Creation time:	15. 06. 2019 20:59

#	Modifying user name:	WinNT
#	Modification time:	15. 06. 2019 20:59

#	Program:	/corina/corina34_cracker 3.40 0067  02.08.2006

@<TRIPOS>MOLECULE
ASD05430018
  70   76    0    0    0
SMALL
NO_CHARGES


@<TRIPOS>ATOM
   1 C1             0.6725    -0.5465     0.1869 C.ar    
   2 C2             0.8702    -1.5968    -0.6799 C.ar    
   3 C3             2.0867    -1.7328    -1.3458 C.ar    
   4 C4             3.0749    -0.8011    -1.1177 C.ar    
   5 C5             2.8653     0.2647    -0.2487 C.ar    
   6 C6             1.6307     0.4260     0.4289 C.ar    
   7 C7             5.6180    -0.6268    -0.1239 C.3     
   8 C8             5.2287     0.8408    -0.0439 C.2     
   9 C9             3.9441     1.2419    -0.0291 C.2     
  10 C10            6.8012    -0.8554     0.8258 C.3     
  11 C11            8.0469    -0.0049     0.5457 C.3     
  12 N12            7.6376     1.3883     0.3826 N.pl3   
  13 C13            6.3544     1.7991     0.0162 C.2     
  14 C14            8.4223     2.6106     0.5713 C.3     
  15 O15            7.6494     3.6086    -0.1276 O.3     
  16 N16            6.3441     3.0623    -0.2565 N.2     
  17 C17            8.5323     2.9516     2.0351 C.ar    
  18 C18            8.4073     1.9571     2.9873 C.ar    
  19 C19            9.8098     2.4642    -0.0566 C.3     
  20 N20           -0.1518    -2.5300    -0.8926 N.pl3   
  21 C21           -1.4250    -2.2589    -1.2819 C.2     
  22 C22           -0.0553    -3.8907    -0.7533 C.2     
  23 C23           -1.2648    -4.4002    -1.0540 C.2     
  24 N24           -2.0802    -3.3839    -1.3727 N.2     
  25 C25           -1.6367    -5.8605    -1.0400 C.3     
  26 C26            1.2724     1.5604     1.3546 C.3     
  27 C27            0.1116     1.2516     2.3319 C.3     
  28 Si28          -0.7810    -0.0579     1.2911 Si      
  29 C29           -2.1777     0.6812     0.3043 C.3     
  30 C30           -1.3642    -1.4869     2.3344 C.3     
  31 C31            6.4839    -1.1861     2.2836 C.3     
  32 C32            7.0197    -2.2744     1.3508 C.3     
  33 C33            8.5084     2.2686     4.3299 C.ar    
  34 C34            8.7351     3.5772     4.7213 C.ar    
  35 C35            8.8602     4.5724     3.7668 C.ar    
  36 C36            8.7639     4.2577     2.4245 C.ar    
  37 F37            8.8338     3.8829     6.0335 F       
  38 H38            2.2517    -2.5538    -2.0277 H       
  39 H39            4.0258    -0.8995    -1.6203 H       
  40 H40            4.7760    -1.2486     0.1802 H       
  41 H41            5.9110    -0.8752    -1.1440 H       
  42 H42            3.7048     2.2808     0.1440 H       
  43 H43            8.7408    -0.0864     1.3824 H       
  44 H44            8.5296    -0.3534    -0.3674 H       
  45 H45            8.2301     0.9365     2.6817 H       
  46 H46            9.7068     2.2730    -1.1248 H       
  47 H47           10.3760     3.3832     0.0950 H       
  48 H48           10.3350     1.6323     0.4125 H       
  49 H49           -1.8276    -1.2769    -1.4821 H       
  50 H50            0.8225    -4.4469    -0.4591 H       
  51 H51           -2.0055    -6.1321    -0.0508 H       
  52 H52           -2.4148    -6.0444    -1.7809 H       
  53 H53           -0.7590    -6.4614    -1.2781 H       
  54 H54            2.1551     1.8219     1.9383 H       
  55 H55            0.9950     2.4245     0.7508 H       
  56 H56            0.4771     0.8371     3.2714 H       
  57 H57           -0.5155     2.1272     2.5001 H       
  58 H58           -1.7840     1.4438    -0.3677 H       
  59 H59           -2.6642    -0.1008    -0.2787 H       
  60 H60           -2.9021     1.1330     0.9820 H       
  61 H61           -2.1200    -1.1383     3.0382 H       
  62 H62           -1.7935    -2.2551     1.6911 H       
  63 H63           -0.5203    -1.9035     2.8843 H       
  64 H64            7.1598    -0.7992     3.0462 H       
  65 H65            5.4336    -1.2411     2.5702 H       
  66 H66            6.3219    -3.0452     1.0235 H       
  67 H67            8.0482    -2.6034     1.4996 H       
  68 H68            8.4104     1.4915     5.0735 H       
  69 H69            9.0370     5.5934     4.0709 H       
  70 H70            8.8614     5.0338     1.6798 H       
@<TRIPOS>BOND
   1    1    2 ar
   2    1    6 ar
   3    1   28 1
   4    2    3 ar
   5    2   20 1
   6    3    4 ar
   7    3   38 1
   8    4    5 ar
   9    4   39 1
  10    5    6 ar
  11    5    9 1
  12    6   26 1
  13    7    8 1
  14    7   10 1
  15    7   40 1
  16    7   41 1
  17    8    9 2
  18    8   13 1
  19    9   42 1
  20   10   11 1
  21   10   31 1
  22   10   32 1
  23   11   12 1
  24   11   43 1
  25   11   44 1
  26   12   13 1
  27   12   14 1
  28   13   16 2
  29   14   15 1
  30   14   17 1
  31   14   19 1
  32   15   16 1
  33   17   18 ar
  34   17   36 ar
  35   18   33 ar
  36   18   45 1
  37   19   46 1
  38   19   47 1
  39   19   48 1
  40   20   21 1
  41   20   22 1
  42   21   24 2
  43   21   49 1
  44   22   23 2
  45   22   50 1
  46   23   24 1
  47   23   25 1
  48   25   51 1
  49   25   52 1
  50   25   53 1
  51   26   27 1
  52   26   54 1
  53   26   55 1
  54   27   28 1
  55   27   56 1
  56   27   57 1
  57   28   29 1
  58   28   30 1
  59   29   58 1
  60   29   59 1
  61   29   60 1
  62   30   61 1
  63   30   62 1
  64   30   63 1
  65   31   32 1
  66   31   64 1
  67   31   65 1
  68   32   66 1
  69   32   67 1
  70   33   34 ar
  71   33   68 1
  72   34   35 ar
  73   34   37 1
  74   35   36 ar
  75   35   69 1
  76   36   70 1

#	End of record

