#	Name: ASD06660222
#	Creating user name:	WinNT
#	Creation time:	15. 06. 2019 21:08

#	Modifying user name:	WinNT
#	Modification time:	15. 06. 2019 21:08

#	Program:	/corina/corina34_cracker 3.40 0067  02.08.2006

@<TRIPOS>MOLECULE
ASD06660222
  76   79    0    0    0
SMALL
NO_CHARGES


@<TRIPOS>ATOM
   1 C1            -0.1932     1.3671    -0.4125 C.2     
   2 C2            -0.1202    -0.1327    -0.2852 C.3     
   3 C3            -0.7480    -0.7806    -1.5209 C.3     
   4 O4             0.8213     2.0235    -0.4120 O.2     
   5 O5            -1.3848     1.9733    -0.5321 O.3     
   6 C6            -0.7864    -2.2761    -1.3393 C.ar    
   7 C7            -1.8877    -2.8717    -0.7522 C.ar    
   8 C8            -1.9261    -4.2420    -0.5842 C.ar    
   9 C9            -0.8569    -5.0221    -1.0058 C.ar    
  10 C10            0.2479    -4.4205    -1.5952 C.ar    
  11 C11            0.2773    -3.0503    -1.7652 C.ar    
  12 N12           -0.8922    -6.4081    -0.8371 N.3     
  13 C13            0.3340    -7.0322    -1.3502 C.3     
  14 C14            0.1996    -8.5552    -1.2827 C.3     
  15 C15           -0.0413    -8.9776     0.1692 C.3     
  16 C16           -1.2968    -8.2762     0.6950 C.3     
  17 C17           -1.1190    -6.7613     0.5701 C.3     
  18 C18           -0.2371   -10.4936     0.2349 C.3     
  19 N19           -0.3483   -10.9114     1.6347 N.pl3   
  20 C20           -0.5321   -12.2533     1.9469 C.ar    
  21 C21           -0.6096   -13.1946     0.9252 C.ar    
  22 C22           -0.7927   -14.5264     1.2501 C.ar    
  23 C23           -0.8925   -14.8738     2.5911 C.ar    
  24 C24           -0.8069   -13.8878     3.5531 C.ar    
  25 N25           -0.6265   -12.6251     3.2141 N.ar    
  26 C26           -0.8823   -15.5769     0.1734 C.3     
  27 N27            1.2811    -0.5460    -0.1759 N.am    
  28 C28            2.2172    -0.3078    -1.1106 C.2     
  29 C29            3.5469    -0.8817    -0.6735 C.3     
  30 C30            3.1811    -1.8601     0.4666 C.3     
  31 C31            1.8445    -1.2677     0.9711 C.3     
  32 O32            2.0238     0.2812    -2.1531 O.2     
  33 C33            4.2127    -1.6311    -1.8293 C.3     
  34 C34            5.5370    -2.2310    -1.3526 C.3     
  35 C35            4.4639     0.2273    -0.1537 C.3     
  36 C36            4.7649     1.2122    -1.2852 C.3     
  37 H37           -0.6627    -0.4486     0.6059 H       
  38 H38           -1.7626    -0.4044    -1.6525 H       
  39 H39           -0.1530    -0.5366    -2.4010 H       
  40 H40           -1.3811     2.9371    -0.6109 H       
  41 H41           -2.7186    -2.2646    -0.4243 H       
  42 H42           -2.7864    -4.7065    -0.1253 H       
  43 H43            1.0808    -5.0242    -1.9241 H       
  44 H44            1.1338    -2.5824    -2.2277 H       
  45 H45            0.4913    -6.7270    -2.3847 H       
  46 H46            1.1834    -6.7154    -0.7450 H       
  47 H47           -0.6412    -8.8740    -1.8987 H       
  48 H48            1.1160    -9.0179    -1.6491 H       
  49 H49            0.8168    -8.6934     0.7784 H       
  50 H50           -2.1612    -8.5906     0.1101 H       
  51 H51           -1.4495    -8.5397     1.7415 H       
  52 H52           -0.2628    -6.4458     1.1663 H       
  53 H53           -2.0170    -6.2594     0.9304 H       
  54 H54           -1.1475   -10.7658    -0.2990 H       
  55 H55            0.6167   -10.9905    -0.2258 H       
  56 H56           -0.2937   -10.2515     2.3436 H       
  57 H57           -0.5283   -12.8894    -0.1076 H       
  58 H58           -1.0361   -15.9050     2.8782 H       
  59 H59           -0.8840   -14.1535     4.5971 H       
  60 H60            0.1146   -15.9600    -0.0444 H       
  61 H61           -1.5188   -16.3934     0.5144 H       
  62 H62           -1.3076   -15.1371    -0.7288 H       
  63 H63            3.0443    -2.8715     0.0838 H       
  64 H64            3.9349    -1.8412     1.2538 H       
  65 H65            2.0217    -0.5810     1.7988 H       
  66 H66            1.1718    -2.0675     1.2809 H       
  67 H67            3.5544    -2.4296    -2.1717 H       
  68 H68            4.4018    -0.9392    -2.6500 H       
  69 H69            5.9641    -2.8448    -2.1456 H       
  70 H70            6.2300    -1.4281    -1.1014 H       
  71 H71            5.3602    -2.8475    -0.4712 H       
  72 H72            3.9709     0.7530     0.6640 H       
  73 H73            5.3957    -0.2100     0.2048 H       
  74 H74            5.4679     1.9669    -0.9325 H       
  75 H75            5.2006     0.6754    -2.1279 H       
  76 H76            3.8407     1.6960    -1.6013 H       
@<TRIPOS>BOND
   1    1    2 1
   2    1    4 2
   3    1    5 1
   4    2    3 1
   5    2   27 1
   6    2   37 1
   7    3    6 1
   8    3   38 1
   9    3   39 1
  10    5   40 1
  11    6    7 ar
  12    6   11 ar
  13    7    8 ar
  14    7   41 1
  15    8    9 ar
  16    8   42 1
  17    9   10 ar
  18    9   12 1
  19   10   11 ar
  20   10   43 1
  21   11   44 1
  22   12   13 1
  23   12   17 1
  24   13   14 1
  25   13   45 1
  26   13   46 1
  27   14   15 1
  28   14   47 1
  29   14   48 1
  30   15   16 1
  31   15   18 1
  32   15   49 1
  33   16   17 1
  34   16   50 1
  35   16   51 1
  36   17   52 1
  37   17   53 1
  38   18   19 1
  39   18   54 1
  40   18   55 1
  41   19   20 1
  42   19   56 1
  43   20   21 ar
  44   20   25 ar
  45   21   22 ar
  46   21   57 1
  47   22   23 ar
  48   22   26 1
  49   23   24 ar
  50   23   58 1
  51   24   25 ar
  52   24   59 1
  53   26   60 1
  54   26   61 1
  55   26   62 1
  56   27   28 am
  57   27   31 1
  58   28   29 1
  59   28   32 2
  60   29   30 1
  61   29   33 1
  62   29   35 1
  63   30   31 1
  64   30   63 1
  65   30   64 1
  66   31   65 1
  67   31   66 1
  68   33   34 1
  69   33   67 1
  70   33   68 1
  71   34   69 1
  72   34   70 1
  73   34   71 1
  74   35   36 1
  75   35   72 1
  76   35   73 1
  77   36   74 1
  78   36   75 1
  79   36   76 1

#	End of record

