#	Name: ASD01420053
#	Creating user name:	WinNT
#	Creation time:	15. 06. 2019 19:20

#	Modifying user name:	WinNT
#	Modification time:	15. 06. 2019 19:20

#	Program:	/corina/corina34_cracker 3.40 0067  02.08.2006

@<TRIPOS>MOLECULE
ASD01420053
  43   45    0    0    0
SMALL
NO_CHARGES


@<TRIPOS>ATOM
   1 C1            -0.0144     1.2118     0.0087 C.2     
   2 O2             0.0741     0.0273    -0.2517 O.2     
   3 N3             1.0975     1.9327     0.2544 N.am    
   4 C4             1.1292     3.3826     0.4643 C.3     
   5 C5             2.6092     3.7228     0.7043 C.3     
   6 C6             3.3252     2.3943     0.6085 C.ar    
   7 C7             4.6635     2.0750     0.7369 C.ar    
   8 C8             5.0800     0.7636     0.6051 C.ar    
   9 C9             4.1537    -0.2296     0.3441 C.ar    
  10 C10            2.8177     0.0841     0.2152 C.ar    
  11 C11            2.3884     1.4059     0.3522 C.ar    
  12 C12           -1.3389     1.8612     0.0497 C.ar    
  13 C13           -2.5006     1.0906    -0.0505 C.ar    
  14 C14           -3.7344     1.7004    -0.0118 C.ar    
  15 C15           -3.8256     3.0806     0.1267 C.ar    
  16 C16           -2.6729     3.8505     0.2267 C.ar    
  17 C17           -1.4351     3.2476     0.1947 C.ar    
  18 O18           -5.0437     3.6780     0.1640 O.3     
  19 C19           -4.9876     0.8705    -0.1203 C.3     
  20 C20           -4.6111    -0.6055    -0.2636 C.3     
  21 C21           -5.8357     1.0606     1.1389 C.3     
  22 C22           -5.7884     1.3140    -1.3463 C.3     
  23 H23            0.7608     3.9009    -0.4210 H       
  24 H24            0.5331     3.6515     1.3363 H       
  25 H25            2.9716     4.4063    -0.0635 H       
  26 H26            2.7437     4.1567     1.6951 H       
  27 H27            5.3856     2.8518     0.9404 H       
  28 H28            6.1263     0.5152     0.7053 H       
  29 H29            4.4782    -1.2545     0.2406 H       
  30 H30            2.0994    -0.6961     0.0110 H       
  31 H31           -2.4305     0.0183    -0.1585 H       
  32 H32           -2.7480     4.9225     0.3338 H       
  33 H33           -0.5398     3.8461     0.2773 H       
  34 H34           -5.4136     3.7618     1.0535 H       
  35 H35           -4.0406    -0.9214     0.6098 H       
  36 H36           -5.5176    -1.2057    -0.3421 H       
  37 H37           -4.0069    -0.7409    -1.1607 H       
  38 H38           -6.1040     2.1121     1.2410 H       
  39 H39           -6.7422     0.4604     1.0604 H       
  40 H40           -5.2653     0.7447     2.0123 H       
  41 H41           -5.1842     1.1786    -2.2433 H       
  42 H42           -6.6949     0.7137    -1.4247 H       
  43 H43           -6.0566     2.3655    -1.2442 H       
@<TRIPOS>BOND
   1    1    2 2
   2    1    3 am
   3    1   12 1
   4    3    4 1
   5    3   11 1
   6    4    5 1
   7    4   23 1
   8    4   24 1
   9    5    6 1
  10    5   25 1
  11    5   26 1
  12    6    7 ar
  13    6   11 ar
  14    7    8 ar
  15    7   27 1
  16    8    9 ar
  17    8   28 1
  18    9   10 ar
  19    9   29 1
  20   10   11 ar
  21   10   30 1
  22   12   13 ar
  23   12   17 ar
  24   13   14 ar
  25   13   31 1
  26   14   15 ar
  27   14   19 1
  28   15   16 ar
  29   15   18 1
  30   16   17 ar
  31   16   32 1
  32   17   33 1
  33   18   34 1
  34   19   20 1
  35   19   22 1
  36   19   21 1
  37   20   35 1
  38   20   36 1
  39   20   37 1
  40   21   38 1
  41   21   39 1
  42   21   40 1
  43   22   41 1
  44   22   42 1
  45   22   43 1

#	End of record

