#	Name: ASD04590243
#	Creating user name:	WinNT
#	Creation time:	15. 06. 2019 20:50

#	Modifying user name:	WinNT
#	Modification time:	15. 06. 2019 20:50

#	Program:	/corina/corina34_cracker 3.40 0067  02.08.2006

@<TRIPOS>MOLECULE
ASD04590243
  57   59    0    0    0
SMALL
NO_CHARGES


@<TRIPOS>ATOM
   1 N1            -0.0169     1.3950     0.0097 N.pl3   
   2 N2             0.0021    -0.0041     0.0020 N.2     
   3 C3             1.2467    -0.4104    -0.0120 C.2     
   4 C4             2.0789     0.7380    -0.0138 C.2     
   5 C5             1.2484     1.8413     0.0000 C.2     
   6 N6             1.6782    -1.7391    -0.0233 N.am    
   7 C7             3.5511     0.7515    -0.0271 C.2     
   8 O8             4.1687    -0.2962    -0.0379 O.2     
   9 N9             4.2143     1.9248    -0.0272 N.am    
  10 C10            5.6792     1.9381    -0.0404 C.3     
  11 C11            6.1716     3.2536    -0.6481 C.3     
  12 C12            7.7029     3.2495    -0.6921 C.3     
  13 N13            8.2141     2.9802     0.6588 N.am    
  14 C14            7.7348     1.7877     1.3708 C.3     
  15 C15            6.2032     1.8081     1.3916 C.3     
  16 C16            0.7763    -2.7406    -0.0206 C.2     
  17 O17           -0.4132    -2.4877    -0.0083 O.2     
  18 C18            1.2316    -4.1424    -0.0324 C.ar    
  19 C19            1.4378    -4.8047    -1.2484 C.ar    
  20 C20            1.8644    -6.1182    -1.2515 C.ar    
  21 C21            2.0879    -6.7807    -0.0548 C.ar    
  22 C22            1.8859    -6.1316     1.1530 C.ar    
  23 C23            1.4654    -4.8163     1.1721 C.ar    
  24 F24            1.2690    -4.1851     2.3504 F       
  25 F25            1.2196    -4.1608    -2.4158 F       
  26 C26            9.1059     3.8111     1.2338 C.2     
  27 O27            9.5660     3.5521     2.4724 O.3     
  28 O28            9.4949     4.7939     0.6344 O.2     
  29 C29           10.5246     4.4900     3.0290 C.3     
  30 C30            9.8908     5.8803     3.1082 C.3     
  31 C31           10.9292     4.0333     4.4321 C.3     
  32 C32           11.7638     4.5446     2.1333 C.3     
  33 F33            2.5043    -8.0659    -0.0657 F       
  34 H34           -0.8125     1.9499     0.0167 H       
  35 H35            1.5606     2.8752     0.0023 H       
  36 H36            2.6270    -1.9408    -0.0331 H       
  37 H37            3.7217     2.7603    -0.0186 H       
  38 H38            6.0446     1.1029    -0.6378 H       
  39 H39            5.7789     3.3565    -1.6597 H       
  40 H40            5.8274     4.0880    -0.0371 H       
  41 H41            8.0468     2.4722    -1.3745 H       
  42 H42            8.0613     4.2213    -1.0314 H       
  43 H43            8.0813     0.8912     0.8566 H       
  44 H44            8.1143     1.7950     2.3926 H       
  45 H45            5.8587     2.6562     1.9835 H       
  46 H46            5.8329     0.8823     1.8319 H       
  47 H47            2.0239    -6.6305    -2.1888 H       
  48 H48            2.0617    -6.6544     2.0815 H       
  49 H49            9.0080     5.8414     3.7463 H       
  50 H50           10.6104     6.5844     3.5260 H       
  51 H51            9.6026     6.2057     2.1086 H       
  52 H52           11.3807     3.0428     4.3757 H       
  53 H53           11.6488     4.7373     4.8499 H       
  54 H54           10.0464     3.9944     5.0702 H       
  55 H55           11.4755     4.8700     1.1337 H       
  56 H56           12.4834     5.2487     2.5511 H       
  57 H57           12.2152     3.5541     2.0769 H       
@<TRIPOS>BOND
   1    1    2 1
   2    1    5 1
   3    1   34 1
   4    2    3 2
   5    3    4 1
   6    3    6 1
   7    4    5 2
   8    4    7 1
   9    5   35 1
  10    6   16 am
  11    6   36 1
  12    7    8 2
  13    7    9 am
  14    9   10 1
  15    9   37 1
  16   10   11 1
  17   10   15 1
  18   10   38 1
  19   11   12 1
  20   11   39 1
  21   11   40 1
  22   12   13 1
  23   12   41 1
  24   12   42 1
  25   13   14 1
  26   13   26 am
  27   14   15 1
  28   14   43 1
  29   14   44 1
  30   15   45 1
  31   15   46 1
  32   16   17 2
  33   16   18 1
  34   18   19 ar
  35   18   23 ar
  36   19   20 ar
  37   19   25 1
  38   20   21 ar
  39   20   47 1
  40   21   22 ar
  41   21   33 1
  42   22   23 ar
  43   22   48 1
  44   23   24 1
  45   26   27 1
  46   26   28 2
  47   27   29 1
  48   29   30 1
  49   29   31 1
  50   29   32 1
  51   30   49 1
  52   30   50 1
  53   30   51 1
  54   31   52 1
  55   31   53 1
  56   31   54 1
  57   32   55 1
  58   32   56 1
  59   32   57 1

#	End of record

