#	Name: ASD03092936
#	Creating user name:	WinNT
#	Creation time:	15. 06. 2019 20:33

#	Modifying user name:	WinNT
#	Modification time:	15. 06. 2019 20:33

#	Program:	/corina/corina34_cracker 3.40 0067  02.08.2006

@<TRIPOS>MOLECULE
ASD03092936
  52   54    0    0    0
SMALL
NO_CHARGES


@<TRIPOS>ATOM
   1 C1            -0.4126     1.7164    -1.3606 C.3     
   2 C2            -0.5012     0.2398    -1.7513 C.3     
   3 C3             0.7124    -0.4899    -1.2359 C.2     
   4 O4             1.6105     0.1280    -0.6995 O.2     
   5 C5             0.8056    -1.8894    -1.3760 C.2     
   6 C6             1.2818    -2.5769    -2.4927 C.2     
   7 C7             1.1905    -3.9567    -2.1848 C.2     
   8 C8             0.6758    -4.0629    -0.9254 C.2     
   9 C9             0.4099    -5.3556    -0.1980 C.3     
  10 N10            0.4484    -2.8292    -0.4323 N.pl3   
  11 C11           -0.0963    -2.5336     0.8952 C.3     
  12 C12            1.5822    -5.0808    -3.0699 C.ar    
  13 C13            0.8995    -5.3005    -4.2646 C.ar    
  14 C14            1.2678    -6.3477    -5.0847 C.ar    
  15 C15            2.3134    -7.1791    -4.7221 C.ar    
  16 Cl16           2.7718    -8.4946    -5.7580 Cl      
  17 C17            2.9952    -6.9647    -3.5363 C.ar    
  18 C18            4.1330    -7.8734    -3.1479 C.3     
  19 C19            2.6381    -5.9173    -2.7121 C.ar    
  20 C20            1.7830    -1.9819    -3.7515 C.ar    
  21 C21            1.0936    -2.1881    -4.9471 C.ar    
  22 C22            1.5658    -1.6303    -6.1172 C.ar    
  23 C23            2.7202    -0.8678    -6.1069 C.ar    
  24 C24            3.4087    -0.6599    -4.9249 C.ar    
  25 C25            2.9438    -1.2075    -3.7470 C.ar    
  26 S26            3.3166    -0.1588    -7.6057 S.o2    
  27 N27            2.6221     1.3375    -7.7505 N.am    
  28 O28            4.7082     0.0610    -7.4197 O.2     
  29 O29            2.7891    -0.9500    -8.6616 O.2     
  30 H30           -0.3704     1.8031    -0.2749 H       
  31 H31            0.4862     2.1539    -1.7952 H       
  32 H32           -1.2904     2.2442    -1.7334 H       
  33 H33           -1.4000    -0.1977    -1.3166 H       
  34 H34           -0.5434     0.1531    -2.8370 H       
  35 H35            1.2961    -5.6431     0.3678 H       
  36 H36           -0.4295    -5.2225     0.4845 H       
  37 H37            0.1708    -6.1363    -0.9201 H       
  38 H38           -1.1756    -2.3995     0.8234 H       
  39 H39            0.1230    -3.3607     1.5703 H       
  40 H40            0.3586    -1.6206     1.2794 H       
  41 H41            0.0833    -4.6526    -4.5482 H       
  42 H42            0.7390    -6.5190    -6.0107 H       
  43 H43            5.0671    -7.4761    -3.5451 H       
  44 H44            4.1961    -7.9325    -2.0614 H       
  45 H45            3.9586    -8.8688    -3.5564 H       
  46 H46            3.1733    -5.7484    -1.7893 H       
  47 H47            0.1925    -2.7834    -4.9564 H       
  48 H48            1.0333    -1.7894    -7.0432 H       
  49 H49            4.3094    -0.0640    -4.9235 H       
  50 H50            3.4793    -1.0405    -2.8241 H       
  51 H51            2.0118     1.6571    -7.0676 H       
  52 H52            2.8256     1.8944    -8.5182 H       
@<TRIPOS>BOND
   1    1    2 1
   2    1   30 1
   3    1   31 1
   4    1   32 1
   5    2    3 1
   6    2   33 1
   7    2   34 1
   8    3    4 2
   9    3    5 1
  10    5   10 1
  11    5    6 2
  12    6    7 1
  13    6   20 1
  14    7    8 2
  15    7   12 1
  16    8    9 1
  17    8   10 1
  18    9   35 1
  19    9   36 1
  20    9   37 1
  21   10   11 1
  22   11   38 1
  23   11   39 1
  24   11   40 1
  25   12   19 ar
  26   12   13 ar
  27   13   14 ar
  28   13   41 1
  29   14   15 ar
  30   14   42 1
  31   15   16 1
  32   15   17 ar
  33   17   18 1
  34   17   19 ar
  35   18   43 1
  36   18   44 1
  37   18   45 1
  38   19   46 1
  39   20   25 ar
  40   20   21 ar
  41   21   22 ar
  42   21   47 1
  43   22   23 ar
  44   22   48 1
  45   23   24 ar
  46   23   26 1
  47   24   25 ar
  48   24   49 1
  49   25   50 1
  50   26   27 am
  51   26   28 2
  52   26   29 2
  53   27   51 1
  54   27   52 1

#	End of record

