#	Name: ASD01810424
#	Creating user name:	WinNT
#	Creation time:	15. 06. 2019 19:24

#	Modifying user name:	WinNT
#	Modification time:	15. 06. 2019 19:24

#	Program:	/corina/corina34_cracker 3.40 0067  02.08.2006

@<TRIPOS>MOLECULE
ASD01810424
  43   46    0    0    0
SMALL
NO_CHARGES


@<TRIPOS>ATOM
   1 N1            -0.0159     1.3179     0.0093 N.ar    
   2 C2             0.0021    -0.0041     0.0020 C.ar    
   3 C3             2.3890    -0.0048    -0.0203 C.ar    
   4 C4             2.3297     1.4020    -0.0131 C.ar    
   5 C5             1.0900     2.0348     0.0026 C.ar    
   6 N6             3.5997    -0.6519    -0.0348 N.pl3   
   7 C7             4.7699     0.0033    -0.0427 C.2     
   8 C8             4.8422     1.3812    -0.0365 C.2     
   9 C9             3.5926     2.1610    -0.0220 C.2     
  10 O10            3.6029     3.3793    -0.0159 O.2     
  11 C11            6.1457     2.0603    -0.0446 C.2     
  12 C12            3.6140    -2.1168    -0.0413 C.3     
  13 C13            3.6052    -2.6129    -1.4643 C.ar    
  14 O14            7.1711     1.4075    -0.0570 O.2     
  15 O15            6.2042     3.4071    -0.0384 O.3     
  16 C16            4.8005    -2.8280    -2.1264 C.ar    
  17 C17            4.7983    -3.2822    -3.4297 C.ar    
  18 C18            3.5892    -3.5242    -4.0784 C.ar    
  19 C19            2.3881    -3.3058    -3.4066 C.ar    
  20 C20            2.4021    -2.8568    -2.1016 C.ar    
  21 C21            3.5805    -4.0122    -5.4797 C.ar    
  22 C22            2.3714    -4.2542    -6.1284 C.ar    
  23 C23            2.3692    -4.7081    -7.4318 C.ar    
  24 C24            3.5644    -4.9232    -8.0939 C.ar    
  25 C25            4.7677    -4.6851    -7.4546 C.ar    
  26 C26            4.7815    -4.2247    -6.1535 C.ar    
  27 C27            1.1856    -0.7098    -0.0126 C.ar    
  28 H28           -0.9333    -0.5438     0.0080 H       
  29 H29            1.0343     3.1134     0.0089 H       
  30 H30            5.6870    -0.5671    -0.0540 H       
  31 H31            4.5124    -2.4736     0.4624 H       
  32 H32            2.7326    -2.4910     0.4794 H       
  33 H33            7.0839     3.8083    -0.0442 H       
  34 H34            5.7371    -2.6397    -1.6227 H       
  35 H35            5.7321    -3.4495    -3.9458 H       
  36 H36            1.4481    -3.4918    -3.9047 H       
  37 H37            1.4717    -2.6872    -1.5799 H       
  38 H38            1.4376    -4.0872    -5.6122 H       
  39 H39            1.4325    -4.8960    -7.9356 H       
  40 H40            3.5582    -5.2788    -9.1137 H       
  41 H41            5.6981    -4.8551    -7.9761 H       
  42 H42            5.7215    -4.0388    -5.6554 H       
  43 H43            1.1814    -1.7898    -0.0177 H       
@<TRIPOS>BOND
   1    1    2 ar
   2    1    5 ar
   3    2   27 ar
   4    2   28 1
   5    3    4 ar
   6    3    6 1
   7    3   27 ar
   8    4    5 ar
   9    4    9 1
  10    5   29 1
  11    6    7 1
  12    6   12 1
  13    7    8 2
  14    7   30 1
  15    8    9 1
  16    8   11 1
  17    9   10 2
  18   11   14 2
  19   11   15 1
  20   12   13 1
  21   12   31 1
  22   12   32 1
  23   13   16 ar
  24   13   20 ar
  25   15   33 1
  26   16   17 ar
  27   16   34 1
  28   17   18 ar
  29   17   35 1
  30   18   19 ar
  31   18   21 1
  32   19   20 ar
  33   19   36 1
  34   20   37 1
  35   21   22 ar
  36   21   26 ar
  37   22   23 ar
  38   22   38 1
  39   23   24 ar
  40   23   39 1
  41   24   25 ar
  42   24   40 1
  43   25   26 ar
  44   25   41 1
  45   26   42 1
  46   27   43 1

#	End of record

