#	Name: ASD05430713
#	Creating user name:	WinNT
#	Creation time:	15. 06. 2019 21:00

#	Modifying user name:	WinNT
#	Modification time:	15. 06. 2019 21:00

#	Program:	/corina/corina34_cracker 3.40 0067  02.08.2006

@<TRIPOS>MOLECULE
ASD05430713
  30   32    0    0    0
SMALL
NO_CHARGES


@<TRIPOS>ATOM
   1 Br1            3.9495     0.8548    -0.0311 Br      
   2 C2            -0.0169     1.3949     0.0097 C.2     
   3 C3             0.0021    -0.0041     0.0020 C.2     
   4 C4            -1.2138    -0.7101     0.0098 C.2     
   5 N5            -2.3531    -0.0794     0.0241 N.2     
   6 N6            -2.4323     1.3155     0.0324 N.am    
   7 C7            -1.3121     2.0708     0.0310 C.2     
   8 O8            -1.3806     3.2886     0.0382 O.2     
   9 C9            -3.7447     1.9664     0.0479 C.3     
  10 C10           -4.5334     1.5535    -1.1964 C.3     
  11 C11           -4.4990     1.5465     1.2831 C.ar    
  12 C12           -5.2541     2.4716     1.9789 C.ar    
  13 C13           -5.9477     2.0869     3.1140 C.ar    
  14 C14           -5.8845     0.7752     3.5517 C.ar    
  15 C15           -5.1279    -0.1504     2.8541 C.ar    
  16 C16           -4.4397     0.2353     1.7160 C.ar    
  17 N17            1.2674     1.8134    -0.0003 N.2     
  18 C18            2.0601     0.7777    -0.0134 C.2     
  19 N19            1.3238    -0.3668    -0.0126 N.pl3   
  20 F20           -5.0650    -1.4308     3.2804 F       
  21 F21           -6.6854     2.9915     3.7942 F       
  22 H22           -1.2028    -1.7900     0.0036 H       
  23 H23           -3.6135     3.0484     0.0525 H       
  24 H24           -5.5099     2.0378    -1.1848 H       
  25 H25           -3.9878     1.8572    -2.0898 H       
  26 H26           -4.6645     0.4715    -1.2010 H       
  27 H27           -5.3030     3.4950     1.6373 H       
  28 H28           -6.4249     0.4744     4.4371 H       
  29 H29           -3.8496    -0.4869     1.1713 H       
  30 H30            1.6706    -1.2726    -0.0202 H       
@<TRIPOS>BOND
   1    1   18 1
   2    2    3 2
   3    2   17 1
   4    2    7 1
   5    3    4 1
   6    3   19 1
   7    4    5 2
   8    4   22 1
   9    5    6 1
  10    6    7 am
  11    6    9 1
  12    7    8 2
  13    9   10 1
  14    9   11 1
  15    9   23 1
  16   10   24 1
  17   10   25 1
  18   10   26 1
  19   11   12 ar
  20   11   16 ar
  21   12   13 ar
  22   12   27 1
  23   13   14 ar
  24   13   21 1
  25   14   15 ar
  26   14   28 1
  27   15   16 ar
  28   15   20 1
  29   16   29 1
  30   17   18 2
  31   18   19 1
  32   19   30 1

#	End of record

