#	Name: ASD00898001
#	Creating user name:	WinNT
#	Creation time:	15. 06. 2019 18:53

#	Modifying user name:	WinNT
#	Modification time:	15. 06. 2019 18:53

#	Program:	/corina/corina34_cracker 3.40 0067  02.08.2006

@<TRIPOS>MOLECULE
ASD00898001
  76   81    0    0    0
SMALL
NO_CHARGES


@<TRIPOS>ATOM
   1 N1            -0.0047     1.4211    -0.0071 N.pl3   
   2 C2             0.0081     0.0288     0.0043 C.2     
   3 C3             0.7272    -0.6991    -0.8011 C.2     
   4 C4             1.6783    -0.1653    -1.8575 C.3     
   5 N5             1.5738     1.2465    -2.1331 N.am    
   6 C6             1.8968     2.1949    -1.1650 C.ar    
   7 C7             1.1076     2.2498    -0.0279 C.ar    
   8 C8             2.9754     3.0529    -1.3049 C.ar    
   9 C9             3.2847     3.9299    -0.2792 C.ar    
  10 C10            2.5279     3.9504     0.8780 C.ar    
  11 C11            1.4313     3.1098     1.0111 C.ar    
  12 C12           -0.8817    -0.5170     1.0995 C.3     
  13 C13           -1.4316    -1.9024     0.8346 C.3     
  14 C14           -0.2381    -2.8694     0.7598 C.3     
  15 S15            0.6471    -2.4764    -0.7724 S.o2    
  16 O16            0.6831     3.1298     2.1466 O.3     
  17 O17           -0.1445    -2.8093    -1.9045 O.2     
  18 O18            2.0047    -2.8864    -0.6826 O.2     
  19 C19            1.1563     1.6552    -3.3476 C.2     
  20 O20            0.8716     0.8366    -4.1996 O.2     
  21 C21            1.0445     3.1022    -3.6441 C.ar    
  22 C22            0.6122     3.5184    -4.9016 C.ar    
  23 C23            0.5122     4.8755    -5.1638 C.ar    
  24 C24            0.8481     5.7697    -4.1591 C.ar    
  25 C25            1.2706     5.2850    -2.9318 C.ar    
  26 N26            1.3516     3.9915    -2.7079 N.ar    
  27 C27            1.6367     6.2532    -1.8365 C.3     
  28 C28           -2.3651    -2.3170     1.9737 C.3     
  29 C29           -2.1930    -1.9139    -0.4925 C.3     
  30 C30            3.0887    -0.4567    -1.4136 C.ar    
  31 C31            4.1217    -0.4393    -2.3363 C.ar    
  32 C32            5.4168    -0.7067    -1.9299 C.ar    
  33 C33            5.6791    -0.9919    -0.5980 C.ar    
  34 C34            4.6420    -1.0083     0.3232 C.ar    
  35 C35            3.3506    -0.7353    -0.0855 C.ar    
  36 F36            3.8645    -0.1618    -3.6332 F       
  37 O37            6.9503    -1.2553    -0.1962 O.3     
  38 C38            7.1464    -1.5407     1.1902 C.3     
  39 C39            8.6076    -1.8055     1.4468 C.ar    
  40 C40            9.4511    -0.7622     1.7797 C.ar    
  41 C41           10.7915    -1.0051     2.0150 C.ar    
  42 C42           11.2883    -2.2914     1.9177 C.ar    
  43 C43           10.4446    -3.3349     1.5856 C.ar    
  44 C44            9.1034    -3.0926     1.3546 C.ar    
  45 H45           -0.8736     1.8523    -0.0043 H       
  46 H46            1.4983    -0.7086    -2.7851 H       
  47 H47            3.5701     3.0376    -2.2063 H       
  48 H48            4.1232     4.6025    -0.3835 H       
  49 H49            2.7912     4.6228     1.6810 H       
  50 H50           -0.3098    -0.5444     2.0270 H       
  51 H51           -1.7198     0.1665     1.2356 H       
  52 H52            0.4170    -2.7214     1.6183 H       
  53 H53           -0.5931    -3.8996     0.7325 H       
  54 H54            0.9858     2.5139     2.8279 H       
  55 H55            0.3591     2.7937    -5.6612 H       
  56 H56            0.1806     5.2284    -6.1291 H       
  57 H57            0.7814     6.8337    -4.3315 H       
  58 H58            0.7524     6.4791    -1.2406 H       
  59 H59            2.4006     5.8085    -1.1988 H       
  60 H60            2.0219     7.1724    -2.2779 H       
  61 H61           -3.1910    -1.6090     2.0425 H       
  62 H62           -2.7574    -3.3148     1.7770 H       
  63 H63           -1.8121    -2.3226     2.9129 H       
  64 H64           -1.5179    -1.6338    -1.3011 H       
  65 H65           -2.5861    -2.9136    -0.6772 H       
  66 H66           -3.0174    -1.2024    -0.4445 H       
  67 H67            6.2226    -0.6936    -2.6488 H       
  68 H68            4.8446    -1.2303     1.3606 H       
  69 H69            2.5443    -0.7439     0.6329 H       
  70 H70            6.8216    -0.6879     1.7863 H       
  71 H71            6.5640    -2.4198     1.4662 H       
  72 H72            9.0630     0.2428     1.8557 H       
  73 H73           11.4506    -0.1898     2.2744 H       
  74 H74           12.3356    -2.4810     2.1008 H       
  75 H75           10.8328    -4.3398     1.5093 H       
  76 H76            8.4435    -3.9084     1.0988 H       
@<TRIPOS>BOND
   1    1    2 1
   2    1    7 1
   3    1   45 1
   4    2    3 2
   5    2   12 1
   6    3    4 1
   7    3   15 1
   8    4    5 1
   9    4   30 1
  10    4   46 1
  11    5    6 1
  12    5   19 am
  13    6    7 ar
  14    6    8 ar
  15    7   11 ar
  16    8    9 ar
  17    8   47 1
  18    9   10 ar
  19    9   48 1
  20   10   11 ar
  21   10   49 1
  22   11   16 1
  23   12   13 1
  24   12   50 1
  25   12   51 1
  26   13   14 1
  27   13   28 1
  28   13   29 1
  29   14   15 1
  30   14   52 1
  31   14   53 1
  32   15   17 2
  33   15   18 2
  34   16   54 1
  35   19   20 2
  36   19   21 1
  37   21   22 ar
  38   21   26 ar
  39   22   23 ar
  40   22   55 1
  41   23   24 ar
  42   23   56 1
  43   24   25 ar
  44   24   57 1
  45   25   26 ar
  46   25   27 1
  47   27   58 1
  48   27   59 1
  49   27   60 1
  50   28   61 1
  51   28   62 1
  52   28   63 1
  53   29   64 1
  54   29   65 1
  55   29   66 1
  56   30   31 ar
  57   30   35 ar
  58   31   32 ar
  59   31   36 1
  60   32   33 ar
  61   32   67 1
  62   33   34 ar
  63   33   37 1
  64   34   35 ar
  65   34   68 1
  66   35   69 1
  67   37   38 1
  68   38   39 1
  69   38   70 1
  70   38   71 1
  71   39   40 ar
  72   39   44 ar
  73   40   41 ar
  74   40   72 1
  75   41   42 ar
  76   41   73 1
  77   42   43 ar
  78   42   74 1
  79   43   44 ar
  80   43   75 1
  81   44   76 1

#	End of record

