#	Name: ASD01913617
#	Creating user name:	WinNT
#	Creation time:	15. 06. 2019 20:01

#	Modifying user name:	WinNT
#	Modification time:	15. 06. 2019 20:01

#	Program:	/corina/corina34_cracker 3.40 0067  02.08.2006

@<TRIPOS>MOLECULE
ASD01913617
  59   63    0    0    0
SMALL
NO_CHARGES


@<TRIPOS>ATOM
   1 C1             0.0890     1.4554     0.3119 C.ar    
   2 C2             0.0485    -0.0127     0.1330 C.2     
   3 N3            -1.0124    -0.8155     0.3819 N.pl3   
   4 N4            -0.6022    -2.1226     0.0736 N.2     
   5 C5             0.6466    -2.0460    -0.3331 C.2     
   6 N6             1.0362    -0.7667    -0.3016 N.2     
   7 C7             1.4853    -3.1923    -0.7633 C.ar    
   8 C8             2.7998    -2.9810    -1.1743 C.ar    
   9 C9             3.5761    -4.0496    -1.5730 C.ar    
  10 C10            3.0504    -5.3315    -1.5650 C.ar    
  11 C11            1.7437    -5.5461    -1.1575 C.ar    
  12 C12            0.9622    -4.4838    -0.7518 C.ar    
  13 C13           -2.3283    -0.4024     0.8757 C.3     
  14 C14           -3.2439    -0.1410    -0.2924 C.2     
  15 N15           -4.5146     0.2533    -0.0776 N.am    
  16 O16           -2.8371    -0.2855    -1.4259 O.2     
  17 C17           -5.3713     0.4969    -1.2340 C.3     
  18 C18            1.3141     2.1125     0.4305 C.ar    
  19 C19            1.3464     3.4813     0.5966 C.ar    
  20 C20            0.1648     4.2038     0.6459 C.ar    
  21 C21           -1.0546     3.5557     0.5291 C.ar    
  22 C22           -1.0976     2.1880     0.3569 C.ar    
  23 F23            3.8140    -6.3751    -1.9561 F       
  24 F24            0.2018     5.5444     0.8088 F       
  25 C25           -6.5183    -0.5196    -1.2517 C.3     
  26 C26           -7.5920    -0.0542    -0.2935 C.ar    
  27 C27           -7.3763    -0.0970     1.0618 C.ar    
  28 C28           -6.0632    -0.6104     1.6093 C.3     
  29 C29           -4.9696     0.4106     1.3003 C.3     
  30 C30           -8.7933     0.4144    -0.7943 C.ar    
  31 C31           -9.7823     0.8427     0.0795 C.ar    
  32 C32           -9.5618     0.7989     1.4488 C.ar    
  33 C33           -8.3589     0.3290     1.9395 C.ar    
  34 O34          -10.9649     1.3048    -0.4049 O.3     
  35 C35          -11.9370     1.7289     0.5528 C.3     
  36 H36            3.2102    -1.9820    -1.1812 H       
  37 H37            4.5950    -3.8866    -1.8920 H       
  38 H38            1.3377    -6.5468    -1.1531 H       
  39 H39           -0.0563    -4.6519    -0.4343 H       
  40 H40           -2.7483    -1.1939     1.4965 H       
  41 H41           -2.2253     0.5073     1.4672 H       
  42 H42           -5.7812     1.5051    -1.1756 H       
  43 H43           -4.7845     0.3973    -2.1472 H       
  44 H44            2.2354     1.5503     0.3925 H       
  45 H45            2.2942     3.9908     0.6888 H       
  46 H46           -1.9727     4.1232     0.5685 H       
  47 H47           -2.0483     1.6839     0.2656 H       
  48 H48           -6.9310    -0.5879    -2.2583 H       
  49 H49           -6.1471    -1.4955    -0.9391 H       
  50 H50           -6.1443    -0.7452     2.6879 H       
  51 H51           -5.8168    -1.5613     1.1370 H       
  52 H52           -4.1300     0.2592     1.9788 H       
  53 H53           -5.3654     1.4174     1.4338 H       
  54 H54           -8.9605     0.4472    -1.8608 H       
  55 H55          -10.3301     1.1324     2.1306 H       
  56 H56           -8.1855     0.2939     3.0049 H       
  57 H57          -12.8316     2.0735     0.0343 H       
  58 H58          -12.1937     0.8936     1.2043 H       
  59 H59          -11.5270     2.5432     1.1504 H       
@<TRIPOS>BOND
   1    1    2 1
   2    1   18 ar
   3    1   22 ar
   4    2    3 1
   5    2    6 2
   6    3    4 1
   7    3   13 1
   8    4    5 2
   9    5    6 1
  10    5    7 1
  11    7    8 ar
  12    7   12 ar
  13    8    9 ar
  14    8   36 1
  15    9   10 ar
  16    9   37 1
  17   10   11 ar
  18   10   23 1
  19   11   12 ar
  20   11   38 1
  21   12   39 1
  22   13   14 1
  23   13   40 1
  24   13   41 1
  25   14   15 am
  26   14   16 2
  27   15   17 1
  28   15   29 1
  29   17   25 1
  30   17   42 1
  31   17   43 1
  32   18   19 ar
  33   18   44 1
  34   19   20 ar
  35   19   45 1
  36   20   21 ar
  37   20   24 1
  38   21   22 ar
  39   21   46 1
  40   22   47 1
  41   25   26 1
  42   25   48 1
  43   25   49 1
  44   26   27 ar
  45   26   30 ar
  46   27   28 1
  47   27   33 ar
  48   28   29 1
  49   28   50 1
  50   28   51 1
  51   29   52 1
  52   29   53 1
  53   30   31 ar
  54   30   54 1
  55   31   32 ar
  56   31   34 1
  57   32   33 ar
  58   32   55 1
  59   33   56 1
  60   34   35 1
  61   35   57 1
  62   35   58 1
  63   35   59 1

#	End of record

