#	Name: ASD07480030
#	Creating user name:	WinNT
#	Creation time:	15. 06. 2019 21:11

#	Modifying user name:	WinNT
#	Modification time:	15. 06. 2019 21:11

#	Program:	/corina/corina34_cracker 3.40 0067  02.08.2006

@<TRIPOS>MOLECULE
ASD07480030
  49   51    0    0    0
SMALL
NO_CHARGES


@<TRIPOS>ATOM
   1 N1            -0.3421     1.6852     0.5252 N.am    
   2 C2            -0.6745     0.3637     1.0630 C.3     
   3 C3            -1.5432     0.5179     2.2413 C.1     
   4 C4            -1.4042    -0.4529    -0.0053 C.3     
   5 C5            -2.2361     0.6408     3.1810 C.1     
   6 C6             0.8914     2.1966     0.7082 C.2     
   7 N7             1.2310     3.3627     0.1240 N.am    
   8 O8             1.6978     1.6058     1.4004 O.2     
   9 C9             2.4676     3.9564     0.4114 C.ar    
  10 C10            2.5894     5.3394     0.4173 C.ar    
  11 C11            3.8080     5.9238     0.7010 C.ar    
  12 C12            4.9104     5.1293     0.9796 C.ar    
  13 C13            4.7895     3.7474     0.9738 C.ar    
  14 C14            3.5701     3.1619     0.6959 C.ar    
  15 C15           -1.3486     2.4484    -0.2169 C.3     
  16 C16           -2.1296     3.3125     0.7394 C.ar    
  17 C17           -1.6977     4.5964     1.0196 C.ar    
  18 C18           -3.2772     2.8232     1.3291 C.ar    
  19 C19           -3.9991     3.6246     2.2143 C.ar    
  20 C20           -3.5547     4.9171     2.4972 C.ar    
  21 C21           -2.4088     5.3960     1.8969 C.ar    
  22 C22           -5.2299     3.1069     2.8495 C.2     
  23 S23           -6.2459     3.9935     3.9833 S.3     
  24 C24           -7.3202     2.6013     4.1016 C.2     
  25 C25           -6.8404     1.6347     3.3119 C.2     
  26 N26           -5.7401     1.9244     2.6564 N.2     
  27 O27            6.1103     5.7053     1.2580 O.3     
  28 C28            7.2028     4.8270     1.5356 C.3     
  29 F29            7.4299     4.0011     0.4294 F       
  30 F30            8.3517     5.5805     1.7987 F       
  31 F31            6.8962     4.0394     2.6504 F       
  32 H32            0.2414    -0.1519     1.3519 H       
  33 H33           -0.7609    -0.5671    -0.8778 H       
  34 H34           -1.6515    -1.4362     0.3949 H       
  35 H35           -2.3201     0.0626    -0.2942 H       
  36 H36           -2.8558     0.7507     4.0215 H       
  37 H37            0.6196     3.7910    -0.4953 H       
  38 H38            1.7313     5.9580     0.1997 H       
  39 H39            3.9028     6.9996     0.7056 H       
  40 H40            5.6482     3.1294     1.1908 H       
  41 H41            3.4760     2.0860     0.6915 H       
  42 H42           -0.8545     3.0792    -0.9558 H       
  43 H43           -2.0268     1.7605    -0.7218 H       
  44 H44           -0.8013     4.9762     0.5520 H       
  45 H45           -3.6160     1.8224     1.1058 H       
  46 H46           -4.1091     5.5423     3.1815 H       
  47 H47           -2.0637     6.3958     2.1152 H       
  48 H48           -8.2122     2.5395     4.7073 H       
  49 H49           -7.3297     0.6767     3.2160 H       
@<TRIPOS>BOND
   1    1    2 1
   2    1    6 am
   3    1   15 1
   4    2    3 1
   5    2    4 1
   6    2   32 1
   7    3    5 3
   8    4   33 1
   9    4   34 1
  10    4   35 1
  11    5   36 1
  12    6    7 am
  13    6    8 2
  14    7    9 1
  15    7   37 1
  16    9   10 ar
  17    9   14 ar
  18   10   11 ar
  19   10   38 1
  20   11   12 ar
  21   11   39 1
  22   12   13 ar
  23   12   27 1
  24   13   14 ar
  25   13   40 1
  26   14   41 1
  27   15   16 1
  28   15   42 1
  29   15   43 1
  30   16   17 ar
  31   16   18 ar
  32   17   21 ar
  33   17   44 1
  34   18   19 ar
  35   18   45 1
  36   19   20 ar
  37   19   22 1
  38   20   21 ar
  39   20   46 1
  40   21   47 1
  41   22   23 1
  42   22   26 2
  43   23   24 1
  44   24   25 2
  45   24   48 1
  46   25   26 1
  47   25   49 1
  48   27   28 1
  49   28   29 1
  50   28   30 1
  51   28   31 1

#	End of record

