#	Name: ASD09116094
#	Creating user name:	WinNT
#	Creation time:	15. 06. 2019 21:20

#	Modifying user name:	WinNT
#	Modification time:	15. 06. 2019 21:20

#	Program:	/corina/corina34_cracker 3.40 0067  02.08.2006

@<TRIPOS>MOLECULE
ASD09116094
  64   69    0    0    0
SMALL
NO_CHARGES


@<TRIPOS>ATOM
   1 C1             0.2640     1.2893    -1.3285 C.ar    
   2 N2             0.2300    -0.0845    -1.1009 N.pl3   
   3 N3             1.2526    -0.8719    -0.5472 N.2     
   4 C4             0.8092    -2.1054    -0.5101 C.2     
   5 N5            -0.4324    -2.1408    -1.0078 N.2     
   6 C6            -0.8021    -0.9296    -1.3651 C.2     
   7 N7            -2.0189    -0.5800    -1.9181 N.pl3   
   8 N8             1.5190    -3.2054    -0.0288 N.pl3   
   9 C9             1.4025     2.0388    -0.9983 C.ar    
  10 N10           -0.7782     1.9099    -1.8663 N.ar    
  11 C11           -0.7511     3.2122    -2.0847 C.ar    
  12 N12            0.2861     3.9551    -1.7895 N.ar    
  13 C13            1.3982     3.4159    -1.2424 C.ar    
  14 C14            0.8961    -4.4529     0.0633 C.ar    
  15 C15           -0.4750    -4.5283     0.2775 C.ar    
  16 C16           -1.0671    -5.7731     0.3294 C.ar    
  17 C17           -0.3115    -6.9204     0.1732 C.ar    
  18 C18            1.0606    -6.8780     0.0283 C.ar    
  19 C19            1.6432    -5.6054    -0.0645 C.ar    
  20 C20            2.5996     4.0325    -0.8590 C.2     
  21 C21            3.5197     3.2315    -0.3456 C.2     
  22 S22            2.9428     1.5741    -0.2913 S.3     
  23 C23            2.8276     5.5132    -1.0221 C.3     
  24 C24           -1.0431    -8.2421     0.0764 C.3     
  25 C25           -1.0279    -8.7980    -1.3457 C.3     
  26 N26            0.3252    -8.9868    -1.8461 N.3     
  27 C27            0.9764    -9.9996    -1.0455 C.3     
  28 C28            1.4804    -9.3814     0.2492 C.3     
  29 C29            2.0759    -7.9954     0.0322 C.3     
  30 C30            0.3135    -9.3647    -3.2656 C.3     
  31 C31           -0.4501    -8.3101    -4.0856 C.3     
  32 C32            0.5532    -7.7344    -5.1064 C.3     
  33 C33            1.6195    -8.8473    -5.2599 C.3     
  34 C34            1.7541    -9.3932    -3.8167 C.3     
  35 H35           -2.6932    -1.2594    -2.0755 H       
  36 H36           -2.1989     0.3447    -2.1491 H       
  37 H37            2.4449    -3.1045     0.2420 H       
  38 H38           -1.6182     3.6828    -2.5241 H       
  39 H39           -1.0642    -3.6317     0.4012 H       
  40 H40           -2.1316    -5.8523     0.4939 H       
  41 H41            2.7070    -5.5257    -0.2326 H       
  42 H42            4.4926     3.5537    -0.0051 H       
  43 H43            2.4993     6.0327    -0.1219 H       
  44 H44            3.8890     5.7018    -1.1838 H       
  45 H45            2.2595     5.8761    -1.8787 H       
  46 H46           -0.5665    -8.9608     0.7430 H       
  47 H47           -2.0771    -8.0988     0.3899 H       
  48 H48           -1.5460    -9.7569    -1.3563 H       
  49 H49           -1.5544    -8.1052    -2.0021 H       
  50 H50            0.2662   -10.7942    -0.8167 H       
  51 H51            1.8166   -10.4169    -1.6004 H       
  52 H52            0.6499    -9.3037     0.9509 H       
  53 H53            2.2436   -10.0311     0.6777 H       
  54 H54            2.6010    -7.9896    -0.9229 H       
  55 H55            2.8008    -7.8020     0.8229 H       
  56 H56           -0.1531   -10.3422    -3.3876 H       
  57 H57           -1.2867    -8.7759    -4.6063 H       
  58 H58           -0.8120    -7.5178    -3.4303 H       
  59 H59            0.0604    -7.5441    -6.0599 H       
  60 H60            1.0073    -6.8213    -4.7217 H       
  61 H61            1.2697    -9.6268    -5.9367 H       
  62 H62            2.5657    -8.4306    -5.6051 H       
  63 H63            2.4022    -8.7479    -3.2237 H       
  64 H64            2.1378   -10.4133    -3.8290 H       
@<TRIPOS>BOND
   1    1    2 1
   2    1    9 ar
   3    1   10 ar
   4    2    3 1
   5    2    6 1
   6    3    4 2
   7    4    5 1
   8    4    8 1
   9    5    6 2
  10    6    7 1
  11    7   35 1
  12    7   36 1
  13    8   14 1
  14    8   37 1
  15    9   13 ar
  16    9   22 1
  17   10   11 ar
  18   11   12 ar
  19   11   38 1
  20   12   13 ar
  21   13   20 1
  22   14   15 ar
  23   14   19 ar
  24   15   16 ar
  25   15   39 1
  26   16   17 ar
  27   16   40 1
  28   17   18 ar
  29   17   24 1
  30   18   19 ar
  31   18   29 1
  32   19   41 1
  33   20   21 2
  34   20   23 1
  35   21   22 1
  36   21   42 1
  37   23   43 1
  38   23   44 1
  39   23   45 1
  40   24   25 1
  41   24   46 1
  42   24   47 1
  43   25   26 1
  44   25   48 1
  45   25   49 1
  46   26   27 1
  47   26   30 1
  48   27   28 1
  49   27   50 1
  50   27   51 1
  51   28   29 1
  52   28   52 1
  53   28   53 1
  54   29   54 1
  55   29   55 1
  56   30   31 1
  57   30   34 1
  58   30   56 1
  59   31   32 1
  60   31   57 1
  61   31   58 1
  62   32   33 1
  63   32   59 1
  64   32   60 1
  65   33   34 1
  66   33   61 1
  67   33   62 1
  68   34   63 1
  69   34   64 1

#	End of record

