#	Name: ASD01140421
#	Creating user name:	WinNT
#	Creation time:	15. 06. 2019 19:00

#	Modifying user name:	WinNT
#	Modification time:	15. 06. 2019 19:00

#	Program:	/corina/corina34_cracker 3.40 0067  02.08.2006

@<TRIPOS>MOLECULE
ASD01140421
  47   49    0    0    0
SMALL
NO_CHARGES


@<TRIPOS>ATOM
   1 C1            -0.0305     1.3692     0.1001 C.ar    
   2 C2            -0.0144    -0.0186     0.1217 C.ar    
   3 N3            -1.1367    -0.7105     0.1521 N.ar    
   4 C4            -2.3159    -0.1246     0.1637 C.ar    
   5 C5            -2.4201     1.2669     0.1440 C.ar    
   6 C6            -1.2504     2.0328     0.1165 C.ar    
   7 O7             1.1335     2.0702     0.0688 O.3     
   8 C8             2.3461     1.3142     0.0598 C.3     
   9 C9             3.5417     2.2682     0.0240 C.3     
  10 C10            4.9039     1.5599     0.1345 C.3     
  11 C11            5.3854     2.5286    -0.9607 C.3     
  12 N12            3.9611     2.6474    -1.3433 N.3     
  13 C13           -3.7043     1.9005     0.1561 C.1     
  14 C14           -4.7571     2.4199     0.1661 C.1     
  15 C15           -6.0772     3.0711     0.1786 C.3     
  16 O16           -5.9059     4.5128     0.1534 O.3     
  17 C17           -7.0259     5.2622     0.1609 C.2     
  18 C18           -6.9290     6.7317     0.1365 C.ar    
  19 C19           -5.6820     7.3562     0.2334 C.ar    
  20 O20           -8.1159     4.7255     0.1878 O.2     
  21 C21           -8.0878     7.5143     0.0100 C.ar    
  22 C22           -7.9826     8.8997    -0.0116 C.ar    
  23 C23           -6.7450     9.5005     0.0908 C.ar    
  24 C24           -5.5983     8.7306     0.2100 C.ar    
  25 N25           -9.3321     6.9072    -0.0933 N.pl3   
  26 C26          -10.5485     7.7235    -0.0831 C.3     
  27 H27            0.9316    -0.5397     0.1132 H       
  28 H28           -3.2118    -0.7273     0.1884 H       
  29 H29           -1.2947     3.1118     0.1007 H       
  30 H30            2.3981     0.7001     0.9588 H       
  31 H31            2.3673     0.6719    -0.8206 H       
  32 H32            3.4306     3.1147     0.7017 H       
  33 H33            5.3969     1.7045     1.0958 H       
  34 H34            4.8828     0.5167    -0.1809 H       
  35 H35            5.8143     3.4524    -0.5723 H       
  36 H36            6.0068     2.0569    -1.7220 H       
  37 H37            3.7053     1.9350    -2.0106 H       
  38 H38           -6.6454     2.7574    -0.6971 H       
  39 H39           -6.6150     2.7849     1.0824 H       
  40 H40           -4.7853     6.7614     0.3268 H       
  41 H41           -8.8705     9.5067    -0.1090 H       
  42 H42           -6.6685    10.5777     0.0735 H       
  43 H43           -4.6345     9.2114     0.2899 H       
  44 H44           -9.3960     5.9425    -0.1723 H       
  45 H45          -10.6043     8.2808     0.8520 H       
  46 H46          -10.5253     8.4207    -0.9207 H       
  47 H47          -11.4211     7.0765    -0.1730 H       
@<TRIPOS>BOND
   1    1    2 ar
   2    1    7 1
   3    1    6 ar
   4    2    3 ar
   5    2   27 1
   6    3    4 ar
   7    4    5 ar
   8    4   28 1
   9    5    6 ar
  10    5   13 1
  11    6   29 1
  12    7    8 1
  13    8    9 1
  14    8   30 1
  15    8   31 1
  16    9   10 1
  17    9   12 1
  18    9   32 1
  19   10   11 1
  20   10   33 1
  21   10   34 1
  22   11   12 1
  23   11   35 1
  24   11   36 1
  25   12   37 1
  26   13   14 3
  27   14   15 1
  28   15   16 1
  29   15   38 1
  30   15   39 1
  31   16   17 1
  32   17   18 1
  33   17   20 2
  34   18   19 ar
  35   18   21 ar
  36   19   24 ar
  37   19   40 1
  38   21   22 ar
  39   21   25 1
  40   22   23 ar
  41   22   41 1
  42   23   24 ar
  43   23   42 1
  44   24   43 1
  45   25   26 1
  46   25   44 1
  47   26   45 1
  48   26   46 1
  49   26   47 1

#	End of record

