#	Name: ASD01810284
#	Creating user name:	WinNT
#	Creation time:	15. 06. 2019 19:24

#	Modifying user name:	WinNT
#	Modification time:	15. 06. 2019 19:24

#	Program:	/corina/corina34_cracker 3.40 0067  02.08.2006

@<TRIPOS>MOLECULE
ASD01810284
  48   52    0    0    0
SMALL
NO_CHARGES


@<TRIPOS>ATOM
   1 C1             1.1601     2.2504    -0.5160 C.ar    
   2 C2             0.7831     0.9163    -0.5005 C.ar    
   3 C3             1.7245    -0.0811    -0.3477 C.ar    
   4 C4             3.0715     0.2477    -0.2073 C.ar    
   5 C5             3.4523     1.6004    -0.2236 C.ar    
   6 C6             2.4885     2.6000    -0.3786 C.ar    
   7 N7             4.0213    -0.7402    -0.0534 N.pl3   
   8 C8             5.3266    -0.4759     0.0860 C.2     
   9 C9             5.8200     0.8132     0.0854 C.2     
  10 C10            4.8797     1.9346    -0.0742 C.2     
  11 O11            5.2654     3.0906    -0.0812 O.2     
  12 C12            3.5837    -2.1382    -0.0416 C.3     
  13 C13            3.4399    -2.6316    -1.4583 C.ar    
  14 C14            4.5232    -2.5801    -2.3203 C.ar    
  15 C15            4.3960    -3.0320    -3.6206 C.ar    
  16 C16            3.1752    -3.5396    -4.0622 C.ar    
  17 C17            2.0890    -3.5883    -3.1887 C.ar    
  18 C18            2.2284    -3.1395    -1.8915 C.ar    
  19 C19            3.0319    -4.0252    -5.4548 C.ar    
  20 C20            7.2599     1.0620     0.2416 C.2     
  21 O21            7.7297     2.3256     0.2395 O.3     
  22 O22            8.0274     0.1284     0.3727 O.2     
  23 F23            5.7051    -2.0872    -1.8899 F       
  24 F24            2.8544     3.9004    -0.3948 F       
  25 F25            1.3403    -1.3763    -0.3339 F       
  26 C26            2.4733    -5.2899    -5.7112 C.ar    
  27 C27            2.3412    -5.7412    -7.0360 C.ar    
  28 C28            2.7659    -4.9284    -8.0821 C.ar    
  29 C29            3.3124    -3.6899    -7.8199 C.ar    
  30 C30            3.4429    -3.2328    -6.5191 C.ar    
  31 C31            1.9436    -6.3576    -4.8636 C.2     
  32 C32            1.5411    -7.3450    -5.6811 C.2     
  33 N33            1.7711    -6.9939    -6.9830 N.pl3   
  34 H34            0.4119     3.0192    -0.6406 H       
  35 H35           -0.2592     0.6548    -0.6089 H       
  36 H36            6.0162    -1.2988     0.2031 H       
  37 H37            4.3222    -2.7457     0.4815 H       
  38 H38            2.6235    -2.2140     0.4688 H       
  39 H39            5.2404    -2.9915    -4.2927 H       
  40 H40            1.1411    -3.9808    -3.5262 H       
  41 H41            1.3874    -3.1776    -1.2149 H       
  42 H42            8.6841     2.4393     0.3453 H       
  43 H43            2.6675    -5.2686    -9.1024 H       
  44 H44            3.6393    -3.0669    -8.6394 H       
  45 H45            3.8732    -2.2602    -6.3311 H       
  46 H46            1.8871    -6.3533    -3.7851 H       
  47 H47            1.1019    -8.2773    -5.3583 H       
  48 H48            1.5638    -7.5451    -7.7538 H       
@<TRIPOS>BOND
   1    1    2 ar
   2    1    6 ar
   3    1   34 1
   4    2    3 ar
   5    2   35 1
   6    3    4 ar
   7    3   25 1
   8    4    5 ar
   9    4    7 1
  10    5    6 ar
  11    5   10 1
  12    6   24 1
  13    7    8 1
  14    7   12 1
  15    8    9 2
  16    8   36 1
  17    9   10 1
  18    9   20 1
  19   10   11 2
  20   12   13 1
  21   12   37 1
  22   12   38 1
  23   13   14 ar
  24   13   18 ar
  25   14   15 ar
  26   14   23 1
  27   15   16 ar
  28   15   39 1
  29   16   17 ar
  30   16   19 1
  31   17   18 ar
  32   17   40 1
  33   18   41 1
  34   19   26 ar
  35   19   30 ar
  36   20   21 1
  37   20   22 2
  38   21   42 1
  39   26   27 ar
  40   26   31 1
  41   27   28 ar
  42   27   33 1
  43   28   29 ar
  44   28   43 1
  45   29   30 ar
  46   29   44 1
  47   30   45 1
  48   31   32 2
  49   31   46 1
  50   32   33 1
  51   32   47 1
  52   33   48 1

#	End of record

