#	Name: ASD01890044
#	Creating user name:	WinNT
#	Creation time:	15. 06. 2019 19:50

#	Modifying user name:	WinNT
#	Modification time:	15. 06. 2019 19:50

#	Program:	/corina/corina34_cracker 3.40 0067  02.08.2006

@<TRIPOS>MOLECULE
ASD01890044
  26   26    0    0    0
SMALL
NO_CHARGES


@<TRIPOS>ATOM
   1 C1            -0.0184     1.5028     0.0103 C.2     
   2 C2             0.0021    -0.0041     0.0020 C.3     
   3 C3             1.4513    -0.4944    -0.0145 C.3     
   4 C4             2.1422    -0.0874     1.2886 C.3     
   5 O5             1.0197     2.1211     0.0037 O.2     
   6 O6            -1.1898     2.1580     0.0194 O.3     
   7 C7             1.4723    -1.9954    -0.1466 C.ar    
   8 C8             2.0995    -2.5851    -1.2282 C.ar    
   9 C9             2.1191    -3.9618    -1.3499 C.ar    
  10 C10            1.5108    -4.7496    -0.3889 C.ar    
  11 C11            0.8832    -4.1589     0.6933 C.ar    
  12 C12            0.8692    -2.7823     0.8169 C.ar    
  13 Cl13           1.5345    -6.4788    -0.5414 Cl      
  14 N14            3.5638    -0.4519     1.2236 N.3     
  15 H15           -0.4983    -0.3791     0.8948 H       
  16 H16           -0.5153    -0.3696    -0.8850 H       
  17 H17            1.9763    -0.0479    -0.8589 H       
  18 H18            2.0494     0.9897     1.4280 H       
  19 H19            1.6725    -0.6039     2.1256 H       
  20 H20           -1.1523     3.1243     0.0245 H       
  21 H21            2.5740    -1.9700    -1.9784 H       
  22 H22            2.6089    -4.4224    -2.1951 H       
  23 H23            0.4082    -4.7734     1.4437 H       
  24 H24            0.3831    -2.3212     1.6639 H       
  25 H25            4.0071    -0.0367     0.4179 H       
  26 H26            4.0426    -0.1932     2.0732 H       
@<TRIPOS>BOND
   1    1    2 1
   2    1    5 2
   3    1    6 1
   4    2    3 1
   5    2   15 1
   6    2   16 1
   7    3    4 1
   8    3    7 1
   9    3   17 1
  10    4   14 1
  11    4   18 1
  12    4   19 1
  13    6   20 1
  14    7    8 ar
  15    7   12 ar
  16    8    9 ar
  17    8   21 1
  18    9   10 ar
  19    9   22 1
  20   10   11 ar
  21   10   13 1
  22   11   12 ar
  23   11   23 1
  24   12   24 1
  25   14   25 1
  26   14   26 1

#	End of record

