#	Name: ASD01917376
#	Creating user name:	WinNT
#	Creation time:	15. 06. 2019 20:09

#	Modifying user name:	WinNT
#	Modification time:	15. 06. 2019 20:09

#	Program:	/corina/corina34_cracker 3.40 0067  02.08.2006

@<TRIPOS>MOLECULE
ASD01917376
  40   41    0    0    0
SMALL
NO_CHARGES


@<TRIPOS>ATOM
   1 C1            -0.0188     1.5345     0.0105 C.3     
   2 C2             0.0021    -0.0041     0.0020 C.3     
   3 C3             1.0346    -0.4943     1.0190 C.3     
   4 C4             0.7319     0.0808     2.4040 C.3     
   5 C5             0.6797     1.6157     2.3091 C.3     
   6 C6             1.8973     2.0694     1.4711 C.3     
   7 C7             1.4500     2.0174    -0.0010 C.3     
   8 C8            -0.5348     1.9653     1.4089 C.3     
   9 C9            -0.8269     2.1076    -1.1251 C.2     
  10 O10           -0.3038     2.8442    -1.9274 O.2     
  11 O11           -2.1279     1.7997    -1.2453 O.3     
  12 C12            0.6279     2.2768     3.6623 C.2     
  13 O13           -0.3038     2.9897     3.9512 O.2     
  14 O14            1.6169     2.0735     4.5469 O.3     
  15 C15           -2.8439     2.3879    -2.3632 C.3     
  16 C16           -4.3021     1.9254    -2.3350 C.3     
  17 C17            1.5009     2.7421     5.8305 C.3     
  18 C18            2.7117     2.3933     6.6984 C.3     
  19 H19           -0.9836    -0.3836     0.2712 H       
  20 H20            0.2722    -0.3597    -0.9923 H       
  21 H21            1.0056    -1.5829     1.0662 H       
  22 H22            2.0288    -0.1759     0.7056 H       
  23 H23           -0.2295    -0.2959     2.7531 H       
  24 H24            1.5160    -0.2150     3.1010 H       
  25 H25            2.1797     3.0869     1.7411 H       
  26 H26            2.7360     1.3921     1.6319 H       
  27 H27            2.0710     1.3148    -0.5566 H       
  28 H28            1.5146     3.0097    -0.4474 H       
  29 H29           -0.7460     3.0343     1.4353 H       
  30 H30           -1.4134     1.3877     1.6963 H       
  31 H31           -2.8059     3.4746    -2.2877 H       
  32 H32           -2.3806     2.0722    -3.2980 H       
  33 H33           -4.8396     2.3669    -3.1742 H       
  34 H34           -4.3401     0.8387    -2.4105 H       
  35 H35           -4.7653     2.2411    -1.4002 H       
  36 H36            1.4629     3.8205     5.6764 H       
  37 H37            0.5893     2.4141     6.3300 H       
  38 H38            2.7497     1.3149     6.8526 H       
  39 H39            3.6233     2.7213     6.1990 H       
  40 H40            2.6246     2.8952     7.6621 H       
@<TRIPOS>BOND
   1    1    2 1
   2    1    7 1
   3    1    8 1
   4    1    9 1
   5    2    3 1
   6    2   19 1
   7    2   20 1
   8    3    4 1
   9    3   21 1
  10    3   22 1
  11    4    5 1
  12    4   23 1
  13    4   24 1
  14    5    6 1
  15    5    8 1
  16    5   12 1
  17    6    7 1
  18    6   25 1
  19    6   26 1
  20    7   27 1
  21    7   28 1
  22    8   29 1
  23    8   30 1
  24    9   10 2
  25    9   11 1
  26   11   15 1
  27   12   13 2
  28   12   14 1
  29   14   17 1
  30   15   16 1
  31   15   31 1
  32   15   32 1
  33   16   33 1
  34   16   34 1
  35   16   35 1
  36   17   18 1
  37   17   36 1
  38   17   37 1
  39   18   38 1
  40   18   39 1
  41   18   40 1

#	End of record

