#	Name: ASD01890438
#	Creating user name:	WinNT
#	Creation time:	15. 06. 2019 19:51

#	Modifying user name:	WinNT
#	Modification time:	15. 06. 2019 19:51

#	Program:	/corina/corina34_cracker 3.40 0067  02.08.2006

@<TRIPOS>MOLECULE
ASD01890438
  57   58    0    0    0
SMALL
NO_CHARGES


@<TRIPOS>ATOM
   1 C1             0.0437     1.6083     0.2258 C.2     
   2 C2             0.0612     0.1083     0.0823 C.3     
   3 C3             1.4858    -0.3683    -0.0376 C.2     
   4 O4             0.9030     2.1638     0.8684 O.2     
   5 O5            -0.9234     2.3278    -0.3648 O.3     
   6 O6             1.9357    -1.1388     0.7771 O.2     
   7 O7             2.2550     0.0633    -1.0495 O.3     
   8 C8            -0.5881    -0.5293     1.3123 C.3     
   9 C9            -1.9851     0.0607     1.5151 C.3     
  10 C10           -2.5663    -0.4566     2.8057 C.2     
  11 O11           -1.9264    -1.2218     3.4951 O.2     
  12 C12           -3.9103    -0.0333     3.2291 C.ar    
  13 C13           -4.4531    -0.5114     4.4263 C.ar    
  14 C14           -5.7130    -0.1103     4.8164 C.ar    
  15 C15           -6.4408     0.7637     4.0262 C.ar    
  16 C16           -5.9102     1.2409     2.8394 C.ar    
  17 C17           -4.6492     0.8537     2.4392 C.ar    
  18 I18           -8.3545     1.3664     4.6291 I       
  19 C19           -0.6966    -2.0185     1.1079 C.ar    
  20 C20           -0.0647    -2.8836     1.9816 C.ar    
  21 C21           -0.1639    -4.2495     1.7946 C.ar    
  22 C22           -0.8957    -4.7508     0.7329 C.ar    
  23 C23           -1.5278    -3.8844    -0.1411 C.ar    
  24 C24           -1.4326    -2.5189     0.0501 C.ar    
  25 Cl25          -1.0202    -6.4662     0.4971 Cl      
  26 C26           -0.8776     3.7678    -0.1840 C.3     
  27 O27            0.1766     4.3262    -1.0117 O.3     
  28 C28           -0.0632     4.4099    -2.3297 C.2     
  29 O29           -1.1191     4.0292    -2.7770 O.2     
  30 C30            0.9844     4.9788    -3.2516 C.3     
  31 C31            3.6169    -0.4373    -1.1022 C.3     
  32 O32            3.6093    -1.8128    -1.5673 O.3     
  33 C33            3.3908    -2.0122    -2.8766 C.2     
  34 O34            3.2118    -1.0686    -3.6098 O.2     
  35 C35            3.3687    -3.4129    -3.4321 C.3     
  36 H36           -0.4940    -0.1778    -0.8110 H       
  37 H37            0.0231    -0.3269     2.1918 H       
  38 H38           -1.9177     1.1478     1.5570 H       
  39 H39           -2.6272    -0.2318     0.6844 H       
  40 H40           -3.8868    -1.1933     5.0433 H       
  41 H41           -6.1336    -0.4789     5.7403 H       
  42 H42           -6.4838     1.9219     2.2283 H       
  43 H43           -4.2345     1.2307     1.5160 H       
  44 H44            0.5068    -2.4922     2.8101 H       
  45 H45            0.3301    -4.9253     2.4770 H       
  46 H46           -2.0992    -4.2752    -0.9701 H       
  47 H47           -1.9297    -1.8426    -0.6296 H       
  48 H48           -1.8349     4.2010    -0.4736 H       
  49 H49           -0.6772     3.9963     0.8628 H       
  50 H50            1.8615     5.2659    -2.6717 H       
  51 H51            1.2664     4.2272    -3.9889 H       
  52 H52            0.5830     5.8548    -3.7611 H       
  53 H53            4.2028     0.1748    -1.7879 H       
  54 H54            4.0592    -0.3928    -0.1070 H       
  55 H55            3.5479    -4.1258    -2.6273 H       
  56 H56            2.3957    -3.6099    -3.8822 H       
  57 H57            4.1466    -3.5160    -4.1887 H       
@<TRIPOS>BOND
   1    1    2 1
   2    1    4 2
   3    1    5 1
   4    2    3 1
   5    2    8 1
   6    2   36 1
   7    3    6 2
   8    3    7 1
   9    5   26 1
  10    7   31 1
  11    8    9 1
  12    8   19 1
  13    8   37 1
  14    9   10 1
  15    9   38 1
  16    9   39 1
  17   10   11 2
  18   10   12 1
  19   12   13 ar
  20   12   17 ar
  21   13   14 ar
  22   13   40 1
  23   14   15 ar
  24   14   41 1
  25   15   16 ar
  26   15   18 1
  27   16   17 ar
  28   16   42 1
  29   17   43 1
  30   19   20 ar
  31   19   24 ar
  32   20   21 ar
  33   20   44 1
  34   21   22 ar
  35   21   45 1
  36   22   23 ar
  37   22   25 1
  38   23   24 ar
  39   23   46 1
  40   24   47 1
  41   26   27 1
  42   26   48 1
  43   26   49 1
  44   27   28 1
  45   28   29 2
  46   28   30 1
  47   30   50 1
  48   30   51 1
  49   30   52 1
  50   31   32 1
  51   31   53 1
  52   31   54 1
  53   32   33 1
  54   33   34 2
  55   33   35 1
  56   35   55 1
  57   35   56 1
  58   35   57 1

#	End of record

