#	Name: ASD03081368
#	Creating user name:	WinNT
#	Creation time:	15. 06. 2019 20:27

#	Modifying user name:	WinNT
#	Modification time:	15. 06. 2019 20:27

#	Program:	/corina/corina34_cracker 3.40 0067  02.08.2006

@<TRIPOS>MOLECULE
ASD03081368
  31   34    0    0    0
SMALL
NO_CHARGES


@<TRIPOS>ATOM
   1 O1            -0.0162     1.3444     0.0094 O.3     
   2 C2             0.0021    -0.0041     0.0020 C.2     
   3 N3             1.2607    -0.3807    -0.0120 N.2     
   4 N4             2.0179     0.6595    -0.0137 N.2     
   5 C5             1.2726     1.7417    -0.0007 C.2     
   6 N6             1.2443     5.4499     0.0181 N.ar    
   7 C7             0.8424     4.2052     0.0157 C.ar    
   8 C8             1.7572     3.1367     0.0017 C.ar    
   9 C9             3.1211     3.4047    -0.0094 C.ar    
  10 C10            3.5285     4.7497    -0.0060 C.ar    
  11 C11            4.8896     5.0982    -0.0171 C.ar    
  12 C12            5.2480     6.4119    -0.0140 C.ar    
  13 C13            4.2819     7.4155     0.0005 C.ar    
  14 C14            2.9543     7.1134     0.0115 C.ar    
  15 C15            2.5436     5.7698     0.0083 C.ar    
  16 C16           -2.4678    -0.3630     0.0252 C.ar    
  17 C17           -1.1769    -0.8944     0.0092 C.ar    
  18 C18           -1.0185    -2.2855    -0.0003 C.ar    
  19 C19           -2.1551    -3.0750     0.0066 C.ar    
  20 C20           -3.3992    -2.4707     0.0225 C.ar    
  21 N21           -3.5184    -1.1567     0.0312 N.ar    
  22 H22           -0.2164     3.9928     0.0239 H       
  23 H23            3.8456     2.6038    -0.0199 H       
  24 H24            5.6472     4.3286    -0.0276 H       
  25 H25            6.2943     6.6792    -0.0225 H       
  26 H26            4.5911     8.4503     0.0034 H       
  27 H27            2.2190     7.9044     0.0231 H       
  28 H28           -2.6059     0.7081     0.0372 H       
  29 H29           -0.0348    -2.7310    -0.0131 H       
  30 H30           -2.0716    -4.1517    -0.0008 H       
  31 H31           -4.2877    -3.0846     0.0279 H       
@<TRIPOS>BOND
   1    1    2 1
   2    1    5 1
   3    2    3 2
   4    2   17 1
   5    3    4 1
   6    4    5 2
   7    5    8 1
   8    6    7 ar
   9    6   15 ar
  10    7    8 ar
  11    7   22 1
  12    8    9 ar
  13    9   10 ar
  14    9   23 1
  15   10   11 ar
  16   10   15 ar
  17   11   12 ar
  18   11   24 1
  19   12   13 ar
  20   12   25 1
  21   13   14 ar
  22   13   26 1
  23   14   15 ar
  24   14   27 1
  25   16   17 ar
  26   16   21 ar
  27   16   28 1
  28   17   18 ar
  29   18   19 ar
  30   18   29 1
  31   19   20 ar
  32   19   30 1
  33   20   21 ar
  34   20   31 1

#	End of record

