#	Name: ASD03731486
#	Creating user name:	WinNT
#	Creation time:	15. 06. 2019 20:45

#	Modifying user name:	WinNT
#	Modification time:	15. 06. 2019 20:45

#	Program:	/corina/corina34_cracker 3.40 0067  02.08.2006

@<TRIPOS>MOLECULE
ASD03731486
  56   62    0    0    0
SMALL
NO_CHARGES


@<TRIPOS>ATOM
   1 N1            -0.0144     1.2107     0.0087 N.2     
   2 O2             0.0021    -0.0041     0.0020 O.3     
   3 N3             1.0983    -0.5274    -0.0113 N.2     
   4 C4             2.0186     0.4058    -0.0150 C.ar    
   5 C5             1.2166     1.6552    -0.0007 C.ar    
   6 C6             3.4215     0.5037    -0.0275 C.ar    
   7 C7             4.0194     1.7449    -0.0262 C.ar    
   8 C8             3.2678     2.9396    -0.0126 C.ar    
   9 C9             1.9140     2.9298    -0.0005 C.ar    
  10 C10            5.4951     1.8281    -0.0389 C.2     
  11 O11            6.1611     0.8113    -0.0503 O.2     
  12 N12            6.1022     3.0314    -0.0379 N.am    
  13 C13            7.5648     3.1139    -0.0505 C.3     
  14 C14            7.9928     4.5828    -0.0465 C.3     
  15 C15            9.5204     4.6689    -0.0596 C.3     
  16 O16            6.3818    10.7515     2.1408 O.3     
  17 C17            6.3782    12.1695     2.3907 C.3     
  18 O18            7.6998    12.4309     2.8985 O.3     
  19 C19            8.4967    11.4610     2.3607 C.ar    
  20 C20            7.6857    10.4282     1.8960 C.ar    
  21 C21            9.8709    11.3749     2.2272 C.ar    
  22 C22           10.4530    10.2600     1.6316 C.ar    
  23 C23            9.6329     9.2309     1.1787 C.ar    
  24 C24            8.2621     9.3165     1.3049 C.ar    
  25 O25           11.7672     9.9871     1.3896 O.3     
  26 C26           10.5439     8.1710     0.6196 C.3     
  27 C27           11.9241     8.5742     1.1564 C.3     
  28 N28            9.9302     6.0754    -0.0557 N.am    
  29 C29           10.1512     6.7917     1.0646 C.2     
  30 C30           10.5173     8.1281    -0.8795 C.ar    
  31 C31           10.7769     9.0566    -1.8626 C.ar    
  32 C32           10.6636     8.7044    -3.1958 C.ar    
  33 C33           10.2884     7.4180    -3.5383 C.ar    
  34 C34           10.0264     6.4846    -2.5572 C.ar    
  35 C35           10.1383     6.8302    -1.2126 C.ar    
  36 O36           10.0525     6.3990     2.2079 O.2     
  37 H37            4.0274    -0.3902    -0.0377 H       
  38 H38            3.7866     3.8869    -0.0118 H       
  39 H39            1.3600     3.8568     0.0094 H       
  40 H40            5.5707     3.8428    -0.0288 H       
  41 H41            7.9644     2.6165     0.8333 H       
  42 H42            7.9485     2.6261    -0.9466 H       
  43 H43            7.5932     5.0801    -0.9302 H       
  44 H44            7.6091     5.0705     0.8496 H       
  45 H45            9.9200     4.1716     0.8241 H       
  46 H46            9.9040     4.1811    -0.9557 H       
  47 H47            6.2071    12.7208     1.4661 H       
  48 H48            5.6243    12.4252     3.1353 H       
  49 H49           10.4962    12.1784     2.5875 H       
  50 H50            7.6367     8.5143     0.9420 H       
  51 H51           12.6984     8.3883     0.4121 H       
  52 H52           12.1458     8.0506     2.0864 H       
  53 H53           11.0695    10.0606    -1.5928 H       
  54 H54           10.8679     9.4321    -3.9671 H       
  55 H55           10.1998     7.1431    -4.5790 H       
  56 H56            9.7334     5.4823    -2.8325 H       
@<TRIPOS>BOND
   1    1    2 1
   2    1    5 2
   3    2    3 1
   4    3    4 2
   5    4    5 ar
   6    4    6 ar
   7    5    9 ar
   8    6    7 ar
   9    6   37 1
  10    7    8 ar
  11    7   10 1
  12    8    9 ar
  13    8   38 1
  14    9   39 1
  15   10   11 2
  16   10   12 am
  17   12   13 1
  18   12   40 1
  19   13   14 1
  20   13   41 1
  21   13   42 1
  22   14   15 1
  23   14   43 1
  24   14   44 1
  25   15   28 1
  26   15   45 1
  27   15   46 1
  28   16   17 1
  29   16   20 1
  30   17   18 1
  31   17   47 1
  32   17   48 1
  33   18   19 1
  34   19   20 ar
  35   19   21 ar
  36   20   24 ar
  37   21   22 ar
  38   21   49 1
  39   22   23 ar
  40   22   25 1
  41   23   24 ar
  42   23   26 1
  43   24   50 1
  44   25   27 1
  45   26   27 1
  46   26   29 1
  47   26   30 1
  48   27   51 1
  49   27   52 1
  50   28   29 am
  51   28   35 1
  52   29   36 2
  53   30   31 ar
  54   30   35 ar
  55   31   32 ar
  56   31   53 1
  57   32   33 ar
  58   32   54 1
  59   33   34 ar
  60   33   55 1
  61   34   35 ar
  62   34   56 1

#	End of record

