#	Name: ASD01916850
#	Creating user name:	WinNT
#	Creation time:	15. 06. 2019 20:08

#	Modifying user name:	WinNT
#	Modification time:	15. 06. 2019 20:08

#	Program:	/corina/corina34_cracker 3.40 0067  02.08.2006

@<TRIPOS>MOLECULE
ASD01916850
  58   61    0    0    0
SMALL
NO_CHARGES


@<TRIPOS>ATOM
   1 C1            -0.0167     1.3810     0.0096 C.ar    
   2 C2             0.0021    -0.0041     0.0020 C.ar    
   3 C3             1.2091    -0.6845    -0.0127 C.ar    
   4 C4             2.3978     0.0155    -0.0199 C.ar    
   5 C5             2.3835     1.4091    -0.0128 C.ar    
   6 C6             1.1677     2.0892     0.0021 C.ar    
   7 C7             3.6597     2.1663    -0.0200 C.2     
   8 N8             3.7758     3.5011    -0.0142 N.2     
   9 N9             4.8641     1.6385    -0.0273 N.2     
  10 N10            5.7738     2.7084    -0.0322 N.pl3   
  11 C11            5.0392     3.8351    -0.0234 C.2     
  12 C12            5.5803     5.2416    -0.0251 C.3     
  13 C13            7.2359     2.6155    -0.0408 C.3     
  14 C14            7.7288     2.5848    -1.4646 C.2     
  15 O15            6.9369     2.6356    -2.3818 O.2     
  16 N16            9.0498     2.5010    -1.7187 N.am    
  17 C17            9.5522     2.4698    -3.1007 C.3     
  18 C18           10.6443     3.5349    -3.2458 C.3     
  19 N19           11.6647     3.3297    -2.2091 N.3     
  20 C20           11.1006     3.5047    -0.8641 C.3     
  21 C21           10.0275     2.4445    -0.6214 C.3     
  22 C22           12.7521     4.1728    -2.4067 C.ar    
  23 N23           12.7551     5.0106    -3.4322 N.ar    
  24 C24           13.8249     4.1328    -1.5223 C.ar    
  25 C25           13.7671     5.8272    -3.6555 C.ar    
  26 C26           14.8671     5.8363    -2.8211 C.ar    
  27 C27           14.9006     4.9773    -1.7308 C.ar    
  28 F28           -1.1597    -0.6935     0.0095 F       
  29 C29            5.7509     5.7207    -1.4681 C.3     
  30 C30            6.3003     7.1487    -1.4698 C.3     
  31 C31            1.2233    -2.1914    -0.0205 C.3     
  32 H32           -0.9597     1.9075     0.0170 H       
  33 H33            3.3381    -0.5156    -0.0307 H       
  34 H34            1.1522     3.1691     0.0074 H       
  35 H35            4.8846     5.8992     0.4961 H       
  36 H36            6.5458     5.2601     0.4804 H       
  37 H37            7.6579     3.4802     0.4713 H       
  38 H38            7.5450     1.7038     0.4704 H       
  39 H39            9.9691     1.4861    -3.3165 H       
  40 H40            8.7370     2.6848    -3.7916 H       
  41 H41           11.1045     3.4522    -4.2304 H       
  42 H42           10.2039     4.5254    -3.1316 H       
  43 H43           11.8916     3.4002    -0.1214 H       
  44 H44           10.6538     4.4956    -0.7831 H       
  45 H45            9.5274     2.6402     0.3272 H       
  46 H46           10.4873     1.4565    -0.5991 H       
  47 H47           13.8181     3.4520    -0.6839 H       
  48 H48           13.7347     6.4971    -4.5021 H       
  49 H49           15.6909     6.5080    -3.0119 H       
  50 H50           15.7496     4.9653    -1.0633 H       
  51 H51            6.4466     5.0631    -1.9894 H       
  52 H52            4.7854     5.7022    -1.9737 H       
  53 H53            7.2658     7.1671    -0.9643 H       
  54 H54            6.4219     7.4900    -2.4979 H       
  55 H55            5.6046     7.8062    -0.9486 H       
  56 H56            1.2171    -2.5496    -1.0499 H       
  57 H57            2.1214    -2.5489     0.4831 H       
  58 H58            0.3416    -2.5658     0.4998 H       
@<TRIPOS>BOND
   1    1    2 ar
   2    1    6 ar
   3    1   32 1
   4    2    3 ar
   5    2   28 1
   6    3    4 ar
   7    3   31 1
   8    4    5 ar
   9    4   33 1
  10    5    6 ar
  11    5    7 1
  12    6   34 1
  13    7    8 1
  14    7    9 2
  15    8   11 2
  16    9   10 1
  17   10   11 1
  18   10   13 1
  19   11   12 1
  20   12   29 1
  21   12   35 1
  22   12   36 1
  23   13   14 1
  24   13   37 1
  25   13   38 1
  26   14   15 2
  27   14   16 am
  28   16   17 1
  29   16   21 1
  30   17   18 1
  31   17   39 1
  32   17   40 1
  33   18   19 1
  34   18   41 1
  35   18   42 1
  36   19   20 1
  37   19   22 1
  38   20   21 1
  39   20   43 1
  40   20   44 1
  41   21   45 1
  42   21   46 1
  43   22   23 ar
  44   22   24 ar
  45   23   25 ar
  46   24   27 ar
  47   24   47 1
  48   25   26 ar
  49   25   48 1
  50   26   27 ar
  51   26   49 1
  52   27   50 1
  53   29   30 1
  54   29   51 1
  55   29   52 1
  56   30   53 1
  57   30   54 1
  58   30   55 1
  59   31   56 1
  60   31   57 1
  61   31   58 1

#	End of record

