#	Name: ASD08150397
#	Creating user name:	WinNT
#	Creation time:	15. 06. 2019 21:15

#	Modifying user name:	WinNT
#	Modification time:	15. 06. 2019 21:15

#	Program:	/corina/corina34_cracker 3.40 0067  02.08.2006

@<TRIPOS>MOLECULE
ASD08150397
  52   56    0    0    0
SMALL
NO_CHARGES


@<TRIPOS>ATOM
   1 N1             0.0005     1.4697    -0.1473 N.am    
   2 C2             0.0787     0.1234    -0.0441 C.2     
   3 C3             1.2680    -0.5541    -0.3765 C.2     
   4 C4             2.3739     0.1606    -0.7037 C.2     
   5 C5             2.3252     1.5742    -0.6348 C.ar    
   6 C6             3.4426     2.3462    -1.0051 C.ar    
   7 N7             3.4271     3.6473    -0.9003 N.ar    
   8 C8             2.3834     4.3025    -0.3715 C.ar    
   9 C9             1.2380     3.5922     0.0795 C.ar    
  10 C10            1.1319     2.2196    -0.2472 C.ar    
  11 C11            0.2946     4.2808     0.8453 C.ar    
  12 C12            0.4076     5.6508     1.0287 C.ar    
  13 C13            1.4612     6.3604     0.4377 C.ar    
  14 C14            2.4293     5.7009    -0.2513 C.ar    
  15 O15           -0.8914    -0.5041     0.3415 O.2     
  16 C16           -0.5940     6.3672     1.8552 C.ar    
  17 C17           -1.3397     2.0545    -0.2516 C.3     
  18 C18           -1.7125     5.6851     2.3601 C.ar    
  19 N19           -2.6123     6.2918     3.0917 N.ar    
  20 C20           -2.5115     7.5903     3.3950 C.ar    
  21 C21           -1.4103     8.3481     2.9229 C.ar    
  22 C22           -0.4296     7.7151     2.1400 C.ar    
  23 C23           -3.4886     8.2248     4.1819 C.ar    
  24 C24           -3.3649     9.5475     4.4774 C.ar    
  25 C25           -2.2818    10.2906     4.0119 C.ar    
  26 C26           -1.3154     9.7121     3.2474 C.ar    
  27 C27           -1.7448     2.1418    -1.7244 C.3     
  28 N28           -3.0998     2.6998    -1.8273 N.3     
  29 C29           -3.3754     3.1647    -3.1933 C.3     
  30 C30           -4.1061     1.7227    -1.3908 C.3     
  31 H31            1.3001    -1.6324    -0.3721 H       
  32 H32            3.2786    -0.3428    -1.0132 H       
  33 H33            4.3261     1.8527    -1.3829 H       
  34 H34           -0.5048     3.7630     1.3544 H       
  35 H35            1.5038     7.4344     0.5295 H       
  36 H36            3.2374     6.2537    -0.7077 H       
  37 H37           -2.0523     1.4280     0.2847 H       
  38 H38           -1.3350     3.0538     0.1837 H       
  39 H39           -1.8334     4.6348     2.1393 H       
  40 H40            0.4220     8.2632     1.7648 H       
  41 H41           -4.3350     7.6643     4.5504 H       
  42 H42           -4.1188    10.0293     5.0823 H       
  43 H43           -2.2082    11.3390     4.2609 H       
  44 H44           -0.4805    10.2980     2.8924 H       
  45 H45           -1.0451     2.7865    -2.2562 H       
  46 H46           -1.7279     1.1452    -2.1656 H       
  47 H47           -3.2884     2.3279    -3.8864 H       
  48 H48           -4.3849     3.5730    -3.2415 H       
  49 H49           -2.6573     3.9382    -3.4656 H       
  50 H50           -3.9998     1.5451    -0.3206 H       
  51 H51           -5.1034     2.1112    -1.5973 H       
  52 H52           -3.9618     0.7867    -1.9305 H       
@<TRIPOS>BOND
   1    1    2 am
   2    1   10 1
   3    1   17 1
   4    2    3 1
   5    2   15 2
   6    3    4 2
   7    3   31 1
   8    4    5 1
   9    4   32 1
  10    5    6 ar
  11    5   10 ar
  12    6    7 ar
  13    6   33 1
  14    7    8 ar
  15    8    9 ar
  16    8   14 ar
  17    9   10 ar
  18    9   11 ar
  19   11   12 ar
  20   11   34 1
  21   12   13 ar
  22   12   16 1
  23   13   14 ar
  24   13   35 1
  25   14   36 1
  26   16   18 ar
  27   16   22 ar
  28   17   27 1
  29   17   37 1
  30   17   38 1
  31   18   19 ar
  32   18   39 1
  33   19   20 ar
  34   20   21 ar
  35   20   23 ar
  36   21   22 ar
  37   21   26 ar
  38   22   40 1
  39   23   24 ar
  40   23   41 1
  41   24   25 ar
  42   24   42 1
  43   25   26 ar
  44   25   43 1
  45   26   44 1
  46   27   28 1
  47   27   45 1
  48   27   46 1
  49   28   29 1
  50   28   30 1
  51   29   47 1
  52   29   48 1
  53   29   49 1
  54   30   50 1
  55   30   51 1
  56   30   52 1

#	End of record

