#	Name: ASD04910509
#	Creating user name:	WinNT
#	Creation time:	15. 06. 2019 20:56

#	Modifying user name:	WinNT
#	Modification time:	15. 06. 2019 20:56

#	Program:	/corina/corina34_cracker 3.40 0067  02.08.2006

@<TRIPOS>MOLECULE
ASD04910509
  61   64    0    0    0
SMALL
NO_CHARGES


@<TRIPOS>ATOM
   1 N1             0.2241     1.2839    -0.2586 N.pl3   
   2 C2             0.1286    -0.1629    -0.0490 C.3     
   3 C3             0.3112    -0.4760     1.4375 C.3     
   4 C4            -1.2244    -0.6479    -0.5020 C.ar    
   5 C5             1.7128    -0.0404     1.8996 C.3     
   6 C6            -1.3358    -1.8480    -1.1797 C.ar    
   7 C7            -2.5746    -2.2953    -1.5958 C.ar    
   8 C8            -3.7086    -1.5387    -1.3328 C.ar    
   9 C9            -3.5935    -0.3342    -0.6521 C.ar    
  10 C10           -2.3527     0.1054    -0.2340 C.ar    
  11 C11           -2.6951    -3.6031    -2.3348 C.3     
  12 C12           -4.8219     0.4903    -0.3651 C.3     
  13 N13           -4.9671    -1.9899    -1.7542 N.pl3   
  14 N14           -5.3078    -2.3877    -3.0535 N.2     
  15 C15           -6.5676    -2.7425    -3.0557 C.2     
  16 C16           -7.0700    -2.5825    -1.7596 C.2     
  17 C17           -6.0658    -2.1237    -0.9772 C.2     
  18 C18           -0.7003     0.3325     2.2760 C.3     
  19 C19            0.0872     0.7186     3.5526 C.3     
  20 C20            1.5041     1.0175     3.0028 C.3     
  21 C21            0.5368     1.7826    -1.5115 C.ar    
  22 C22            0.8070     0.8986    -2.5552 C.ar    
  23 N23            0.5698     3.0943    -1.7033 N.ar    
  24 C24            0.8622     3.6135    -2.8774 C.ar    
  25 C25            1.1491     2.7878    -3.9661 C.ar    
  26 C26            1.1157     1.3949    -3.7924 C.ar    
  27 C27           -8.4791    -2.8750    -1.3127 C.3     
  28 F28           -9.2266    -3.3387    -2.4006 F       
  29 F29           -8.4576    -3.8518    -0.3115 F       
  30 F30           -9.0614    -1.7060    -0.8112 F       
  31 C31            1.4763     3.3698    -5.2802 C.2     
  32 O32            1.7246     2.6429    -6.2218 O.2     
  33 O33            1.5002     4.7079    -5.4373 O.3     
  34 C34            1.8304     5.2107    -6.7589 C.3     
  35 H35            0.0643     1.8925     0.4796 H       
  36 H36            0.9061    -0.6655    -0.6243 H       
  37 H37            0.1748    -1.5430     1.6135 H       
  38 H38            2.2563    -0.8959     2.3007 H       
  39 H39            2.2629     0.3940     1.0649 H       
  40 H40           -0.4533    -2.4360    -1.3843 H       
  41 H41           -2.2625     1.0423     0.2956 H       
  42 H42           -2.9076    -4.4030    -1.6256 H       
  43 H43           -3.5051    -3.5368    -3.0611 H       
  44 H44           -1.7596    -3.8155    -2.8524 H       
  45 H45           -5.2907     0.1363     0.5530 H       
  46 H46           -4.5383     1.5363    -0.2483 H       
  47 H47           -5.5251     0.3948    -1.1924 H       
  48 H48           -7.1237    -3.0973    -3.9108 H       
  49 H49           -6.1315    -1.8991     0.0771 H       
  50 H50           -1.0148     1.2261     1.7368 H       
  51 H51           -1.5626    -0.2834     2.5314 H       
  52 H52           -0.3419     1.6062     4.0175 H       
  53 H53            0.1136    -0.1131     4.2566 H       
  54 H54            2.2505     0.9016     3.7886 H       
  55 H55            1.5456     2.0218     2.5810 H       
  56 H56            0.7732    -0.1679    -2.3886 H       
  57 H57            0.8800     4.6865    -2.9993 H       
  58 H58            1.3332     0.7303    -4.6155 H       
  59 H59            1.8144     6.3005    -6.7475 H       
  60 H60            2.8247     4.8648    -7.0413 H       
  61 H61            1.0998     4.8441    -7.4800 H       
@<TRIPOS>BOND
   1    1    2 1
   2    1   21 1
   3    1   35 1
   4    2    3 1
   5    2    4 1
   6    2   36 1
   7    3    5 1
   8    3   18 1
   9    3   37 1
  10    4    6 ar
  11    4   10 ar
  12    5   20 1
  13    5   38 1
  14    5   39 1
  15    6    7 ar
  16    6   40 1
  17    7    8 ar
  18    7   11 1
  19    8    9 ar
  20    8   13 1
  21    9   10 ar
  22    9   12 1
  23   10   41 1
  24   11   42 1
  25   11   43 1
  26   11   44 1
  27   12   45 1
  28   12   46 1
  29   12   47 1
  30   13   14 1
  31   13   17 1
  32   14   15 2
  33   15   16 1
  34   15   48 1
  35   16   17 2
  36   16   27 1
  37   17   49 1
  38   18   19 1
  39   18   50 1
  40   18   51 1
  41   19   20 1
  42   19   52 1
  43   19   53 1
  44   20   54 1
  45   20   55 1
  46   21   22 ar
  47   21   23 ar
  48   22   26 ar
  49   22   56 1
  50   23   24 ar
  51   24   25 ar
  52   24   57 1
  53   25   26 ar
  54   25   31 1
  55   26   58 1
  56   27   28 1
  57   27   29 1
  58   27   30 1
  59   31   32 2
  60   31   33 1
  61   33   34 1
  62   34   59 1
  63   34   60 1
  64   34   61 1

#	End of record

