#	Name: ASD00310347
#	Creating user name:	WinNT
#	Creation time:	15. 06. 2019 18:34

#	Modifying user name:	WinNT
#	Modification time:	15. 06. 2019 18:34

#	Program:	/corina/corina34_cracker 3.40 0067  02.08.2006

@<TRIPOS>MOLECULE
ASD00310347
  29   31    0    0    0
SMALL
NO_CHARGES


@<TRIPOS>ATOM
   1 N1            -0.0153     1.2794     0.0091 N.pl3   
   2 N2             0.0021    -0.0041     0.0020 N.2     
   3 C3             1.2292    -0.4800    -0.0123 C.2     
   4 C4             2.1243     0.6858    -0.0145 C.ar    
   5 C5             3.5012     0.8765    -0.0271 C.ar    
   6 C6             4.0085     2.1688    -0.0254 C.ar    
   7 C7             3.1373     3.2656    -0.0107 C.ar    
   8 C8             1.7845     3.0822     0.0016 C.ar    
   9 C9             1.2548     1.7947    -0.0003 C.ar    
  10 C10            1.6260    -1.8977    -0.0232 C.2     
  11 O11            2.8034    -2.1991    -0.0357 O.2     
  12 O12            0.6837    -2.8615    -0.0195 O.3     
  13 C13            5.4759     2.3885    -0.0386 C.ar    
  14 C14            6.0428     3.2627    -0.9629 C.ar    
  15 C15            7.4131     3.4639    -0.9699 C.ar    
  16 C16            8.2178     2.7951    -0.0574 C.ar    
  17 C17            7.6557     1.9272     0.8597 C.ar    
  18 C18            6.2900     1.7251     0.8774 C.ar    
  19 O19            7.9702     4.3158    -1.8704 O.3     
  20 Cl20           3.7851     4.8762    -0.0075 Cl      
  21 H21           -0.8235     1.8157     0.0160 H       
  22 H22            4.1694     0.0281    -0.0376 H       
  23 H23            1.1244     3.9369     0.0133 H       
  24 H24            0.9927    -3.7777    -0.0270 H       
  25 H25            5.4157     3.7820    -1.6724 H       
  26 H26            9.2862     2.9533    -0.0643 H       
  27 H27            8.2860     1.4090     1.5672 H       
  28 H28            5.8532     1.0499     1.5983 H       
  29 H29            8.0364     5.2289    -1.5592 H       
@<TRIPOS>BOND
   1    1    2 1
   2    1    9 1
   3    1   21 1
   4    2    3 2
   5    3    4 1
   6    3   10 1
   7    4    5 ar
   8    4    9 ar
   9    5    6 ar
  10    5   22 1
  11    6    7 ar
  12    6   13 1
  13    7    8 ar
  14    7   20 1
  15    8    9 ar
  16    8   23 1
  17   10   11 2
  18   10   12 1
  19   12   24 1
  20   13   14 ar
  21   13   18 ar
  22   14   15 ar
  23   14   25 1
  24   15   16 ar
  25   15   19 1
  26   16   17 ar
  27   16   26 1
  28   17   18 ar
  29   17   27 1
  30   18   28 1
  31   19   29 1

#	End of record

