#	Name: ASD01914981
#	Creating user name:	WinNT
#	Creation time:	15. 06. 2019 20:04

#	Modifying user name:	WinNT
#	Modification time:	15. 06. 2019 20:04

#	Program:	/corina/corina34_cracker 3.40 0067  02.08.2006

@<TRIPOS>MOLECULE
ASD01914981
  42   44    0    0    0
SMALL
NO_CHARGES


@<TRIPOS>ATOM
   1 C1            -0.3869     1.7172     0.1125 C.ar    
   2 C2            -0.5137     0.3665     0.3819 C.ar    
   3 N3             0.5330    -0.3594     0.7130 N.ar    
   4 C4             1.7491     0.1668     0.8030 C.ar    
   5 C5             1.9566     1.5185     0.5473 C.ar    
   6 C6             0.8690     2.3131     0.1941 C.ar    
   7 C7            -1.8706    -0.2834     0.2955 C.3     
   8 O8             1.0290     3.6361    -0.0638 O.3     
   9 C9             2.2786     4.1600     0.0409 C.ar    
  10 C10            3.2182     3.9714    -0.9675 C.ar    
  11 N11            4.4239     4.4974    -0.8281 N.ar    
  12 C12            4.7389     5.1914     0.2472 C.ar    
  13 N13            3.8771     5.3915     1.2239 N.ar    
  14 C14            2.6494     4.9035     1.1567 C.ar    
  15 C15            2.8950    -0.6932     1.1795 C.2     
  16 N16            2.7008    -2.0034     1.4290 N.am    
  17 O17            4.0099    -0.2175     1.2635 O.2     
  18 C18            3.7909    -2.8338     1.6796 C.ar    
  19 C19            3.5957    -4.2030     1.8205 C.ar    
  20 C20            4.6874    -5.0164     2.0693 C.ar    
  21 C21            5.9413    -4.4298     2.1690 C.ar    
  22 C22            6.0620    -3.0622     2.0181 C.ar    
  23 N23            5.0040    -2.3124     1.7762 N.ar    
  24 C24            6.1246     5.7723     0.3633 C.3     
  25 C25            7.4206    -2.4190     2.1252 C.3     
  26 H26           -1.2518     2.3025    -0.1626 H       
  27 H27            2.9460     1.9450     0.6216 H       
  28 H28           -2.0324    -0.6534    -0.7169 H       
  29 H29           -1.9206    -1.1149     0.9986 H       
  30 H30           -2.6402     0.4479     0.5424 H       
  31 H31            2.9670     3.4036    -1.8512 H       
  32 H32            1.9482     5.0717     1.9607 H       
  33 H33            1.8020    -2.3682     1.4339 H       
  34 H34            2.6056    -4.6261     1.7372 H       
  35 H35            4.5663    -6.0835     2.1836 H       
  36 H36            6.8136    -5.0364     2.3628 H       
  37 H37            6.1367     6.7726    -0.0695 H       
  38 H38            6.4084     5.8277     1.4142 H       
  39 H39            6.8310     5.1367    -0.1708 H       
  40 H40            7.8864    -2.3876     1.1403 H       
  41 H41            7.3131    -1.4044     2.5088 H       
  42 H42            8.0451    -2.9998     2.8041 H       
@<TRIPOS>BOND
   1    1    2 ar
   2    1    6 ar
   3    1   26 1
   4    2    3 ar
   5    2    7 1
   6    3    4 ar
   7    4    5 ar
   8    4   15 1
   9    5    6 ar
  10    5   27 1
  11    6    8 1
  12    7   28 1
  13    7   29 1
  14    7   30 1
  15    8    9 1
  16    9   10 ar
  17    9   14 ar
  18   10   11 ar
  19   10   31 1
  20   11   12 ar
  21   12   13 ar
  22   12   24 1
  23   13   14 ar
  24   14   32 1
  25   15   16 am
  26   15   17 2
  27   16   18 1
  28   16   33 1
  29   18   19 ar
  30   18   23 ar
  31   19   20 ar
  32   19   34 1
  33   20   21 ar
  34   20   35 1
  35   21   22 ar
  36   21   36 1
  37   22   23 ar
  38   22   25 1
  39   24   37 1
  40   24   38 1
  41   24   39 1
  42   25   40 1
  43   25   41 1
  44   25   42 1

#	End of record

