#	Name: ASD03092253
#	Creating user name:	WinNT
#	Creation time:	15. 06. 2019 20:32

#	Modifying user name:	WinNT
#	Modification time:	15. 06. 2019 20:32

#	Program:	/corina/corina34_cracker 3.40 0067  02.08.2006

@<TRIPOS>MOLECULE
ASD03092253
  39   41    0    0    0
SMALL
NO_CHARGES


@<TRIPOS>ATOM
   1 F1             0.0021    -0.0041     0.0020 F       
   2 C2            -0.0162     1.3468     0.0094 C.ar    
   3 C3            -1.2273     2.0206     0.0304 C.ar    
   4 C4            -1.2524     3.3991     0.0376 C.ar    
   5 C5            -0.0538     4.1168     0.0242 C.ar    
   6 C6            -0.0738     5.5913     0.0323 C.2     
   7 N7             1.0409     6.2554     0.0199 N.2     
   8 N8             1.0219     7.6562     0.0276 N.am    
   9 C9             2.1798     8.3460     0.0146 C.2     
  10 O10            3.2384     7.7538    -0.0037 O.2     
  11 C11            2.1593     9.8528     0.0229 C.3     
  12 C12            3.5946    10.3824     0.0051 C.3     
  13 C13            3.5742    11.8893     0.0134 C.2     
  14 C14            3.6361    12.6945    -1.0588 C.2     
  15 N15            3.5920    14.0035    -0.6624 N.pl3   
  16 H16            3.6223    14.7677    -1.2590 H       
  17 C17            3.4982    14.0742     0.7095 C.ar    
  18 C18            3.4229    15.1307     1.6110 C.ar    
  19 C19            3.3345    14.8727     2.9617 C.ar    
  20 C20            3.3199    13.5676     3.4336 C.ar    
  21 C21            3.3933    12.5147     2.5656 C.ar    
  22 C22            3.4766    12.7529     1.1926 C.ar    
  23 C23            1.1637     3.4321     0.0036 C.ar    
  24 C24            1.1762     2.0534     0.0019 C.ar    
  25 H25           -2.1532     1.4647     0.0407 H       
  26 H26           -2.1966     3.9231     0.0532 H       
  27 H27           -1.0163     6.1185     0.0486 H       
  28 H28            0.1755     8.1297     0.0422 H       
  29 H29            1.6279    10.2138    -0.8576 H       
  30 H30            1.6534    10.2044     0.9221 H       
  31 H31            4.1260    10.0214     0.8857 H       
  32 H32            4.1005    10.0309    -0.8941 H       
  33 H33            3.7102    12.3590    -2.0826 H       
  34 H34            3.4339    16.1498     1.2536 H       
  35 H35            3.2765    15.6944     3.6601 H       
  36 H36            3.2502    13.3827     4.4954 H       
  37 H37            3.3817    11.5018     2.9401 H       
  38 H38            2.0934     3.9816    -0.0068 H       
  39 H39            2.1169     1.5229    -0.0096 H       
@<TRIPOS>BOND
   1    1    2 1
   2    2   24 ar
   3    2    3 ar
   4    3    4 ar
   5    3   25 1
   6    4    5 ar
   7    4   26 1
   8    5    6 1
   9    5   23 ar
  10    6    7 2
  11    6   27 1
  12    7    8 1
  13    8    9 am
  14    8   28 1
  15    9   10 2
  16    9   11 1
  17   11   12 1
  18   11   29 1
  19   11   30 1
  20   12   13 1
  21   12   31 1
  22   12   32 1
  23   13   22 1
  24   13   14 2
  25   14   15 1
  26   14   33 1
  27   15   16 1
  28   15   17 1
  29   17   22 ar
  30   17   18 ar
  31   18   19 ar
  32   18   34 1
  33   19   20 ar
  34   19   35 1
  35   20   21 ar
  36   20   36 1
  37   21   22 ar
  38   21   37 1
  39   23   24 ar
  40   23   38 1
  41   24   39 1

#	End of record

