#	Name: ASD00960107
#	Creating user name:	WinNT
#	Creation time:	15. 06. 2019 18:53

#	Modifying user name:	WinNT
#	Modification time:	15. 06. 2019 18:53

#	Program:	/corina/corina34_cracker 3.40 0067  02.08.2006

@<TRIPOS>MOLECULE
ASD00960107
  38   40    0    0    0
SMALL
NO_CHARGES


@<TRIPOS>ATOM
   1 C1            -0.2372     1.5628    -0.2130 C.3     
   2 C2             0.0618     0.0720     0.0603 C.3     
   3 O3            -0.9578    -0.3435     0.9950 O.3     
   4 C4            -1.0991     0.7580     1.9184 C.3     
   5 C5            -2.4529     0.6879     2.6278 C.3     
   6 C6            -0.0386    -0.7255    -1.2144 C.2     
   7 C7             0.9544    -0.8799    -2.1171 C.2     
   8 N8            -1.1388    -1.4036    -1.6289 N.pl3   
   9 C9            -0.8625    -2.0080    -2.8275 C.2     
  10 C10            0.4609    -1.6931    -3.1636 C.2     
  11 N11           -2.4164    -1.5765    -1.0760 N.2     
  12 C12           -3.3080    -2.2987    -1.7014 C.2     
  13 N13           -3.0509    -2.8893    -2.8641 N.2     
  14 C14           -1.8709    -2.7742    -3.4506 C.2     
  15 N15           -1.6280    -3.3973    -4.6594 N.pl3   
  16 C16           -1.0185     2.0244     1.0375 C.3     
  17 C17            1.1886    -2.1212    -4.3610 C.2     
  18 O18           -2.5354    -0.5255     3.3779 O.3     
  19 O19            1.0154    -3.2378    -4.8113 O.2     
  20 O20            2.0507    -1.2770    -4.9642 O.3     
  21 N21           -0.0099     0.7452     2.8980 N.2     
  22 N22            0.1147    -0.1329     3.5884 N.1     
  23 N23            0.2393    -1.0111     4.2789 N.pl3   
  24 O24            0.9790     2.3015    -0.3445 O.3     
  25 *25            0.8833     3.4157    -1.2032 Du      
  26 O26           -0.3087     3.0623     1.7165 O.3     
  27 *27           -0.6605     4.3634     1.3024 Du      
  28 H28           -0.8478     1.6717    -1.1093 H       
  29 H29            1.0514    -0.0415     0.5030 H       
  30 H30           -2.5547     1.5390     3.3011 H       
  31 H31           -3.2527     0.7126     1.8876 H       
  32 H32            1.9464    -0.4580    -2.0515 H       
  33 H33           -4.2857    -2.4200    -1.2589 H       
  34 H34           -2.1864    -4.1374    -4.9444 H       
  35 H35           -0.8989    -3.0947    -5.2232 H       
  36 H36           -2.0174     2.3614     0.7608 H       
  37 H37           -3.3691    -0.6372     3.8549 H       
  38 H38            2.5075    -1.6042    -5.7512 H       
@<TRIPOS>BOND
   1    1    2 1
   2    1   24 1
   3    1   16 1
   4    1   28 1
   5    2    3 1
   6    2    6 1
   7    2   29 1
   8    3    4 1
   9    4    5 1
  10    4   21 1
  11    4   16 1
  12    5   18 1
  13    5   30 1
  14    5   31 1
  15    6    7 2
  16    6    8 1
  17    7   10 1
  18    7   32 1
  19    8    9 1
  20    8   11 1
  21    9   10 2
  22    9   14 1
  23   10   17 1
  24   11   12 2
  25   12   13 1
  26   12   33 1
  27   13   14 2
  28   14   15 1
  29   15   34 1
  30   15   35 1
  31   16   26 1
  32   16   36 1
  33   17   19 2
  34   17   20 1
  35   18   37 1
  36   20   38 1
  37   21   22 2
  38   22   23 2
  39   24   25 1
  40   26   27 1

#	End of record

