#	Name: ASD01230545
#	Creating user name:	WinNT
#	Creation time:	15. 06. 2019 19:14

#	Modifying user name:	WinNT
#	Modification time:	15. 06. 2019 19:14

#	Program:	/corina/corina34_cracker 3.40 0067  02.08.2006

@<TRIPOS>MOLECULE
ASD01230545
  44   47    0    0    0
SMALL
NO_CHARGES


@<TRIPOS>ATOM
   1 S1            -0.3042    -2.8606    -4.2521 S.o2    
   2 N2            -0.1925    -2.7171    -2.6077 N.am    
   3 C3             0.8315    -2.1380    -2.0219 C.2     
   4 N4             1.9050    -1.5935    -2.6646 N.pl3   
   5 C5             2.1036    -1.6421    -4.1153 C.3     
   6 C6             0.7640    -1.5110    -4.8461 C.3     
   7 C7             0.7822    -2.0939    -0.5928 C.2     
   8 C8             1.7719    -1.4788     0.1030 C.2     
   9 C9             2.8398    -0.8885    -0.5968 C.2     
  10 C10            2.8845    -0.9559    -1.9379 C.2     
  11 O11           -0.2573    -2.6685     0.0689 O.3     
  12 C12           -1.4775    -4.6209     0.5631 C.ar    
  13 C13           -0.3815    -4.0200     0.0108 C.ar    
  14 C14            0.6136    -4.7783    -0.6139 C.ar    
  15 C15            0.5170    -6.1330    -0.6883 C.ar    
  16 C16           -0.5966    -6.7846    -0.1310 C.ar    
  17 C17           -0.7265    -8.1830    -0.1917 C.ar    
  18 C18           -1.8163    -8.7840     0.3567 C.ar    
  19 C19           -2.8145    -8.0302     0.9823 C.ar    
  20 C20           -2.7209    -6.6699     1.0589 C.ar    
  21 C21           -1.6072    -6.0181     0.5031 C.ar    
  22 O22           -3.8919    -8.6596     1.5206 O.3     
  23 C23           -3.9341   -10.0836     1.4089 C.3     
  24 C24           -5.2110   -10.6092     2.0678 C.3     
  25 F25           -6.3266   -10.0580     1.4284 F       
  26 F26           -5.2523   -12.0033     1.9585 F       
  27 F27           -5.2216   -10.2469     3.4191 F       
  28 O28            0.2745    -4.1259    -4.5406 O.2     
  29 O29           -1.6684    -2.5891    -4.5427 O.2     
  30 H30            2.7588    -0.8246    -4.4161 H       
  31 H31            2.5678    -2.5913    -4.3831 H       
  32 H32            0.9167    -1.6040    -5.9213 H       
  33 H33            0.3081    -0.5479    -4.6165 H       
  34 H34            1.7396    -1.4426     1.1819 H       
  35 H35            3.6245    -0.3807    -0.0556 H       
  36 H36            3.7111    -0.4968    -2.4599 H       
  37 H37           -2.2375    -4.0253     1.0468 H       
  38 H38            1.4707    -4.2813    -1.0437 H       
  39 H39            1.2931    -6.7058    -1.1741 H       
  40 H40            0.0361    -8.7779    -0.6722 H       
  41 H41           -1.9125    -9.8586     0.3081 H       
  42 H42           -3.4984    -6.0985     1.5439 H       
  43 H43           -3.9258   -10.3659     0.3561 H       
  44 H44           -3.0649   -10.5130     1.9071 H       
@<TRIPOS>BOND
   1    1    2 am
   2    1    6 1
   3    1   28 2
   4    1   29 2
   5    2    3 2
   6    3    4 1
   7    3    7 1
   8    4    5 1
   9    4   10 1
  10    5    6 1
  11    5   30 1
  12    5   31 1
  13    6   32 1
  14    6   33 1
  15    7    8 2
  16    7   11 1
  17    8    9 1
  18    8   34 1
  19    9   10 2
  20    9   35 1
  21   10   36 1
  22   11   13 1
  23   12   13 ar
  24   12   21 ar
  25   12   37 1
  26   13   14 ar
  27   14   15 ar
  28   14   38 1
  29   15   16 ar
  30   15   39 1
  31   16   17 ar
  32   16   21 ar
  33   17   18 ar
  34   17   40 1
  35   18   19 ar
  36   18   41 1
  37   19   20 ar
  38   19   22 1
  39   20   21 ar
  40   20   42 1
  41   22   23 1
  42   23   24 1
  43   23   43 1
  44   23   44 1
  45   24   25 1
  46   24   26 1
  47   24   27 1

#	End of record

