#	Name: ASD04880367
#	Creating user name:	WinNT
#	Creation time:	15. 06. 2019 20:53

#	Modifying user name:	WinNT
#	Modification time:	15. 06. 2019 20:53

#	Program:	/corina/corina34_cracker 3.40 0067  02.08.2006

@<TRIPOS>MOLECULE
ASD04880367
  33   35    0    0    0
SMALL
NO_CHARGES


@<TRIPOS>ATOM
   1 C1            -0.0557     1.2819    -0.6525 C.ar    
   2 C2            -0.0156    -0.1007    -0.6392 C.ar    
   3 C3             1.1931    -0.7583    -0.5273 C.ar    
   4 C4             2.3776    -0.0231    -0.4279 C.ar    
   5 C5             2.3285     1.3730    -0.4426 C.ar    
   6 C6             1.1136     2.0160    -0.5545 C.ar    
   7 C7             3.6727    -0.7177    -0.3077 C.2     
   8 N8             3.8239    -1.9889    -0.1626 N.2     
   9 N9             5.1530    -2.3976    -0.0732 N.am    
  10 C10            6.0224    -1.2146    -0.1744 C.3     
  11 C11            5.0281    -0.0485    -0.3422 C.3     
  12 C12            5.5737    -3.6686     0.0813 C.2     
  13 O13            6.7602    -3.9277     0.0229 O.2     
  14 C14            4.5927    -4.7476     0.3217 C.ar    
  15 C15            4.9984    -6.0833     0.2918 C.ar    
  16 C16            3.2583    -4.4354     0.5851 C.ar    
  17 C17            2.3464    -5.4495     0.8089 C.ar    
  18 C18            2.7559    -6.7726     0.7723 C.ar    
  19 C19            4.0788    -7.0865     0.5167 C.ar    
  20 Br20           1.2459    -2.6484    -0.5081 Br      
  21 F21            1.0539    -5.1502     1.0641 F       
  22 H22           -1.0036     1.7911    -0.7443 H       
  23 H23           -0.9320    -0.6670    -0.7161 H       
  24 H24            3.2398     1.9474    -0.3658 H       
  25 H25            1.0745     3.0952    -0.5659 H       
  26 H26            6.6119    -1.0929     0.7343 H       
  27 H27            6.6715    -1.2891    -1.0469 H       
  28 H28            5.1873     0.4556    -1.2954 H       
  29 H29            5.1220     0.6559     0.4843 H       
  30 H30            6.0307    -6.3306     0.0924 H       
  31 H31            2.9391    -3.4040     0.6143 H       
  32 H32            2.0402    -7.5621     0.9484 H       
  33 H33            4.3916    -8.1198     0.4892 H       
@<TRIPOS>BOND
   1    1    2 ar
   2    1    6 ar
   3    1   22 1
   4    2    3 ar
   5    2   23 1
   6    3    4 ar
   7    3   20 1
   8    4    5 ar
   9    4    7 1
  10    5    6 ar
  11    5   24 1
  12    6   25 1
  13    7    8 2
  14    7   11 1
  15    8    9 1
  16    9   10 1
  17    9   12 am
  18   10   11 1
  19   10   26 1
  20   10   27 1
  21   11   28 1
  22   11   29 1
  23   12   13 2
  24   12   14 1
  25   14   15 ar
  26   14   16 ar
  27   15   19 ar
  28   15   30 1
  29   16   17 ar
  30   16   31 1
  31   17   18 ar
  32   17   21 1
  33   18   19 ar
  34   18   32 1
  35   19   33 1

#	End of record

