#	Name: ASD01918170
#	Creating user name:	WinNT
#	Creation time:	15. 06. 2019 20:10

#	Modifying user name:	WinNT
#	Modification time:	15. 06. 2019 20:10

#	Program:	/corina/corina34_cracker 3.40 0067  02.08.2006

@<TRIPOS>MOLECULE
ASD01918170
  44   46    0    0    0
SMALL
NO_CHARGES


@<TRIPOS>ATOM
   1 C1             0.3299     1.8303    -0.4866 C.ar    
   2 C2             0.5697     0.4861    -0.8034 C.ar    
   3 C3             1.8492     0.0549    -0.9859 C.ar    
   4 C4             2.9227     0.9335    -0.8617 C.ar    
   5 C5             2.7244     2.2448    -0.5547 C.ar    
   6 C6             1.4182     2.7259    -0.3597 C.ar    
   7 N7             1.1948     4.0103    -0.0586 N.ar    
   8 C8            -0.0192     4.4740     0.1259 C.ar    
   9 C9            -1.1387     3.6598     0.0197 C.ar    
  10 C10           -0.9848     2.3189    -0.2949 C.ar    
  11 S11           -2.7479     4.3294     0.2777 S.o2    
  12 O12           -3.4007     3.4629     1.1953 O.2     
  13 O13           -2.5711     5.7196     0.5128 O.2     
  14 C14           -3.6214     4.1897    -1.2461 C.ar    
  15 C15           -3.4738     5.1606    -2.2190 C.ar    
  16 C16           -4.4500     3.1063    -1.4710 C.ar    
  17 C17           -5.1354     2.9968    -2.6665 C.ar    
  18 C18           -4.9925     3.9708    -3.6369 C.ar    
  19 C19           -4.1591     5.0511    -3.4145 C.ar    
  20 N20           -2.0835     1.4816    -0.4141 N.3     
  21 C21           -2.1700     0.9160    -1.7671 C.3     
  22 C22           -2.0479     0.4188     0.5995 C.3     
  23 C23           -2.1227     2.0468    -2.7965 C.3     
  24 C24           -2.2091     1.0352     1.9906 C.3     
  25 H25           -0.2552    -0.2040    -0.9018 H       
  26 H26            2.0333    -0.9810    -1.2296 H       
  27 H27            3.9282     0.5687    -1.0110 H       
  28 H28            3.5677     2.9131    -0.4613 H       
  29 H29           -0.1510     5.5184     0.3674 H       
  30 H30           -2.8233     6.0050    -2.0449 H       
  31 H31           -4.5617     2.3453    -0.7129 H       
  32 H32           -5.7822     2.1500    -2.8425 H       
  33 H33           -5.5276     3.8850    -4.5711 H       
  34 H34           -4.0440     5.8098    -4.1744 H       
  35 H35           -1.3318     0.2390    -1.9322 H       
  36 H36           -3.1061     0.3676    -1.8724 H       
  37 H37           -2.8604    -0.2844     0.4172 H       
  38 H38           -1.0940    -0.1055     0.5428 H       
  39 H39           -1.1492     2.5354    -2.7551 H       
  40 H40           -2.2814     1.6370    -3.7940 H       
  41 H41           -2.9038     2.7738    -2.5739 H       
  42 H42           -2.1827     0.2466     2.7426 H       
  43 H43           -1.3966     1.7384     2.1728 H       
  44 H44           -3.1631     1.5595     2.0473 H       
@<TRIPOS>BOND
   1    1    2 ar
   2    1    6 ar
   3    1   10 ar
   4    2    3 ar
   5    2   25 1
   6    3    4 ar
   7    3   26 1
   8    4    5 ar
   9    4   27 1
  10    5    6 ar
  11    5   28 1
  12    6    7 ar
  13    7    8 ar
  14    8    9 ar
  15    8   29 1
  16    9   10 ar
  17    9   11 1
  18   10   20 1
  19   11   12 2
  20   11   13 2
  21   11   14 1
  22   14   16 ar
  23   14   15 ar
  24   15   19 ar
  25   15   30 1
  26   16   17 ar
  27   16   31 1
  28   17   18 ar
  29   17   32 1
  30   18   19 ar
  31   18   33 1
  32   19   34 1
  33   20   21 1
  34   20   22 1
  35   21   23 1
  36   21   35 1
  37   21   36 1
  38   22   24 1
  39   22   37 1
  40   22   38 1
  41   23   39 1
  42   23   40 1
  43   23   41 1
  44   24   42 1
  45   24   43 1
  46   24   44 1

#	End of record

