#	Name: ASD01150524
#	Creating user name:	WinNT
#	Creation time:	15. 06. 2019 19:04

#	Modifying user name:	WinNT
#	Modification time:	15. 06. 2019 19:04

#	Program:	/corina/corina34_cracker 3.40 0067  02.08.2006

@<TRIPOS>MOLECULE
ASD01150524
  44   46    0    0    0
SMALL
NO_CHARGES


@<TRIPOS>ATOM
   1 C1             2.1345     1.3923    -0.9213 C.ar    
   2 C2             2.1552     0.0112    -0.9163 C.ar    
   3 C3             0.4684    -0.0120     0.7917 C.ar    
   4 C4             0.4453     1.3754     0.7896 C.ar    
   5 C5             1.2791     2.0789    -0.0680 C.ar    
   6 N6             1.2590     3.4780    -0.0732 N.am    
   7 C7             0.0822     4.1235    -0.1539 C.2     
   8 N8             0.0259     5.4684    -0.1610 N.am    
   9 C9             1.1618     6.1927    -0.0864 C.2     
  10 C10            2.4522     5.4926     0.0020 C.2     
  11 N11            2.4638     4.1857     0.0114 N.2     
  12 O12            1.1192     7.4089    -0.0927 O.2     
  13 C13           -1.2698     6.1462    -0.2502 C.3     
  14 O14           -0.9485     3.4816    -0.2220 O.2     
  15 C15           -1.8098     6.3821     1.1368 C.ar    
  16 O16            3.6135     6.1934     0.0778 O.3     
  17 C17            4.8232     5.4373     0.1610 C.3     
  18 C18            1.3261    -0.6922    -0.0634 C.ar    
  19 C19           -1.5867     7.5956     1.7590 C.ar    
  20 C20           -2.0876     7.8032     3.0351 C.ar    
  21 C21           -2.7979     6.7766     3.6405 C.ar    
  22 C22           -2.9810     5.5888     2.9551 C.ar    
  23 N23           -2.4943     5.4298     1.7401 N.ar    
  24 N24           -0.3712    -0.7251     1.6546 N.am    
  25 C25           -0.8691    -1.9190     1.2763 C.2     
  26 O26           -0.6759    -2.3274     0.1507 O.2     
  27 C27           -1.6659    -2.7464     2.2517 C.3     
  28 Cl28          -3.4478     6.9795     5.2374 Cl      
  29 H29            2.7869     1.9391    -1.5859 H       
  30 H30            2.8206    -0.5201    -1.5806 H       
  31 H31           -0.2204     1.9066     1.4538 H       
  32 H32           -1.1455     7.1021    -0.7591 H       
  33 H33           -1.9674     5.5241    -0.8108 H       
  34 H34            5.6735     6.1171     0.2160 H       
  35 H35            4.8000     4.8115     1.0532 H       
  36 H36            4.9190     4.8066    -0.7228 H       
  37 H37            1.3447    -1.7720    -0.0619 H       
  38 H38           -1.0288     8.3727     1.2576 H       
  39 H39           -1.9284     8.7414     3.5458 H       
  40 H40           -3.5326     4.7844     3.4188 H       
  41 H41           -0.5947    -0.3602     2.5251 H       
  42 H42           -2.7213    -2.4859     2.1719 H       
  43 H43           -1.5344    -3.8040     2.0234 H       
  44 H44           -1.3184    -2.5476     3.2655 H       
@<TRIPOS>BOND
   1    1    2 ar
   2    1    5 ar
   3    1   29 1
   4    2   18 ar
   5    2   30 1
   6    3    4 ar
   7    3   24 1
   8    3   18 ar
   9    4    5 ar
  10    4   31 1
  11    5    6 1
  12    6    7 am
  13    6   11 1
  14    7    8 am
  15    7   14 2
  16    8    9 am
  17    8   13 1
  18    9   10 1
  19    9   12 2
  20   10   11 2
  21   10   16 1
  22   13   15 1
  23   13   32 1
  24   13   33 1
  25   15   19 ar
  26   15   23 ar
  27   16   17 1
  28   17   34 1
  29   17   35 1
  30   17   36 1
  31   18   37 1
  32   19   20 ar
  33   19   38 1
  34   20   21 ar
  35   20   39 1
  36   21   22 ar
  37   21   28 1
  38   22   23 ar
  39   22   40 1
  40   24   25 am
  41   24   41 1
  42   25   26 2
  43   25   27 1
  44   27   42 1
  45   27   43 1
  46   27   44 1

#	End of record

