#	Name: ASD01913364
#	Creating user name:	WinNT
#	Creation time:	15. 06. 2019 20:01

#	Modifying user name:	WinNT
#	Modification time:	15. 06. 2019 20:01

#	Program:	/corina/corina34_cracker 3.40 0067  02.08.2006

@<TRIPOS>MOLECULE
ASD01913364
  40   42    0    0    0
SMALL
NO_CHARGES


@<TRIPOS>ATOM
   1 C1            -0.0166     1.3765     0.0096 C.2     
   2 C2             0.0021    -0.0041     0.0020 C.2     
   3 C3             1.2500    -0.6727    -0.0135 C.2     
   4 N4             2.3636     0.0160    -0.0200 N.2     
   5 C5             2.3516     1.3566    -0.0127 C.2     
   6 N6             1.1688     2.0507     0.0019 N.pl3   
   7 C7             3.3715     2.2994    -0.0165 C.2     
   8 C8             2.7837     3.5556    -0.0041 C.2     
   9 N9             1.4772     3.4160     0.0069 N.2     
  10 C10           -1.2215    -0.7480     0.0102 C.1     
  11 C11           -2.2246    -1.3579     0.0169 C.1     
  12 C12           -3.4482    -2.1018     0.0250 C.ar    
  13 C13           -3.4213    -3.5052     0.0172 C.ar    
  14 C14           -4.6130    -4.2150     0.0252 C.ar    
  15 C15           -5.8503    -2.1578     0.0543 C.ar    
  16 C16           -4.6756    -1.4354     0.0466 C.ar    
  17 C17           -5.8198    -3.5421     0.0403 C.ar    
  18 C18            3.5237     4.8684    -0.0028 C.3     
  19 C19            4.0873     5.1374    -1.3996 C.3     
  20 C20            2.5637     5.9947     0.3854 C.3     
  21 C21            4.6715     4.8058     1.0069 C.3     
  22 N22           -2.2029    -4.1824     0.0011 N.pl3   
  23 H23           -0.9538     1.9131     0.0170 H       
  24 H24            1.2834    -1.7521    -0.0196 H       
  25 H25            4.4313     2.0918    -0.0269 H       
  26 H26           -4.5976    -5.2949     0.0193 H       
  27 H27           -6.7987    -1.6413     0.0713 H       
  28 H28           -4.7047    -0.3558     0.0579 H       
  29 H29           -6.7449    -4.0994     0.0461 H       
  30 H30            3.2696     5.1820    -2.1189 H       
  31 H31            4.6226     6.0870    -1.3987 H       
  32 H32            4.7712     4.3351    -1.6762 H       
  33 H33            2.1622     5.8030     1.3805 H       
  34 H34            3.0990     6.9442     0.3863 H       
  35 H35            1.7460     6.0393    -0.3339 H       
  36 H36            5.3554     4.0034     0.7303 H       
  37 H37            5.2068     5.7553     1.0078 H       
  38 H38            4.2700     4.6141     2.0020 H       
  39 H39           -1.3709    -3.6837    -0.0048 H       
  40 H40           -2.1870    -5.1522    -0.0043 H       
@<TRIPOS>BOND
   1    1    2 2
   2    1    6 1
   3    1   23 1
   4    2    3 1
   5    2   10 1
   6    3    4 2
   7    3   24 1
   8    4    5 1
   9    5    6 1
  10    5    7 2
  11    6    9 1
  12    7    8 1
  13    7   25 1
  14    8    9 2
  15    8   18 1
  16   10   11 3
  17   11   12 1
  18   12   13 ar
  19   12   16 ar
  20   13   14 ar
  21   13   22 1
  22   14   17 ar
  23   14   26 1
  24   15   16 ar
  25   15   17 ar
  26   15   27 1
  27   16   28 1
  28   17   29 1
  29   18   19 1
  30   18   20 1
  31   18   21 1
  32   19   30 1
  33   19   31 1
  34   19   32 1
  35   20   33 1
  36   20   34 1
  37   20   35 1
  38   21   36 1
  39   21   37 1
  40   21   38 1
  41   22   39 1
  42   22   40 1

#	End of record

