#	Name: ASD01811850
#	Creating user name:	WinNT
#	Creation time:	15. 06. 2019 19:27

#	Modifying user name:	WinNT
#	Modification time:	15. 06. 2019 19:27

#	Program:	/corina/corina34_cracker 3.40 0067  02.08.2006

@<TRIPOS>MOLECULE
ASD01811850
  53   56    0    0    0
SMALL
NO_CHARGES


@<TRIPOS>ATOM
   1 C1            -0.0158     1.3124     0.0093 C.ar    
   2 N2             0.0021    -0.0041     0.0020 N.ar    
   3 C3             1.1319    -0.6857    -0.0125 C.ar    
   4 C4             2.3551    -0.0402    -0.0203 C.ar    
   5 C5             2.3911     1.3433    -0.0132 C.ar    
   6 C6             1.1761     2.0384     0.0018 C.ar    
   7 C7             1.0887    -2.1920    -0.0201 C.3     
   8 C8             1.1559     3.5167     0.0095 C.2     
   9 N9            -0.0203     4.1745     0.0238 N.am    
  10 O10            2.2002     4.1388     0.0028 O.2     
  11 C11           -0.0403     5.6393     0.0315 C.3     
  12 C12            3.6353    -0.8351    -0.0358 C.3     
  13 C13            3.9840    -1.1982    -1.4563 C.ar    
  14 C14            3.5101    -2.3764    -2.0035 C.ar    
  15 C15            4.7724    -0.3497    -2.2117 C.ar    
  16 C16            5.0932    -0.6795    -3.5140 C.ar    
  17 C17            4.6233    -1.8643    -4.0644 C.ar    
  18 C18            3.8280    -2.7118    -3.3051 C.ar    
  19 C19           -1.4005     7.6594     0.5781 C.3     
  20 C20           -1.3545     6.1306     0.6462 C.3     
  21 C21            0.0650     6.1607    -1.4050 C.3     
  22 C22           -0.0359     7.6883    -1.3938 C.3     
  23 O23           -1.2666     8.0786    -0.7814 O.3     
  24 O24           -1.4300     5.7109     2.0101 O.3     
  25 N25            4.9472    -2.2018    -5.3859 N.pl3   
  26 C26            4.5574    -3.3190    -6.0404 C.2     
  27 C27            5.0777    -3.2677    -7.2885 C.2     
  28 C28            5.8097    -2.0807    -7.4017 C.2     
  29 N29            5.7272    -1.4385    -6.2643 N.2     
  30 H30           -0.9609     1.8350     0.0166 H       
  31 H31            3.3323     1.8729    -0.0187 H       
  32 H32            1.0684    -2.5497    -1.0496 H       
  33 H33            1.9727    -2.5834     0.4831 H       
  34 H34            0.1936    -2.5325     0.5005 H       
  35 H35           -0.8536     3.6780     0.0291 H       
  36 H36            0.7998     6.0124     0.6173 H       
  37 H37            4.4392    -0.2377     0.3942 H       
  38 H38            3.5053    -1.7449     0.5502 H       
  39 H39            2.8912    -3.0351    -1.4124 H       
  40 H40            5.1373     0.5720    -1.7830 H       
  41 H41            5.7087    -0.0162    -4.1036 H       
  42 H42            3.4582    -3.6325    -3.7317 H       
  43 H43           -2.3522     8.0124     0.9753 H       
  44 H44           -0.5837     8.0743     1.1686 H       
  45 H45           -2.1946     5.7158     0.0894 H       
  46 H46            1.0225     5.8620    -1.8316 H       
  47 H47           -0.7465     5.7464    -2.0033 H       
  48 H48            0.7989     8.1036    -0.8292 H       
  49 H49           -0.0045     8.0621    -2.4172 H       
  50 H50           -2.2362     5.9921     2.4641 H       
  51 H51            3.9414    -4.1101    -5.6391 H       
  52 H52            4.9508    -4.0120    -8.0608 H       
  53 H53            6.3466    -1.7493    -8.2782 H       
@<TRIPOS>BOND
   1    1    2 ar
   2    1    6 ar
   3    1   30 1
   4    2    3 ar
   5    3    4 ar
   6    3    7 1
   7    4    5 ar
   8    4   12 1
   9    5    6 ar
  10    5   31 1
  11    6    8 1
  12    7   32 1
  13    7   33 1
  14    7   34 1
  15    8    9 am
  16    8   10 2
  17    9   11 1
  18    9   35 1
  19   11   21 1
  20   11   20 1
  21   11   36 1
  22   12   13 1
  23   12   37 1
  24   12   38 1
  25   13   15 ar
  26   13   14 ar
  27   14   18 ar
  28   14   39 1
  29   15   16 ar
  30   15   40 1
  31   16   17 ar
  32   16   41 1
  33   17   18 ar
  34   17   25 1
  35   18   42 1
  36   19   20 1
  37   19   23 1
  38   19   43 1
  39   19   44 1
  40   20   24 1
  41   20   45 1
  42   21   22 1
  43   21   46 1
  44   21   47 1
  45   22   23 1
  46   22   48 1
  47   22   49 1
  48   24   50 1
  49   25   26 1
  50   25   29 1
  51   26   27 2
  52   26   51 1
  53   27   28 1
  54   27   52 1
  55   28   29 2
  56   28   53 1

#	End of record

