#	Name: ASD04880448
#	Creating user name:	WinNT
#	Creation time:	15. 06. 2019 20:53

#	Modifying user name:	WinNT
#	Modification time:	15. 06. 2019 20:53

#	Program:	/corina/corina34_cracker 3.40 0067  02.08.2006

@<TRIPOS>MOLECULE
ASD04880448
  30   32    0    0    0
SMALL
NO_CHARGES


@<TRIPOS>ATOM
   1 C1            -0.0286     1.3700    -0.2023 C.2     
   2 C2            -0.0057     0.0069    -0.1770 C.2     
   3 C3            -1.1865    -0.8601    -0.1128 C.2     
   4 N4            -2.4108    -0.4509    -0.0719 N.2     
   5 N5            -3.3511    -1.4775    -0.0141 N.am    
   6 C6            -2.6468    -2.7694    -0.0169 C.3     
   7 C7            -1.1593    -2.3717    -0.0908 C.3     
   8 C8            -4.6879    -1.3139     0.0365 C.2     
   9 C9            -5.2622     0.0423     0.1598 C.ar    
  10 O10           -5.4216    -2.2822    -0.0192 O.2     
  11 C11           -6.6426     0.2298     0.0688 C.ar    
  12 C12           -7.1726     1.5003     0.1855 C.ar    
  13 C13           -6.3362     2.5860     0.3919 C.ar    
  14 C14           -4.9680     2.4049     0.4826 C.ar    
  15 C15           -4.4272     1.1402     0.3735 C.ar    
  16 F16           -8.5081     1.6848     0.0978 F       
  17 C17            1.2148     1.9589    -0.2645 C.2     
  18 C18            2.2468     1.1091    -0.2902 C.2     
  19 S19            1.6623    -0.5482    -0.2344 S.3     
  20 H20           -0.9455     1.9402    -0.1801 H       
  21 H21           -2.8549    -3.3216     0.8995 H       
  22 H22           -2.9265    -3.3567    -0.8915 H       
  23 H23           -0.7032    -2.7648    -0.9993 H       
  24 H24           -0.6247    -2.7259     0.7906 H       
  25 H25           -7.2944    -0.6161    -0.0927 H       
  26 H26           -6.7544     3.5777     0.4818 H       
  27 H27           -4.3217     3.2551     0.6432 H       
  28 H28           -3.3586     1.0010     0.4451 H       
  29 H29            1.3469     3.0305    -0.2908 H       
  30 H30            3.2864     1.3981    -0.3380 H       
@<TRIPOS>BOND
   1    1    2 2
   2    1   17 1
   3    1   20 1
   4    2    3 1
   5    2   19 1
   6    3    4 2
   7    3    7 1
   8    4    5 1
   9    5    6 1
  10    5    8 am
  11    6    7 1
  12    6   21 1
  13    6   22 1
  14    7   23 1
  15    7   24 1
  16    8    9 1
  17    8   10 2
  18    9   11 ar
  19    9   15 ar
  20   11   12 ar
  21   11   25 1
  22   12   13 ar
  23   12   16 1
  24   13   14 ar
  25   13   26 1
  26   14   15 ar
  27   14   27 1
  28   15   28 1
  29   17   18 2
  30   17   29 1
  31   18   19 1
  32   18   30 1

#	End of record

