#	Name: ASD03331333
#	Creating user name:	WinNT
#	Creation time:	15. 06. 2019 20:39

#	Modifying user name:	WinNT
#	Modification time:	15. 06. 2019 20:39

#	Program:	/corina/corina34_cracker 3.40 0067  02.08.2006

@<TRIPOS>MOLECULE
ASD03331333
  61   64    0    0    0
SMALL
NO_CHARGES


@<TRIPOS>ATOM
   1 O1            -0.2285     0.6652     0.6460 O.3     
   2 C2            -0.3838    -0.7583     0.6960 C.3     
   3 O3             0.7466    -1.3261     1.3768 O.3     
   4 C4             1.2494    -0.2565     2.2136 C.3     
   5 C5             1.0068     0.9844     1.3184 C.3     
   6 N6            -1.8339    -4.6171     0.4873 N.am    
   7 N7            -2.7316    -4.6173     1.5653 N.2     
   8 C8            -2.7941    -3.3944     2.0498 C.2     
   9 C9            -1.9347    -2.5814     1.2903 C.2     
  10 C10           -1.6648    -1.1072     1.4619 C.3     
  11 C11           -0.4580    -1.3187    -0.7259 C.3     
  12 C12           -0.3695    -2.8490    -0.6792 C.3     
  13 C13           -1.3594    -3.3539     0.3407 C.2     
  14 C14           -1.5017    -5.6822    -0.2688 C.2     
  15 O15           -0.7076    -5.5565    -1.1797 O.2     
  16 N16           -2.0503    -6.8866    -0.0144 N.am    
  17 C17           -2.8050    -9.0565    -0.7962 C.2     
  18 C18           -1.6892    -8.0444    -0.8363 C.3     
  19 C19           -0.4071    -8.6768    -0.2911 C.3     
  20 C20           -0.6111    -9.0593     1.1762 C.3     
  21 O21           -3.5321    -9.1194     0.1724 O.2     
  22 N22           -2.9948    -9.8919    -1.8367 N.am    
  23 C23           -4.0021   -10.9521    -1.7506 C.3     
  24 C24           -0.0712    -9.9295    -1.1028 C.3     
  25 C25            0.7431    -7.6739    -0.4015 C.3     
  26 C26           -3.6262    -2.9520     3.1959 C.ar    
  27 C27           -4.3251    -1.7482     3.1282 C.ar    
  28 C28           -5.0990    -1.3406     4.1976 C.ar    
  29 C29           -5.1796    -2.1285     5.3373 C.ar    
  30 C30           -4.4857    -3.3246     5.4070 C.ar    
  31 C31           -3.7154    -3.7417     4.3403 C.ar    
  32 F32           -5.9369    -1.7270     6.3816 F       
  33 F33           -5.7773    -0.1740     4.1341 F       
  34 H34            0.6805    -0.1860     3.1407 H       
  35 H35            2.3119    -0.3880     2.4186 H       
  36 H36            1.8169     1.1048     0.5991 H       
  37 H37            0.8936     1.8819     1.9264 H       
  38 H38           -1.5341    -0.8786     2.5196 H       
  39 H39           -2.4999    -0.5321     1.0619 H       
  40 H40           -1.4019    -1.0233    -1.1839 H       
  41 H41            0.3702    -0.9250    -1.3151 H       
  42 H42           -0.6116    -3.2600    -1.6592 H       
  43 H43            0.6381    -3.1491    -0.3915 H       
  44 H44           -2.6844    -6.9869     0.7128 H       
  45 H45           -1.5269    -7.7231    -1.8651 H       
  46 H46           -1.4305    -9.7737     1.2549 H       
  47 H47            0.3023    -9.5098     1.5646 H       
  48 H48           -0.8503    -8.1669     1.7545 H       
  49 H49           -2.4644    -9.7911    -2.6425 H       
  50 H50           -4.0110   -11.5211    -2.6802 H       
  51 H51           -3.7607   -11.6161    -0.9205 H       
  52 H52           -4.9840   -10.5080    -1.5869 H       
  53 H53            0.0783    -9.6563    -2.1474 H       
  54 H54            0.8398   -10.3824    -0.7117 H       
  55 H55           -0.8925   -10.6421    -1.0276 H       
  56 H56            0.5039    -6.7815     0.1767 H       
  57 H57            1.6565    -8.1244    -0.0132 H       
  58 H58            0.8884    -7.4014    -1.4469 H       
  59 H59           -4.2617    -1.1349     2.2415 H       
  60 H60           -4.5506    -3.9344     6.2960 H       
  61 H61           -3.1783    -4.6771     4.3945 H       
@<TRIPOS>BOND
   1    1    2 1
   2    1    5 1
   3    2    3 1
   4    2   10 1
   5    2   11 1
   6    3    4 1
   7    4    5 1
   8    4   34 1
   9    4   35 1
  10    5   36 1
  11    5   37 1
  12    6    7 1
  13    6   13 1
  14    6   14 am
  15    7    8 2
  16    8    9 1
  17    8   26 1
  18    9   10 1
  19    9   13 2
  20   10   38 1
  21   10   39 1
  22   11   12 1
  23   11   40 1
  24   11   41 1
  25   12   13 1
  26   12   42 1
  27   12   43 1
  28   14   15 2
  29   14   16 am
  30   16   18 1
  31   16   44 1
  32   17   21 2
  33   17   22 am
  34   17   18 1
  35   18   19 1
  36   18   45 1
  37   19   20 1
  38   19   24 1
  39   19   25 1
  40   20   46 1
  41   20   47 1
  42   20   48 1
  43   22   23 1
  44   22   49 1
  45   23   50 1
  46   23   51 1
  47   23   52 1
  48   24   53 1
  49   24   54 1
  50   24   55 1
  51   25   56 1
  52   25   57 1
  53   25   58 1
  54   26   27 ar
  55   26   31 ar
  56   27   28 ar
  57   27   59 1
  58   28   29 ar
  59   28   33 1
  60   29   30 ar
  61   29   32 1
  62   30   31 ar
  63   30   60 1
  64   31   61 1

#	End of record

