#	Name: ASD01882871
#	Creating user name:	WinNT
#	Creation time:	15. 06. 2019 19:45

#	Modifying user name:	WinNT
#	Modification time:	15. 06. 2019 19:45

#	Program:	/corina/corina34_cracker 3.40 0067  02.08.2006

@<TRIPOS>MOLECULE
ASD01882871
  61   64    0    0    0
SMALL
NO_CHARGES


@<TRIPOS>ATOM
   1 C1            -1.6960    -0.6340    -0.4622 C.2     
   2 N2            -1.7850    -1.8969    -0.8573 N.2     
   3 C3            -0.7146    -2.6978    -0.8788 C.2     
   4 C4             0.5464    -2.1934    -0.4718 C.2     
   5 C5             0.6243    -0.9069    -0.0718 C.2     
   6 N6            -0.5014    -0.1319    -0.0694 N.pl3   
   7 O7            -2.6899     0.2788    -0.3977 O.3     
   8 C8            -0.6734     1.2789     0.3168 C.3     
   9 C9            -2.1712     1.5460     0.0885 C.3     
  10 O10           -0.8226    -3.8576    -1.2465 O.2     
  11 C11           -2.3616     2.6411    -0.9629 C.3     
  12 O12           -3.7569     2.8933    -1.1407 O.3     
  13 C13           -4.1011     3.8459    -2.0468 C.ar    
  14 C14           -5.4382     4.1420    -2.2699 C.ar    
  15 C15           -5.7854     5.1106    -3.1913 C.ar    
  16 C16           -4.8018     5.7847    -3.8916 C.ar    
  17 C17           -3.4689     5.4912    -3.6715 C.ar    
  18 C18           -3.1161     4.5279    -2.7460 C.ar    
  19 C19           -5.1845     6.8435    -4.8994 C.3     
  20 C20           -4.5979     8.1846    -4.4601 C.3     
  21 C21           -4.9974     9.2824    -5.4447 C.3     
  22 C22           -4.5956     8.9279    -6.8675 C.3     
  23 C23           -4.9498     7.5190    -7.3122 C.3     
  24 C24           -4.6026     6.4710    -6.2609 C.3     
  25 C25           -6.4259     7.4090    -7.6997 C.3     
  26 C26           -4.1195     7.2017    -8.5768 C.3     
  27 C27           -6.4914     9.5808    -5.3345 C.3     
  28 C28           -4.2364    10.5654    -5.0437 C.3     
  29 C29           -7.2374     5.4327    -3.4341 C.3     
  30 H30            1.4234    -2.8237    -0.4812 H       
  31 H31            1.5701    -0.4925     0.2446 H       
  32 H32           -0.4130     1.4226     1.3655 H       
  33 H33           -0.0702     1.9259    -0.3201 H       
  34 H34           -2.6586     1.8242     1.0229 H       
  35 H35           -1.8669     3.5537    -0.6306 H       
  36 H36           -1.9277     2.3162    -1.9086 H       
  37 H37           -6.2068     3.6154    -1.7237 H       
  38 H38           -2.7026     6.0188    -4.2199 H       
  39 H39           -2.0746     4.3023    -2.5710 H       
  40 H40           -6.2682     6.9001    -4.9523 H       
  41 H41           -4.9726     8.4353    -3.4659 H       
  42 H42           -3.5098     8.1094    -4.4218 H       
  43 H43           -5.0685     9.6450    -7.5558 H       
  44 H44           -3.5085     9.0676    -6.9710 H       
  45 H45           -3.5155     6.3876    -6.1772 H       
  46 H46           -5.0015     5.5009    -6.5699 H       
  47 H47           -6.6517     8.1354    -8.4804 H       
  48 H48           -6.6308     6.4039    -8.0683 H       
  49 H49           -7.0466     7.6094    -6.8265 H       
  50 H50           -3.0575     7.2684    -8.3403 H       
  51 H51           -4.3524     6.1940    -8.9210 H       
  52 H52           -4.3629     7.9188    -9.3607 H       
  53 H53           -6.7004    10.0371    -4.3669 H       
  54 H54           -6.7849    10.2655    -6.1301 H       
  55 H55           -7.0551     8.6525    -5.4277 H       
  56 H56           -3.1632    10.3817    -5.0930 H       
  57 H57           -4.4988    11.3723    -5.7279 H       
  58 H58           -4.5104    10.8476    -4.0271 H       
  59 H59           -7.5225     6.2982    -2.8360 H       
  60 H60           -7.3886     5.6552    -4.4904 H       
  61 H61           -7.8515     4.5776    -3.1515 H       
@<TRIPOS>BOND
   1    1    2 2
   2    1    6 1
   3    1    7 1
   4    2    3 1
   5    3    4 1
   6    3   10 2
   7    4    5 2
   8    4   30 1
   9    5    6 1
  10    5   31 1
  11    6    8 1
  12    7    9 1
  13    8    9 1
  14    8   32 1
  15    8   33 1
  16    9   11 1
  17    9   34 1
  18   11   12 1
  19   11   35 1
  20   11   36 1
  21   12   13 1
  22   13   14 ar
  23   13   18 ar
  24   14   15 ar
  25   14   37 1
  26   15   16 ar
  27   15   29 1
  28   16   17 ar
  29   16   19 1
  30   17   18 ar
  31   17   38 1
  32   18   39 1
  33   19   20 1
  34   19   24 1
  35   19   40 1
  36   20   21 1
  37   20   41 1
  38   20   42 1
  39   21   22 1
  40   21   27 1
  41   21   28 1
  42   22   23 1
  43   22   43 1
  44   22   44 1
  45   23   24 1
  46   23   25 1
  47   23   26 1
  48   24   45 1
  49   24   46 1
  50   25   47 1
  51   25   48 1
  52   25   49 1
  53   26   50 1
  54   26   51 1
  55   26   52 1
  56   27   53 1
  57   27   54 1
  58   27   55 1
  59   28   56 1
  60   28   57 1
  61   28   58 1
  62   29   59 1
  63   29   60 1
  64   29   61 1

#	End of record

