#	Name: ASD01883857
#	Creating user name:	WinNT
#	Creation time:	15. 06. 2019 19:47

#	Modifying user name:	WinNT
#	Modification time:	15. 06. 2019 19:47

#	Program:	/corina/corina34_cracker 3.40 0067  02.08.2006

@<TRIPOS>MOLECULE
ASD01883857
  44   47    0    0    0
SMALL
NO_CHARGES


@<TRIPOS>ATOM
   1 O1            -0.0721     1.2999     0.0510 O.3     
   2 C2            -0.0170    -0.0551    -0.0090 C.2     
   3 C3             1.2208    -2.0943    -0.1709 C.2     
   4 C4             1.1885    -0.6899    -0.1103 C.2     
   5 C5            -1.2035    -0.8159     0.0386 C.2     
   6 C6            -1.1512    -2.1616    -0.0204 C.2     
   7 N7             1.7078    -4.1669    -0.2885 N.2     
   8 N8             2.2011    -2.9787    -0.2688 N.2     
   9 N9             0.0466    -2.8057    -0.1268 N.pl3   
  10 C10            0.4042    -4.1190    -0.2043 C.2     
  11 C11           -0.5323    -5.2996    -0.1953 C.3     
  12 C12           -0.7591    -5.7596     1.2462 C.3     
  13 C13           -1.7764    -6.8784     1.4790 C.3     
  14 C14           -0.2801    -7.1628     1.6237 C.3     
  15 C15            2.4679     0.1052    -0.1568 C.3     
  16 F16            2.1667     1.4701    -0.2168 F       
  17 F17            3.2214    -0.1560     0.9927 F       
  18 F18            3.2032    -0.2603    -1.2894 F       
  19 C19           -0.5554     1.8764     1.2659 C.3     
  20 C20           -0.4332     3.3997     1.1916 C.3     
  21 C21           -1.2485     3.9131     0.0328 C.ar    
  22 C22           -3.3214     4.7308    -0.8431 C.ar    
  23 C23           -2.7441     4.8554    -2.0930 C.ar    
  24 C24           -1.4209     4.5028    -2.2814 C.ar    
  25 C25           -0.6730     4.0319    -1.2184 C.ar    
  26 C26           -2.5735     4.2599     0.2198 C.ar    
  27 F27           -0.9064     3.9641     2.3810 F       
  28 F28            0.9085     3.7516     1.0099 F       
  29 H29           -2.1583    -0.3182     0.1231 H       
  30 H30           -2.0657    -2.7349     0.0172 H       
  31 H31           -1.4852    -5.0110    -0.6387 H       
  32 H32           -0.0951    -6.1146    -0.7722 H       
  33 H33           -0.6848    -4.9810     2.0053 H       
  34 H34           -2.3712    -6.8360     2.3914 H       
  35 H35           -2.2841    -7.2868     0.6051 H       
  36 H36            0.1967    -7.7583     0.8450 H       
  37 H37            0.1096    -7.3075     2.6313 H       
  38 H38           -1.6008     1.6022     1.4075 H       
  39 H39            0.0343     1.5051     2.1040 H       
  40 H40           -4.3552     5.0064    -0.6959 H       
  41 H41           -3.3284     5.2234    -2.9234 H       
  42 H42           -0.9698     4.6001    -3.2579 H       
  43 H43            0.3611     3.7571    -1.3654 H       
  44 H44           -3.0246     4.1626     1.1963 H       
@<TRIPOS>BOND
   1    1    2 1
   2    1   19 1
   3    2    5 1
   4    2    4 2
   5    3    4 1
   6    3    9 1
   7    3    8 2
   8    4   15 1
   9    5    6 2
  10    5   29 1
  11    6    9 1
  12    6   30 1
  13    7    8 1
  14    7   10 2
  15    9   10 1
  16   10   11 1
  17   11   12 1
  18   11   31 1
  19   11   32 1
  20   12   13 1
  21   12   14 1
  22   12   33 1
  23   13   14 1
  24   13   34 1
  25   13   35 1
  26   14   36 1
  27   14   37 1
  28   15   16 1
  29   15   17 1
  30   15   18 1
  31   19   20 1
  32   19   38 1
  33   19   39 1
  34   20   21 1
  35   20   27 1
  36   20   28 1
  37   21   26 ar
  38   21   25 ar
  39   22   23 ar
  40   22   26 ar
  41   22   40 1
  42   23   24 ar
  43   23   41 1
  44   24   25 ar
  45   24   42 1
  46   25   43 1
  47   26   44 1

#	End of record

