#	Name: ASD04490012
#	Creating user name:	WinNT
#	Creation time:	15. 06. 2019 20:49

#	Modifying user name:	WinNT
#	Modification time:	15. 06. 2019 20:49

#	Program:	/corina/corina34_cracker 3.40 0067  02.08.2006

@<TRIPOS>MOLECULE
ASD04490012
  27   28    0    0    0
SMALL
NO_CHARGES


@<TRIPOS>ATOM
   1 O1            -0.0162     1.3407     0.0094 O.3     
   2 C2             0.0021    -0.0041     0.0020 C.2     
   3 C3             1.2658    -0.4484    -0.0124 C.2     
   4 C4             2.1200     0.7459    -0.0142 C.ar    
   5 C5             1.2378     1.8386     0.0001 C.ar    
   6 C6             3.4990     0.9556    -0.0262 C.ar    
   7 C7             3.9933     2.2444    -0.0240 C.ar    
   8 C8             3.1170     3.3308    -0.0098 C.ar    
   9 C9             1.7498     3.1299     0.0022 C.ar    
  10 O10            5.3372     2.4562    -0.0353 O.3     
  11 C11           -1.2217    -0.8835     0.0094 C.3     
  12 O12            3.6127     4.5973    -0.0073 O.3     
  13 C13            2.6636     5.6654     0.0075 C.3     
  14 C14            1.7197    -1.8854    -0.0241 C.3     
  15 O15            1.8506    -2.3327    -1.3749 O.3     
  16 H16            4.1761     0.1143    -0.0369 H       
  17 H17            1.0796     3.9767     0.0128 H       
  18 H18            5.7176     2.5221    -0.9219 H       
  19 H19           -2.1164    -0.2611     0.0212 H       
  20 H20           -1.2255    -1.5084    -0.8837 H       
  21 H21           -1.2083    -1.5173     0.8962 H       
  22 H22            2.0299     5.6007    -0.8771 H       
  23 H23            2.0464     5.5907     0.9028 H       
  24 H24            3.1905     6.6196     0.0080 H       
  25 H25            2.6825    -1.9665     0.4805 H       
  26 H26            0.9852    -2.5026     0.4934 H       
  27 H27            2.1402    -3.2515    -1.4587 H       
@<TRIPOS>BOND
   1    1    2 1
   2    1    5 1
   3    2    3 2
   4    2   11 1
   5    3    4 1
   6    3   14 1
   7    4    5 ar
   8    4    6 ar
   9    5    9 ar
  10    6    7 ar
  11    6   16 1
  12    7    8 ar
  13    7   10 1
  14    8    9 ar
  15    8   12 1
  16    9   17 1
  17   10   18 1
  18   11   19 1
  19   11   20 1
  20   11   21 1
  21   12   13 1
  22   13   22 1
  23   13   23 1
  24   13   24 1
  25   14   15 1
  26   14   25 1
  27   14   26 1
  28   15   27 1

#	End of record

