#	Name: ASD04752001
#	Creating user name:	WinNT
#	Creation time:	15. 06. 2019 20:52

#	Modifying user name:	WinNT
#	Modification time:	15. 06. 2019 20:52

#	Program:	/corina/corina34_cracker 3.40 0067  02.08.2006

@<TRIPOS>MOLECULE
ASD04752001
  47   50    0    0    0
SMALL
NO_CHARGES


@<TRIPOS>ATOM
   1 C1            -0.5052     1.2966    -0.0291 C.2     
   2 C2            -0.5846    -0.1432     0.2178 C.2     
   3 C3             0.8374    -0.6530     0.2192 C.3     
   4 C4             1.7219     0.5431    -0.0344 C.ar    
   5 C5             3.0944     0.6558    -0.1348 C.ar    
   6 C6             3.6757     1.8876    -0.3760 C.ar    
   7 C7             2.8845     3.0141    -0.5185 C.ar    
   8 C8             1.5136     2.9149    -0.4205 C.ar    
   9 C9             0.9174     1.6721    -0.1766 C.ar    
  10 O10           -1.4522     2.0575    -0.1055 O.2     
  11 N11            1.1576    -1.2487     1.5233 N.3     
  12 C12            0.8839    -0.3044     2.6148 C.3     
  13 C13            0.2320    -1.0488     3.7817 C.3     
  14 C14           -0.0530    -0.0654     4.9186 C.3     
  15 C15            1.2591     0.5674     5.3865 C.3     
  16 C16            1.9110     1.3118     4.2196 C.3     
  17 C17            2.1960     0.3283     3.0828 C.3     
  18 C18           -1.7063    -0.8717     0.4075 C.2     
  19 C19           -1.6257    -2.3382     0.4900 C.ar    
  20 C20           -2.4775    -3.0421     1.3480 C.ar    
  21 C21           -2.3957    -4.4165     1.4196 C.ar    
  22 C22           -1.4738    -5.0999     0.6455 C.ar    
  23 C23           -0.6272    -4.4107    -0.2056 C.ar    
  24 C24           -0.7007    -3.0368    -0.2933 C.ar    
  25 H25            0.9707    -1.3908    -0.5720 H       
  26 H26            3.7161    -0.2204    -0.0243 H       
  27 H27            4.7497     1.9705    -0.4529 H       
  28 H28            3.3429     3.9737    -0.7067 H       
  29 H29            0.8991     3.7961    -0.5319 H       
  30 H30            0.6556    -2.1134     1.6588 H       
  31 H31            0.2105     0.4758     2.2600 H       
  32 H32           -0.7027    -1.4996     3.4483 H       
  33 H33            0.9054    -1.8291     4.1365 H       
  34 H34           -0.7264     0.7149     4.5638 H       
  35 H35           -0.5174    -0.5957     5.7499 H       
  36 H36            1.0560     1.2680     6.1965 H       
  37 H37            1.9324    -0.2129     5.7414 H       
  38 H38            1.2376     2.0920     3.8648 H       
  39 H39            2.8457     1.7625     4.5530 H       
  40 H40            2.8694    -0.4519     3.4376 H       
  41 H41            2.6604     0.8587     2.2514 H       
  42 H42           -2.6622    -0.3774     0.4986 H       
  43 H43           -3.1970    -2.5103     1.9529 H       
  44 H44           -3.0523    -4.9613     2.0817 H       
  45 H45           -1.4147    -6.1765     0.7061 H       
  46 H46            0.0896    -4.9512    -0.8060 H       
  47 H47           -0.0427    -2.5009    -0.9613 H       
@<TRIPOS>BOND
   1    1    2 1
   2    1    9 1
   3    1   10 2
   4    2    3 1
   5    2   18 2
   6    3    4 1
   7    3   11 1
   8    3   25 1
   9    4    5 ar
  10    4    9 ar
  11    5    6 ar
  12    5   26 1
  13    6    7 ar
  14    6   27 1
  15    7    8 ar
  16    7   28 1
  17    8    9 ar
  18    8   29 1
  19   11   12 1
  20   11   30 1
  21   12   13 1
  22   12   17 1
  23   12   31 1
  24   13   14 1
  25   13   32 1
  26   13   33 1
  27   14   15 1
  28   14   34 1
  29   14   35 1
  30   15   16 1
  31   15   36 1
  32   15   37 1
  33   16   17 1
  34   16   38 1
  35   16   39 1
  36   17   40 1
  37   17   41 1
  38   18   19 1
  39   18   42 1
  40   19   20 ar
  41   19   24 ar
  42   20   21 ar
  43   20   43 1
  44   21   22 ar
  45   21   44 1
  46   22   23 ar
  47   22   45 1
  48   23   24 ar
  49   23   46 1
  50   24   47 1

#	End of record

