#	Name: ASD01180055
#	Creating user name:	WinNT
#	Creation time:	15. 06. 2019 19:06

#	Modifying user name:	WinNT
#	Modification time:	15. 06. 2019 19:06

#	Program:	/corina/corina34_cracker 3.40 0067  02.08.2006

@<TRIPOS>MOLECULE
ASD01180055
  74   77    0    0    0
SMALL
NO_CHARGES


@<TRIPOS>ATOM
   1 C1             0.0043     1.6260     0.0511 C.3     
   2 C2            -0.0270     0.0969     0.0756 C.3     
   3 C3             0.5650    -0.4465    -1.2283 C.3     
   4 C4             1.9561     0.1392    -1.4037 C.2     
   5 C5             2.1090     1.6272    -1.2943 C.3     
   6 C6             1.4543     2.1117     0.0024 C.3     
   7 C7             2.9414    -0.6757    -1.6426 C.2     
   8 C8             4.3578    -0.2140    -1.8259 C.3     
   9 C9             4.3550     1.2296    -2.3407 C.3     
  10 C10            3.5552     2.0898    -1.3524 C.3     
  11 C11            5.7766     1.7616    -2.3657 C.3     
  12 C12            5.7173     3.2080    -2.9259 C.3     
  13 C13            5.0552     4.0688    -1.8667 C.3     
  14 C14            3.6092     3.5707    -1.7171 C.3     
  15 C15            6.7254     1.0820    -3.3591 C.3     
  16 C16            7.8255     2.1562    -3.5789 C.3     
  17 C17            7.1766     3.5216    -3.2406 C.3     
  18 C18            7.2690     4.4645    -4.4420 C.3     
  19 C19            6.5915     5.7932    -4.1007 C.3     
  20 C20            8.7396     4.7145    -4.7822 C.3     
  21 C21            8.8323     5.5553    -6.0571 C.3     
  22 C22           10.3029     5.8053    -6.3973 C.3     
  23 C23           10.3956     6.6461    -7.6722 C.3     
  24 C24           11.8589     7.0012    -7.9437 C.3     
  25 C25            9.8374     5.8473    -8.8517 C.3     
  26 C26            4.8860     3.2341    -4.2101 C.3     
  27 C27            1.3696     2.2703    -2.4693 C.3     
  28 O28            0.7425    -0.3776     1.1823 O.3     
  29 H29           -0.5283     1.9856    -0.8294 H       
  30 H30           -0.4778     2.0130     0.9488 H       
  31 H31           -1.0574    -0.2438     0.1766 H       
  32 H32            0.6280    -1.5335    -1.1780 H       
  33 H33           -0.0653    -0.1533    -2.0679 H       
  34 H34            1.4743     3.2010     0.0348 H       
  35 H35            2.0005     1.7121     0.8568 H       
  36 H36            2.7308    -1.7327    -1.7118 H       
  37 H37            4.8819    -0.2591    -0.8712 H       
  38 H38            4.8598    -0.8573    -2.5485 H       
  39 H39            3.9034     1.2754    -3.3317 H       
  40 H40            3.9935     1.9722    -0.3613 H       
  41 H41            6.1988     1.7600    -1.3608 H       
  42 H42            5.5838     3.9642    -0.9192 H       
  43 H43            5.0578     5.1125    -2.1812 H       
  44 H44            3.0816     3.7240    -2.6585 H       
  45 H45            3.1139     4.1472    -0.9359 H       
  46 H46            7.1515     0.1763    -2.9276 H       
  47 H47            6.2107     0.8601    -4.2940 H       
  48 H48            8.6696     1.9685    -2.9154 H       
  49 H49            8.1560     2.1462    -4.6176 H       
  50 H50            7.6632     3.9661    -2.3724 H       
  51 H51            6.7698     4.0116    -5.2986 H       
  52 H52            7.0907     6.2461    -3.2441 H       
  53 H53            6.6573     6.4650    -4.9565 H       
  54 H54            5.5438     5.6151    -3.8583 H       
  55 H55            9.2173     5.2473    -3.9600 H       
  56 H56            9.2436     3.7607    -4.9386 H       
  57 H57            8.3546     5.0225    -6.8793 H       
  58 H58            8.3284     6.5091    -5.9007 H       
  59 H59           10.7806     6.3381    -5.5751 H       
  60 H60           10.8069     4.8515    -6.5537 H       
  61 H61            9.8169     7.5613    -7.5468 H       
  62 H62           12.4376     6.0861    -8.0691 H       
  63 H63           11.9249     7.6002    -8.8519 H       
  64 H64           12.2566     7.5703    -7.1034 H       
  65 H65           10.4161     4.9322    -8.9771 H       
  66 H66            8.7949     5.5944    -8.6583 H       
  67 H67            9.9034     6.4464    -9.7600 H       
  68 H68            3.8745     2.8896    -3.9952 H       
  69 H69            4.8484     4.2520    -4.5979 H       
  70 H70            5.3430     2.5792    -4.9520 H       
  71 H71            0.3479     1.8924    -2.5063 H       
  72 H72            1.3523     3.3524    -2.3393 H       
  73 H73            1.8818     2.0242    -3.3995 H       
  74 H74            0.7669    -1.3412     1.2600 H       
@<TRIPOS>BOND
   1    1    2 1
   2    1    6 1
   3    1   29 1
   4    1   30 1
   5    2    3 1
   6    2   28 1
   7    2   31 1
   8    3    4 1
   9    3   32 1
  10    3   33 1
  11    4    5 1
  12    4    7 2
  13    5    6 1
  14    5   27 1
  15    5   10 1
  16    6   34 1
  17    6   35 1
  18    7    8 1
  19    7   36 1
  20    8    9 1
  21    8   37 1
  22    8   38 1
  23    9   10 1
  24    9   11 1
  25    9   39 1
  26   10   14 1
  27   10   40 1
  28   11   12 1
  29   11   15 1
  30   11   41 1
  31   12   13 1
  32   12   26 1
  33   12   17 1
  34   13   14 1
  35   13   42 1
  36   13   43 1
  37   14   44 1
  38   14   45 1
  39   15   16 1
  40   15   46 1
  41   15   47 1
  42   16   17 1
  43   16   48 1
  44   16   49 1
  45   17   18 1
  46   17   50 1
  47   18   19 1
  48   18   20 1
  49   18   51 1
  50   19   52 1
  51   19   53 1
  52   19   54 1
  53   20   21 1
  54   20   55 1
  55   20   56 1
  56   21   22 1
  57   21   57 1
  58   21   58 1
  59   22   23 1
  60   22   59 1
  61   22   60 1
  62   23   24 1
  63   23   25 1
  64   23   61 1
  65   24   62 1
  66   24   63 1
  67   24   64 1
  68   25   65 1
  69   25   66 1
  70   25   67 1
  71   26   68 1
  72   26   69 1
  73   26   70 1
  74   27   71 1
  75   27   72 1
  76   27   73 1
  77   28   74 1

#	End of record

