#	Name: ASD00450014
#	Creating user name:	WinNT
#	Creation time:	15. 06. 2019 18:36

#	Modifying user name:	WinNT
#	Modification time:	15. 06. 2019 18:36

#	Program:	/corina/corina34_cracker 3.40 0067  02.08.2006

@<TRIPOS>MOLECULE
ASD00450014
  51   54    0    0    0
SMALL
NO_CHARGES


@<TRIPOS>ATOM
   1 C1             0.7410     0.5719    -0.8059 C.ar    
   2 C2             0.8588    -0.7931    -0.9712 C.ar    
   3 C3             2.1105    -1.3734    -1.0852 C.ar    
   4 C4             3.2497    -0.5884    -1.0336 C.ar    
   5 C5             3.1423     0.7774    -0.8686 C.ar    
   6 C6             1.8847     1.3663    -0.7538 C.ar    
   7 C7             1.7636     2.8346    -0.5766 C.ar    
   8 N8             0.3796     4.7309    -0.2980 N.ar    
   9 C9             0.5074     3.4318    -0.4551 C.ar    
  10 C10            2.9036     3.6371    -0.5235 C.ar    
  11 C11            1.4322     5.5375    -0.2467 C.ar    
  12 N12            1.5591     6.9001    -0.0906 N.pl3   
  13 C13            2.7299     5.0071    -0.3560 C.ar    
  14 C14            3.6492     6.1547    -0.2538 C.2     
  15 C15            2.8651     7.2612    -0.0950 C.2     
  16 C16            5.1159     6.1157    -0.3108 C.2     
  17 C17            5.8883     7.3737    -0.3108 C.ar    
  18 O18            5.6949     5.0462    -0.3581 O.2     
  19 C19            6.9714     9.1550     0.8943 C.ar    
  20 C20            6.2480     7.9777     0.8993 C.ar    
  21 C21            6.2687     7.9643    -1.5196 C.ar    
  22 C22            6.9953     9.1470    -1.5096 C.ar    
  23 C23            7.3424     9.7398    -0.3026 C.ar    
  24 N24            7.3788     9.7427    -2.7174 N.am    
  25 S25            8.8362    10.5208    -2.8307 S.o2    
  26 O26            8.9219    10.9074    -4.1955 O.2     
  27 O27            8.7959    11.4930    -1.7951 O.2     
  28 C28           10.0639     9.2397    -2.4537 C.3     
  29 C29           11.4685     9.8420    -2.5269 C.3     
  30 C30           12.5039     8.7614    -2.2090 C.3     
  31 Cl31           2.2521    -3.0911    -1.2931 Cl      
  32 F32            5.8880     7.4104     2.0714 F       
  33 F33            5.9310     7.3859    -2.6929 F       
  34 H34           -0.2361     1.0242    -0.7215 H       
  35 H35           -0.0270    -1.4097    -1.0113 H       
  36 H36            4.2240    -1.0458    -1.1224 H       
  37 H37            4.0316     1.3889    -0.8284 H       
  38 H38           -0.3776     2.8139    -0.4912 H       
  39 H39            3.8909     3.2077    -0.6093 H       
  40 H40            0.8166     7.5154     0.0142 H       
  41 H41            3.2307     8.2719     0.0104 H       
  42 H42            7.2485     9.6202     1.8288 H       
  43 H43            7.9075    10.6602    -0.2987 H       
  44 H44            6.7909     9.6995    -3.4877 H       
  45 H45            9.8871     8.8509    -1.4509 H       
  46 H46            9.9777     8.4296    -3.1779 H       
  47 H47           11.6453    10.2307    -3.5298 H       
  48 H48           11.5546    10.6521    -1.8028 H       
  49 H49           13.5046     9.1905    -2.2611 H       
  50 H50           12.3271     8.3726    -1.2061 H       
  51 H51           12.4178     7.9513    -2.9331 H       
@<TRIPOS>BOND
   1    1    2 ar
   2    1    6 ar
   3    1   34 1
   4    2    3 ar
   5    2   35 1
   6    3    4 ar
   7    3   31 1
   8    4    5 ar
   9    4   36 1
  10    5    6 ar
  11    5   37 1
  12    6    7 1
  13    7   10 ar
  14    7    9 ar
  15    8    9 ar
  16    8   11 ar
  17    9   38 1
  18   10   13 ar
  19   10   39 1
  20   11   13 ar
  21   11   12 1
  22   12   15 1
  23   12   40 1
  24   13   14 1
  25   14   15 2
  26   14   16 1
  27   15   41 1
  28   16   17 1
  29   16   18 2
  30   17   21 ar
  31   17   20 ar
  32   19   20 ar
  33   19   23 ar
  34   19   42 1
  35   20   32 1
  36   21   22 ar
  37   21   33 1
  38   22   23 ar
  39   22   24 1
  40   23   43 1
  41   24   25 am
  42   24   44 1
  43   25   26 2
  44   25   27 2
  45   25   28 1
  46   28   29 1
  47   28   45 1
  48   28   46 1
  49   29   30 1
  50   29   47 1
  51   29   48 1
  52   30   49 1
  53   30   50 1
  54   30   51 1

#	End of record

