#	Name: ASD05303041
#	Creating user name:	WinNT
#	Creation time:	15. 06. 2019 20:58

#	Modifying user name:	WinNT
#	Modification time:	15. 06. 2019 20:58

#	Program:	/corina/corina34_cracker 3.40 0067  02.08.2006

@<TRIPOS>MOLECULE
ASD05303041
  40   42    0    0    0
SMALL
NO_CHARGES


@<TRIPOS>ATOM
   1 C1            -0.1536    -1.9617     3.6035 C.ar    
   2 C2             0.2580    -2.9184     2.6869 C.ar    
   3 C3             1.4043    -2.7340     1.9439 C.ar    
   4 C4             2.1620    -1.5792     2.1094 C.ar    
   5 C5             1.7455    -0.6130     3.0401 C.ar    
   6 C6             0.5822    -0.8112     3.7842 C.ar    
   7 N7             3.3122    -1.3840     1.3627 N.am    
   8 C8             4.2401    -0.4122     1.6990 C.ar    
   9 C9             3.9087     0.6020     2.6127 C.ar    
  10 C10            2.5610     0.6052     3.2155 C.2     
  11 C11            5.5116    -0.4293     1.1348 C.ar    
  12 C12            6.4277     0.5442     1.4709 C.ar    
  13 C13            6.0973     1.5477     2.3701 C.ar    
  14 C14            4.8446     1.5828     2.9421 C.ar    
  15 O15            2.1408     1.5691     3.8288 O.2     
  16 C16            3.5341    -2.1590     0.2826 C.2     
  17 O17            4.6653    -2.5087     0.0076 O.2     
  18 N18            2.5018    -2.5463    -0.4925 N.am    
  19 C19            0.7661    -1.1832    -1.5464 C.3     
  20 C20            1.1748    -1.9587    -0.2924 C.3     
  21 C21            2.4592    -4.9479    -0.9528 C.3     
  22 C22            2.7067    -3.5548    -1.5351 C.3     
  23 H23           -1.0570    -2.1176     4.1745 H       
  24 H24           -0.3258    -3.8173     2.5544 H       
  25 H25            1.7143    -3.4862     1.2336 H       
  26 H26            0.2606    -0.0672     4.4980 H       
  27 H27            5.7809    -1.2055     0.4338 H       
  28 H28            7.4134     0.5254     1.0298 H       
  29 H29            6.8252     2.3045     2.6227 H       
  30 H30            4.5888     2.3645     3.6421 H       
  31 H31           -0.1728    -0.6614    -1.3610 H       
  32 H32            1.5416    -0.4586    -1.7944 H       
  33 H33            0.6381    -1.8771    -2.3772 H       
  34 H34            0.4511    -2.7516    -0.1036 H       
  35 H35            1.2024    -1.2811     0.5610 H       
  36 H36            3.1538    -5.1273    -0.1322 H       
  37 H37            1.4358    -5.0105    -0.5829 H       
  38 H38            2.6116    -5.6983    -1.7286 H       
  39 H39            2.0121    -3.3754    -2.3557 H       
  40 H40            3.7301    -3.4923    -1.9051 H       
@<TRIPOS>BOND
   1    1    2 ar
   2    1    6 ar
   3    1   23 1
   4    2    3 ar
   5    2   24 1
   6    3    4 ar
   7    3   25 1
   8    4    5 ar
   9    4    7 1
  10    5    6 ar
  11    5   10 1
  12    6   26 1
  13    7    8 1
  14    7   16 am
  15    8    9 ar
  16    8   11 ar
  17    9   10 1
  18    9   14 ar
  19   10   15 2
  20   11   12 ar
  21   11   27 1
  22   12   13 ar
  23   12   28 1
  24   13   14 ar
  25   13   29 1
  26   14   30 1
  27   16   17 2
  28   16   18 am
  29   18   20 1
  30   18   22 1
  31   19   20 1
  32   19   31 1
  33   19   32 1
  34   19   33 1
  35   20   34 1
  36   20   35 1
  37   21   22 1
  38   21   36 1
  39   21   37 1
  40   21   38 1
  41   22   39 1
  42   22   40 1

#	End of record

