#	Name: ASD01810958
#	Creating user name:	WinNT
#	Creation time:	15. 06. 2019 19:25

#	Modifying user name:	WinNT
#	Modification time:	15. 06. 2019 19:25

#	Program:	/corina/corina34_cracker 3.40 0067  02.08.2006

@<TRIPOS>MOLECULE
ASD01810958
  40   41    0    0    0
SMALL
NO_CHARGES


@<TRIPOS>ATOM
   1 C1            -0.0242     1.4727    -0.0590 C.2     
   2 C2            -0.0010    -0.0044    -0.0316 C.ar    
   3 C3             1.2149    -0.6874    -0.1186 C.ar    
   4 C4             1.2378    -2.0673    -0.0926 C.ar    
   5 C5             0.0611    -2.7818     0.0194 C.ar    
   6 C6            -1.1606    -2.1120     0.1071 C.ar    
   7 C7            -1.1912    -0.7197     0.0869 C.ar    
   8 O8             1.0180     2.0966    -0.0581 O.2     
   9 O9            -1.2011     2.1273    -0.0907 O.3     
  10 C10            0.0961    -4.2881     0.0464 C.3     
  11 N11           -3.7774    -4.5091     0.3733 N.2     
  12 N12           -2.5376    -4.1881     0.2637 N.2     
  13 C13           -2.4199    -2.8795     0.2271 C.2     
  14 N14           -3.6832    -2.3617     0.3213 N.pl3   
  15 C15           -4.5170    -3.4332     0.4126 C.2     
  16 C16           -6.0182    -3.3871     0.5363 C.3     
  17 C17           -6.6478    -4.2229    -0.5798 C.3     
  18 O18           -8.0713    -4.1791    -0.4625 O.3     
  19 C19           -8.7604    -4.9319    -1.4628 C.3     
  20 C20            2.5037     0.0839    -0.2416 C.3     
  21 C21            2.9501     0.5552     1.1439 C.3     
  22 H22            2.1801    -2.5906    -0.1605 H       
  23 H23           -2.1335    -0.1968     0.1590 H       
  24 H24           -1.1657     3.0935    -0.1078 H       
  25 H25            0.1896    -4.6310     1.0769 H       
  26 H26           -0.8247    -4.6808    -0.3849 H       
  27 H27            0.9486    -4.6423    -0.5331 H       
  28 H28           -3.9327    -1.4243     0.3231 H       
  29 H29           -6.3155    -3.7905     1.5043 H       
  30 H30           -6.3580    -2.3548     0.4530 H       
  31 H31           -6.3505    -3.8195    -1.5478 H       
  32 H32           -6.3080    -5.2552    -0.4965 H       
  33 H33           -8.5069    -4.5432    -2.4490 H       
  34 H34           -8.4644    -5.9790    -1.3978 H       
  35 H35           -9.8356    -4.8478    -1.3045 H       
  36 H36            3.2720    -0.5585    -0.6719 H       
  37 H37            2.3495     0.9485    -0.8872 H       
  38 H38            3.8823     1.1131     1.0549 H       
  39 H39            2.1819     1.1976     1.5742 H       
  40 H40            3.1043    -0.3093     1.7895 H       
@<TRIPOS>BOND
   1    1    2 1
   2    1    8 2
   3    1    9 1
   4    2    3 ar
   5    2    7 ar
   6    3    4 ar
   7    3   20 1
   8    4    5 ar
   9    4   22 1
  10    5    6 ar
  11    5   10 1
  12    6    7 ar
  13    6   13 1
  14    7   23 1
  15    9   24 1
  16   10   25 1
  17   10   26 1
  18   10   27 1
  19   11   12 1
  20   11   15 2
  21   12   13 2
  22   13   14 1
  23   14   15 1
  24   14   28 1
  25   15   16 1
  26   16   17 1
  27   16   29 1
  28   16   30 1
  29   17   18 1
  30   17   31 1
  31   17   32 1
  32   18   19 1
  33   19   33 1
  34   19   34 1
  35   19   35 1
  36   20   21 1
  37   20   36 1
  38   20   37 1
  39   21   38 1
  40   21   39 1
  41   21   40 1

#	End of record

