#	Name: ASD01881283
#	Creating user name:	WinNT
#	Creation time:	15. 06. 2019 19:42

#	Modifying user name:	WinNT
#	Modification time:	15. 06. 2019 19:42

#	Program:	/corina/corina34_cracker 3.40 0067  02.08.2006

@<TRIPOS>MOLECULE
ASD01881283
  57   60    0    0    0
SMALL
NO_CHARGES


@<TRIPOS>ATOM
   1 C1            -0.0166     1.3751     0.0096 C.ar    
   2 C2             0.0021    -0.0041     0.0020 C.ar    
   3 C3             1.2333    -0.6658    -0.0133 C.ar    
   4 C4             2.3982     0.1061    -0.0204 C.ar    
   5 C5             2.2901     1.4816    -0.0119 C.ar    
   6 N6             1.1074     2.0680     0.0026 N.ar    
   7 C7             1.3015    -2.1479    -0.0215 C.ar    
   8 C8             2.0985    -2.8062    -0.9560 C.ar    
   9 C9             2.1581    -4.1850    -0.9590 C.ar    
  10 C10            1.4286    -4.9134    -0.0367 C.ar    
  11 C11            0.6358    -4.2652     0.8932 C.ar    
  12 C12            0.5732    -2.8866     0.9090 C.ar    
  13 C13           -1.2861    -0.7861     0.0107 C.3     
  14 O14           -1.7067    -1.0261    -1.3338 O.3     
  15 C15           -6.4049    -3.8665    -2.3345 C.2     
  16 N16           -6.4336    -3.8680    -3.6782 N.am    
  17 C17           -5.2565    -3.1475    -4.1765 C.3     
  18 C18           -4.4910    -2.6972    -2.9572 C.ar    
  19 C19           -3.3252    -1.9920    -2.7865 C.ar    
  20 C20           -2.8585    -1.7233    -1.5039 C.ar    
  21 C21           -3.5706    -2.1688    -0.3961 C.ar    
  22 C22           -4.7398    -2.8767    -0.5616 C.ar    
  23 C23           -5.2135    -3.1490    -1.8484 C.ar    
  24 C24           -7.4694    -4.4875    -4.5086 C.3     
  25 C25           -8.5787    -3.4702    -4.7836 C.3     
  26 O26           -8.0565    -2.3966    -5.5689 O.3     
  27 C27           -9.0167    -1.3861    -5.8835 C.3     
  28 F28           -9.5120    -0.8288    -4.6998 F       
  29 F29           -8.4078    -0.3869    -6.6504 F       
  30 F30          -10.0702    -1.9534    -6.6084 F       
  31 O31           -7.2453    -4.3798    -1.6214 O.2     
  32 C32            3.5386     2.3256    -0.0189 C.3     
  33 C33           -1.3374     2.1008     0.0198 C.3     
  34 O34            1.0423     3.4825     0.0104 O.3     
  35 H35            3.3690    -0.3672    -0.0319 H       
  36 H36            2.6682    -2.2384    -1.6767 H       
  37 H37            2.7752    -4.6963    -1.6830 H       
  38 H38            1.4779    -5.9923    -0.0429 H       
  39 H39            0.0683    -4.8389     1.6110 H       
  40 H40           -0.0427    -2.3813     1.6383 H       
  41 H41           -1.1297    -1.7382     0.5179 H       
  42 H42           -2.0533    -0.2167     0.5352 H       
  43 H43           -4.6396    -3.8112    -4.7823 H       
  44 H44           -5.5670    -2.2835    -4.7641 H       
  45 H45           -2.7713    -1.6465    -3.6468 H       
  46 H46           -3.2050    -1.9591     0.5982 H       
  47 H47           -5.2901    -3.2213     0.3015 H       
  48 H48           -7.0321    -4.8123    -5.4527 H       
  49 H49           -7.8871    -5.3483    -3.9865 H       
  50 H50           -9.3905    -3.9554    -5.3256 H       
  51 H51           -8.9556    -3.0792    -3.8385 H       
  52 H52            3.8301     2.5347    -1.0481 H       
  53 H53            3.3459     3.2636     0.5018 H       
  54 H54            4.3427     1.7890     0.4847 H       
  55 H55           -1.6509     2.2702     1.0499 H       
  56 H56           -1.2297     3.0585    -0.4894 H       
  57 H57           -2.0868     1.4985    -0.4938 H       
@<TRIPOS>BOND
   1    1    2 ar
   2    1    6 ar
   3    1   33 1
   4    2    3 ar
   5    2   13 1
   6    3    4 ar
   7    3    7 1
   8    4    5 ar
   9    4   35 1
  10    5    6 ar
  11    5   32 1
  12    6   34 1
  13    7    8 ar
  14    7   12 ar
  15    8    9 ar
  16    8   36 1
  17    9   10 ar
  18    9   37 1
  19   10   11 ar
  20   10   38 1
  21   11   12 ar
  22   11   39 1
  23   12   40 1
  24   13   14 1
  25   13   41 1
  26   13   42 1
  27   14   20 1
  28   15   16 am
  29   15   23 1
  30   15   31 2
  31   16   17 1
  32   16   24 1
  33   17   18 1
  34   17   43 1
  35   17   44 1
  36   18   19 ar
  37   18   23 ar
  38   19   20 ar
  39   19   45 1
  40   20   21 ar
  41   21   22 ar
  42   21   46 1
  43   22   23 ar
  44   22   47 1
  45   24   25 1
  46   24   48 1
  47   24   49 1
  48   25   26 1
  49   25   50 1
  50   25   51 1
  51   26   27 1
  52   27   28 1
  53   27   29 1
  54   27   30 1
  55   32   52 1
  56   32   53 1
  57   32   54 1
  58   33   55 1
  59   33   56 1
  60   33   57 1

#	End of record

