#	Name: ASD08151115
#	Creating user name:	WinNT
#	Creation time:	15. 06. 2019 21:17

#	Modifying user name:	WinNT
#	Modification time:	15. 06. 2019 21:17

#	Program:	/corina/corina34_cracker 3.40 0067  02.08.2006

@<TRIPOS>MOLECULE
ASD08151115
  46   50    0    0    0
SMALL
NO_CHARGES


@<TRIPOS>ATOM
   1 C1             0.6271     2.1590     0.4340 C.ar    
   2 C2             0.4072     0.8006     0.7268 C.ar    
   3 C3             1.4322    -0.0943     0.6204 C.ar    
   4 C4             2.7003     0.3138     0.2249 C.ar    
   5 C5             2.9572     1.6405    -0.0718 C.ar    
   6 C6             1.9130     2.5913     0.0297 C.ar    
   7 C7             3.8094    -0.7009     0.1185 C.3     
   8 C8             3.4049    -1.9779     0.8578 C.3     
   9 N9             4.0545    -1.0103    -1.2923 N.pl3   
  10 C10            5.3054    -1.4404    -1.6992 C.ar    
  11 C11            5.5584    -1.7415    -3.0481 C.ar    
  12 C12            6.8484    -2.1732    -3.4008 C.ar    
  13 N13            7.7751    -2.2799    -2.4543 N.ar    
  14 C14            7.4925    -1.9863    -1.2025 C.ar    
  15 N15            6.2969    -1.5728    -0.8240 N.ar    
  16 N16            4.8201    -1.7207    -4.1838 N.2     
  17 C17            5.5566    -2.1027    -5.1864 C.2     
  18 N18            6.8166    -2.3931    -4.7547 N.pl3   
  19 C19            4.3136     2.0628    -0.4918 C.ar    
  20 C20            4.5339     2.5176    -1.7915 C.ar    
  21 C21            5.8014     2.9106    -2.1769 C.ar    
  22 C22            6.8513     2.8523    -1.2742 C.ar    
  23 C23            6.6367     2.4018     0.0155 C.ar    
  24 C24            5.3737     2.0123     0.4128 C.ar    
  25 F25           -0.8179     0.3823     1.1135 F       
  26 F26            6.0175     3.3516    -3.4355 F       
  27 N27            2.1252     3.8790    -0.2494 N.ar    
  28 C28            1.1620     4.7647    -0.1577 C.ar    
  29 C29           -0.1256     4.4074     0.2340 C.ar    
  30 C30           -0.4111     3.1042     0.5289 C.ar    
  31 H31            1.2552    -1.1353     0.8473 H       
  32 H32            4.7173    -0.2950     0.5645 H       
  33 H33            2.5653    -2.4452     0.3433 H       
  34 H34            4.2481    -2.6683     0.8785 H       
  35 H35            3.1132    -1.7300     1.8784 H       
  36 H36            3.3401    -0.9137    -1.9412 H       
  37 H37            8.2685    -2.0838    -0.4578 H       
  38 H38            5.2193    -2.1785    -6.2096 H       
  39 H39            7.5552    -2.6990    -5.3040 H       
  40 H40            3.7159     2.5623    -2.4952 H       
  41 H41            7.8408     3.1596    -1.5791 H       
  42 H42            7.4587     2.3586     0.7148 H       
  43 H43            5.2082     1.6612     1.4207 H       
  44 H44            1.3732     5.7977    -0.3917 H       
  45 H45           -0.8985     5.1588     0.3010 H       
  46 H46           -1.4040     2.8090     0.8343 H       
@<TRIPOS>BOND
   1    1    2 ar
   2    1    6 ar
   3    1   30 ar
   4    2    3 ar
   5    2   25 1
   6    3    4 ar
   7    3   31 1
   8    4    5 ar
   9    4    7 1
  10    5    6 ar
  11    5   19 1
  12    6   27 ar
  13    7    8 1
  14    7    9 1
  15    7   32 1
  16    8   33 1
  17    8   34 1
  18    8   35 1
  19    9   10 1
  20    9   36 1
  21   10   11 ar
  22   10   15 ar
  23   11   12 ar
  24   11   16 1
  25   12   13 ar
  26   12   18 1
  27   13   14 ar
  28   14   15 ar
  29   14   37 1
  30   16   17 2
  31   17   18 1
  32   17   38 1
  33   18   39 1
  34   19   20 ar
  35   19   24 ar
  36   20   21 ar
  37   20   40 1
  38   21   22 ar
  39   21   26 1
  40   22   23 ar
  41   22   41 1
  42   23   24 ar
  43   23   42 1
  44   24   43 1
  45   27   28 ar
  46   28   29 ar
  47   28   44 1
  48   29   30 ar
  49   29   45 1
  50   30   46 1

#	End of record

