#	Name: ASD01881798
#	Creating user name:	WinNT
#	Creation time:	15. 06. 2019 19:43

#	Modifying user name:	WinNT
#	Modification time:	15. 06. 2019 19:43

#	Program:	/corina/corina34_cracker 3.40 0067  02.08.2006

@<TRIPOS>MOLECULE
ASD01881798
  49   52    0    0    0
SMALL
NO_CHARGES


@<TRIPOS>ATOM
   1 N1            -0.0139     1.2805    -0.1017 N.pl3   
   2 N2             0.0042    -0.0075    -0.1106 N.2     
   3 N3             1.2057    -0.4678    -0.1097 N.2     
   4 C4             2.0761     0.5619    -0.0994 C.ar    
   5 C5             1.2856     1.7269    -0.0940 C.ar    
   6 C6             3.4690     0.6740    -0.0934 C.ar    
   7 C7             4.0497     1.9268    -0.0822 C.ar    
   8 C8             3.2567     3.0718    -0.0769 C.ar    
   9 C9             1.8931     2.9757    -0.0835 C.ar    
  10 O10            5.4046     2.0433    -0.0758 O.3     
  11 C11            5.9418     3.3674    -0.0643 C.3     
  12 C12            7.4702     3.2977    -0.0585 C.3     
  13 C13            8.0453     4.7154    -0.0462 C.3     
  14 N14            9.5089     4.6492     0.0611 N.3     
  15 C15           10.0937     4.0144    -1.1223 C.3     
  16 C16           11.5915     4.3273    -1.1953 C.3     
  17 S17           12.4069     3.6154     0.2656 S.o2    
  18 C18           11.3853     4.3029     1.6033 C.3     
  19 C19            9.9148     3.9932     1.3062 C.3     
  20 O20           12.2361     2.2050     0.2407 O.2     
  21 O21           13.7160     4.1588     0.3668 O.2     
  22 C22           -1.2122     2.1232    -0.1054 C.3     
  23 C23           -1.6407     2.4069     1.3357 C.3     
  24 C24           -2.8096     3.3710     1.5485 C.3     
  25 C25           -3.0013     1.8718     1.7866 C.3     
  26 Br26           4.5500    -0.8776    -0.0999 Br      
  27 H27            3.7238     4.0455    -0.0678 H       
  28 H28            1.2884     3.8706    -0.0796 H       
  29 H29            5.6059     3.9035    -0.9519 H       
  30 H30            5.5986     3.8910     0.8280 H       
  31 H31            7.8061     2.7616     0.8291 H       
  32 H32            7.8133     2.7741    -0.9508 H       
  33 H33            7.7714     5.2267    -0.9691 H       
  34 H34            7.6430     5.2634     0.8059 H       
  35 H35            9.9518     2.9354    -1.0618 H       
  36 H36            9.6007     4.3935    -2.0175 H       
  37 H37           12.0131     3.8885    -2.0996 H       
  38 H38           11.7394     5.4071    -1.2067 H       
  39 H39           11.6704     3.8479     2.5519 H       
  40 H40           11.5285     5.3822     1.6551 H       
  41 H41            9.2954     4.3573     2.1259 H       
  42 H42            9.7846     2.9156     1.2068 H       
  43 H43           -0.9934     3.0636    -0.6112 H       
  44 H44           -2.0173     1.6078    -0.6290 H       
  45 H45           -0.8363     2.4212     2.0712 H       
  46 H46           -2.7744     4.0192     2.4241 H       
  47 H47           -3.2733     3.8031     0.6617 H       
  48 H48           -3.5912     1.3177     1.0565 H       
  49 H49           -3.0923     1.5338     2.8188 H       
@<TRIPOS>BOND
   1    1    2 1
   2    1    5 1
   3    1   22 1
   4    2    3 2
   5    3    4 1
   6    4    5 ar
   7    4    6 ar
   8    5    9 ar
   9    6    7 ar
  10    6   26 1
  11    7    8 ar
  12    7   10 1
  13    8    9 ar
  14    8   27 1
  15    9   28 1
  16   10   11 1
  17   11   12 1
  18   11   29 1
  19   11   30 1
  20   12   13 1
  21   12   31 1
  22   12   32 1
  23   13   14 1
  24   13   33 1
  25   13   34 1
  26   14   15 1
  27   14   19 1
  28   15   16 1
  29   15   35 1
  30   15   36 1
  31   16   17 1
  32   16   37 1
  33   16   38 1
  34   17   18 1
  35   17   20 2
  36   17   21 2
  37   18   19 1
  38   18   39 1
  39   18   40 1
  40   19   41 1
  41   19   42 1
  42   22   23 1
  43   22   43 1
  44   22   44 1
  45   23   24 1
  46   23   25 1
  47   23   45 1
  48   24   25 1
  49   24   46 1
  50   24   47 1
  51   25   48 1
  52   25   49 1

#	End of record

