#	Name: ASD03331037
#	Creating user name:	WinNT
#	Creation time:	15. 06. 2019 20:38

#	Modifying user name:	WinNT
#	Modification time:	15. 06. 2019 20:38

#	Program:	/corina/corina34_cracker 3.40 0067  02.08.2006

@<TRIPOS>MOLECULE
ASD03331037
  64   67    0    0    0
SMALL
NO_CHARGES


@<TRIPOS>ATOM
   1 N1            -0.5558     1.7444    -0.1028 N.pl3   
   2 C2            -0.3678     0.4046     0.0313 C.2     
   3 C3             0.9627    -0.2833     0.1920 C.3     
   4 N4             1.7498     0.4223     1.2153 N.3     
   5 C5             2.5444     1.5002     0.6233 C.3     
   6 C6             1.8115     2.1345    -0.5554 C.3     
   7 C7             0.4999     2.7607    -0.0741 C.3     
   8 C8            -1.8953     1.9559    -0.2544 C.2     
   9 N9            -2.5111     0.7984    -0.1982 N.2     
  10 C10           -1.5966    -0.1799    -0.0197 C.2     
  11 C11           -1.8785    -1.6215     0.0984 C.2     
  12 O12           -0.9651    -2.4087     0.2574 O.2     
  13 N13           -3.1484    -2.0676     0.0301 N.am    
  14 C14            2.6033    -0.5128     1.9604 C.3     
  15 C15           -2.5448     3.2706    -0.4487 C.ar    
  16 C16           -3.8244     3.3445    -1.0003 C.ar    
  17 C17           -4.4256     4.5727    -1.1794 C.ar    
  18 C18           -3.7611     5.7323    -0.8126 C.ar    
  19 C19           -2.4899     5.6643    -0.2648 C.ar    
  20 C20           -1.8824     4.4407    -0.0758 C.ar    
  21 F21           -4.3543     6.9330    -0.9902 F       
  22 C22           -4.7308    -3.8162    -0.5424 C.2     
  23 C23           -3.4286    -3.5008     0.1474 C.3     
  24 C24           -3.5295    -3.8813     1.6259 C.3     
  25 C25           -3.9190    -5.3559     1.7476 C.3     
  26 O26           -5.6110    -2.9830    -0.5865 O.2     
  27 C27           -2.1774    -3.6533     2.3046 C.3     
  28 C28           -4.5930    -3.0153     2.3040 C.3     
  29 N29           -4.9172    -5.0241    -1.1104 N.am    
  30 C30           -6.0291    -5.7226    -1.7726 C.3     
  31 C31           -5.3939    -7.0459    -1.3237 C.3     
  32 C32           -4.0963    -6.2213    -1.3464 C.3     
  33 F33           -5.7879    -7.4681    -0.0494 F       
  34 F34           -5.4423    -8.0608    -2.2853 F       
  35 H35            0.8038    -1.3160     0.5024 H       
  36 H36            1.4990    -0.2653    -0.7568 H       
  37 H37            2.7338     2.2622     1.3793 H       
  38 H38            3.4957     1.0955     0.2777 H       
  39 H39            2.4399     2.9063    -0.9999 H       
  40 H40            1.5957     1.3700    -1.3018 H       
  41 H41            0.2281     3.5871    -0.7307 H       
  42 H42            0.6239     3.1286     0.9445 H       
  43 H43           -3.8769    -1.4398    -0.0967 H       
  44 H44            3.2398    -1.0579     1.2634 H       
  45 H45            3.2253     0.0432     2.6619 H       
  46 H46            1.9780    -1.2174     2.5087 H       
  47 H47           -4.3430     2.4415    -1.2867 H       
  48 H48           -5.4159     4.6310    -1.6065 H       
  49 H49           -1.9759     6.5709     0.0187 H       
  50 H50           -0.8937     4.3885     0.3557 H       
  51 H51           -2.6234    -4.0679    -0.3196 H       
  52 H52           -3.1531    -5.9739     1.2789 H       
  53 H53           -4.0069    -5.6228     2.8007 H       
  54 H54           -4.8744    -5.5216     1.2498 H       
  55 H55           -1.8999    -2.6028     2.2180 H       
  56 H56           -2.2492    -3.9244     3.3579 H       
  57 H57           -1.4197    -4.2703     1.8216 H       
  58 H58           -5.5563    -3.1778     1.8205 H       
  59 H59           -4.6649    -3.2864     3.3573 H       
  60 H60           -4.3155    -1.9648     2.2174 H       
  61 H61           -6.9985    -5.5287    -1.3135 H       
  62 H62           -6.0409    -5.5919    -2.8547 H       
  63 H63           -3.5986    -6.2221    -2.3161 H       
  64 H64           -3.4190    -6.4523    -0.5242 H       
@<TRIPOS>BOND
   1    1    2 1
   2    1    7 1
   3    1    8 1
   4    2    3 1
   5    2   10 2
   6    3    4 1
   7    3   35 1
   8    3   36 1
   9    4    5 1
  10    4   14 1
  11    5    6 1
  12    5   37 1
  13    5   38 1
  14    6    7 1
  15    6   39 1
  16    6   40 1
  17    7   41 1
  18    7   42 1
  19    8    9 2
  20    8   15 1
  21    9   10 1
  22   10   11 1
  23   11   12 2
  24   11   13 am
  25   13   23 1
  26   13   43 1
  27   14   44 1
  28   14   45 1
  29   14   46 1
  30   15   16 ar
  31   15   20 ar
  32   16   17 ar
  33   16   47 1
  34   17   18 ar
  35   17   48 1
  36   18   19 ar
  37   18   21 1
  38   19   20 ar
  39   19   49 1
  40   20   50 1
  41   22   26 2
  42   22   29 am
  43   22   23 1
  44   23   24 1
  45   23   51 1
  46   24   25 1
  47   24   27 1
  48   24   28 1
  49   25   52 1
  50   25   53 1
  51   25   54 1
  52   27   55 1
  53   27   56 1
  54   27   57 1
  55   28   58 1
  56   28   59 1
  57   28   60 1
  58   29   30 1
  59   29   32 1
  60   30   31 1
  61   30   61 1
  62   30   62 1
  63   31   32 1
  64   31   33 1
  65   31   34 1
  66   32   63 1
  67   32   64 1

#	End of record

