#	Name: ASD01810904
#	Creating user name:	WinNT
#	Creation time:	15. 06. 2019 19:25

#	Modifying user name:	WinNT
#	Modification time:	15. 06. 2019 19:25

#	Program:	/corina/corina34_cracker 3.40 0067  02.08.2006

@<TRIPOS>MOLECULE
ASD01810904
  65   69    0    0    0
SMALL
NO_CHARGES


@<TRIPOS>ATOM
   1 C1            -8.9836     3.4600    -4.2436 C.1     
   2 C2            -7.8453     4.0844    -3.6394 C.ar    
   3 C3            -6.6706     3.3567    -3.4382 C.ar    
   4 C4            -5.5779     3.9644    -2.8555 C.ar    
   5 C5            -5.6441     5.2917    -2.4704 C.ar    
   6 C6            -6.8050     6.0185    -2.6663 C.ar    
   7 C7            -7.9030     5.4252    -3.2540 C.ar    
   8 N8            -9.8866     2.9647    -4.7229 N.1     
   9 N9            -3.0679     8.1234    -0.6634 N.am    
  10 C10           -2.7628     7.7802    -2.0591 C.3     
  11 C11           -4.0011     7.1362    -2.6905 C.3     
  12 C12           -4.4463     5.9486    -1.8340 C.3     
  13 C13           -4.8182     6.4389    -0.4328 C.3     
  14 C14           -3.5892     7.0750     0.2242 C.3     
  15 C15           -2.8681     9.3748    -0.2046 C.2     
  16 C16           -3.2577     9.7265     1.1777 C.ar    
  17 C17           -4.1316    10.7912     1.4093 C.ar    
  18 C18           -4.4962    11.1206     2.6994 C.ar    
  19 C19           -4.0003    10.4008     3.7688 C.ar    
  20 C20           -3.1265     9.3341     3.5512 C.ar    
  21 C21           -2.7586     8.9929     2.2519 C.ar    
  22 O22           -2.3676    10.2144    -0.9272 O.2     
  23 N23           -2.2975     7.8540     6.6796 N.2     
  24 N24           -2.9681     8.6762     5.9539 N.2     
  25 C25           -2.5960     8.5646     4.6982 C.2     
  26 N26           -1.6246     7.6016     4.6531 N.pl3   
  27 C27           -1.4654     7.1756     5.9357 C.2     
  28 C28           -0.5055     6.1154     6.4106 C.3     
  29 C29           -4.6772    11.5824     0.2485 C.3     
  30 C30           -4.4031    10.7682     5.1737 C.3     
  31 C31           -4.1478    12.2653     5.4208 C.3     
  32 C32           -5.5154    12.8964     5.7544 C.3     
  33 C33           -6.3631    11.7107     6.2786 C.3     
  34 C34           -5.9169    10.5416     5.3658 C.3     
  35 H35           -6.6179     2.3204    -3.7378 H       
  36 H36           -4.6687     3.4028    -2.6993 H       
  37 H37           -6.8500     7.0540    -2.3630 H       
  38 H38           -8.8070     5.9950    -3.4108 H       
  39 H39           -2.5006     8.6842    -2.6088 H       
  40 H40           -1.9301     7.0775    -2.0889 H       
  41 H41           -4.8061     7.8693    -2.7423 H       
  42 H42           -3.7588     6.7897    -3.6951 H       
  43 H43           -3.6322     5.2274    -1.7619 H       
  44 H44           -5.6155     7.1786    -0.5059 H       
  45 H45           -5.1574     5.5961     0.1695 H       
  46 H46           -2.8239     6.3148     0.3805 H       
  47 H47           -3.8722     7.5137     1.1810 H       
  48 H48           -5.1719    11.9449     2.8733 H       
  49 H49           -2.0858     8.1662     2.0781 H       
  50 H50           -1.1481     7.2875     3.8688 H       
  51 H51           -0.9934     5.1413     6.3750 H       
  52 H52            0.3731     6.1054     5.7655 H       
  53 H53           -0.2019     6.3325     7.4347 H       
  54 H54           -5.5541    11.0766    -0.1558 H       
  55 H55           -4.9573    12.5796     0.5881 H       
  56 H56           -3.9149    11.6633    -0.5263 H       
  57 H57           -3.8413    10.1702     5.8913 H       
  58 H58           -3.4628    12.3940     6.2589 H       
  59 H59           -3.7326    12.7262     4.5245 H       
  60 H60           -5.4060    13.6579     6.5266 H       
  61 H61           -5.9678    13.3222     4.8588 H       
  62 H62           -6.1271    11.4984     7.3214 H       
  63 H63           -7.4272    11.9125     6.1556 H       
  64 H64           -6.4341    10.5871     4.4074 H       
  65 H65           -6.1004     9.5847     5.8544 H       
@<TRIPOS>BOND
   1    1    2 1
   2    1    8 3
   3    2    3 ar
   4    2    7 ar
   5    3    4 ar
   6    3   35 1
   7    4    5 ar
   8    4   36 1
   9    5    6 ar
  10    5   12 1
  11    6    7 ar
  12    6   37 1
  13    7   38 1
  14    9   10 1
  15    9   14 1
  16    9   15 am
  17   10   11 1
  18   10   39 1
  19   10   40 1
  20   11   12 1
  21   11   41 1
  22   11   42 1
  23   12   13 1
  24   12   43 1
  25   13   14 1
  26   13   44 1
  27   13   45 1
  28   14   46 1
  29   14   47 1
  30   15   16 1
  31   15   22 2
  32   16   17 ar
  33   16   21 ar
  34   17   18 ar
  35   17   29 1
  36   18   19 ar
  37   18   48 1
  38   19   20 ar
  39   19   30 1
  40   20   21 ar
  41   20   25 1
  42   21   49 1
  43   23   24 1
  44   23   27 2
  45   24   25 2
  46   25   26 1
  47   26   27 1
  48   26   50 1
  49   27   28 1
  50   28   51 1
  51   28   52 1
  52   28   53 1
  53   29   54 1
  54   29   55 1
  55   29   56 1
  56   30   31 1
  57   30   34 1
  58   30   57 1
  59   31   32 1
  60   31   58 1
  61   31   59 1
  62   32   33 1
  63   32   60 1
  64   32   61 1
  65   33   34 1
  66   33   62 1
  67   33   63 1
  68   34   64 1
  69   34   65 1

#	End of record

