#	Name: ASD01870224
#	Creating user name:	WinNT
#	Creation time:	15. 06. 2019 19:38

#	Modifying user name:	WinNT
#	Modification time:	15. 06. 2019 19:38

#	Program:	/corina/corina34_cracker 3.40 0067  02.08.2006

@<TRIPOS>MOLECULE
ASD01870224
  58   62    0    0    0
SMALL
NO_CHARGES


@<TRIPOS>ATOM
   1 C1            -0.0094     1.3831    -0.2758 C.ar    
   2 C2             0.0077    -0.0081    -0.2132 C.ar    
   3 C3             1.1815    -0.6934    -0.1087 C.ar    
   4 C4             2.3922     0.0109    -0.0638 C.ar    
   5 C5             2.3747     1.4305    -0.1282 C.ar    
   6 C6             1.1480     2.1016    -0.2348 C.ar    
   7 C7             3.6335    -0.6433     0.0432 C.ar    
   8 N8             4.7449     0.0439     0.0826 N.ar    
   9 C9             4.7747     1.3825     0.0247 C.ar    
  10 C10            3.6000     2.1077    -0.0816 C.ar    
  11 C11            5.9037     2.3377     0.0528 C.2     
  12 N12            5.4506     3.5999    -0.0323 N.am    
  13 C13            3.9863     3.5633    -0.1227 C.3     
  14 C14            6.2785     4.8085    -0.0336 C.3     
  15 C15            7.0812     4.8783     1.2671 C.3     
  16 C16            7.9795     3.6448     1.3787 C.3     
  17 C17            8.9398     3.6039     0.1883 C.3     
  18 C18            8.1372     3.5342    -1.1123 C.3     
  19 C19            7.2388     4.7676    -1.2240 C.3     
  20 C20            3.6820    -2.1479     0.1133 C.3     
  21 C21            3.7869    -2.7126    -1.2799 C.ar    
  22 C22            5.0237    -2.9323    -1.8523 C.ar    
  23 N23            5.1266    -3.4264    -3.0717 N.ar    
  24 C24            4.0584    -3.7291    -3.7901 C.ar    
  25 C25            2.7821    -3.5340    -3.2775 C.ar    
  26 C26            2.6408    -3.0227    -1.9994 C.ar    
  27 O27            7.0751     2.0253     0.1404 O.2     
  28 O28            6.1842     4.9165     2.3789 O.3     
  29 C29            3.5243     4.1934    -1.4381 C.3     
  30 O30            4.2104    -4.2346    -5.0400 O.3     
  31 C31            5.5483    -4.4112    -5.5101 C.3     
  32 H32           -0.9536     1.9001    -0.3626 H       
  33 H33           -0.9242    -0.5529    -0.2477 H       
  34 H34            1.1785    -1.7723    -0.0604 H       
  35 H35            1.1207     3.1801    -0.2850 H       
  36 H36            3.5452     4.0922     0.7222 H       
  37 H37            5.6385     5.6873    -0.1131 H       
  38 H38            7.6972     5.7775     1.2661 H       
  39 H39            8.5514     3.6945     2.3053 H       
  40 H40            7.3635     2.7456     1.3797 H       
  41 H41            9.5558     4.5031     0.1874 H       
  42 H42            9.5799     2.7252     0.2679 H       
  43 H43            8.8213     3.5050    -1.9604 H       
  44 H44            7.5212     2.6349    -1.1114 H       
  45 H45            6.6670     4.7180    -2.1506 H       
  46 H46            7.8548     5.6669    -1.2249 H       
  47 H47            4.5494    -2.4566     0.6968 H       
  48 H48            2.7738    -2.5189     0.5883 H       
  49 H49            5.9185    -2.6966    -1.2953 H       
  50 H50            1.9118    -3.7820    -3.8670 H       
  51 H51            1.6612    -2.8608    -1.5744 H       
  52 H52            6.6250     4.9613     3.2384 H       
  53 H53            3.9482     3.6388    -2.2753 H       
  54 H54            2.4363     4.1608    -1.4943 H       
  55 H55            3.8595     5.2297    -1.4820 H       
  56 H56            5.5275    -4.8211    -6.5199 H       
  57 H57            6.0603    -3.4490    -5.5190 H       
  58 H58            6.0776    -5.0983    -4.8499 H       
@<TRIPOS>BOND
   1    1    2 ar
   2    1    6 ar
   3    1   32 1
   4    2    3 ar
   5    2   33 1
   6    3    4 ar
   7    3   34 1
   8    4    5 ar
   9    4    7 ar
  10    5    6 ar
  11    5   10 ar
  12    6   35 1
  13    7    8 ar
  14    7   20 1
  15    8    9 ar
  16    9   10 ar
  17    9   11 1
  18   10   13 1
  19   11   12 am
  20   11   27 2
  21   12   13 1
  22   12   14 1
  23   13   29 1
  24   13   36 1
  25   14   15 1
  26   14   19 1
  27   14   37 1
  28   15   16 1
  29   15   28 1
  30   15   38 1
  31   16   17 1
  32   16   39 1
  33   16   40 1
  34   17   18 1
  35   17   41 1
  36   17   42 1
  37   18   19 1
  38   18   43 1
  39   18   44 1
  40   19   45 1
  41   19   46 1
  42   20   21 1
  43   20   47 1
  44   20   48 1
  45   21   22 ar
  46   21   26 ar
  47   22   23 ar
  48   22   49 1
  49   23   24 ar
  50   24   25 ar
  51   24   30 1
  52   25   26 ar
  53   25   50 1
  54   26   51 1
  55   28   52 1
  56   29   53 1
  57   29   54 1
  58   29   55 1
  59   30   31 1
  60   31   56 1
  61   31   57 1
  62   31   58 1

#	End of record

