#	Name: ASD01811834
#	Creating user name:	WinNT
#	Creation time:	15. 06. 2019 19:27

#	Modifying user name:	WinNT
#	Modification time:	15. 06. 2019 19:27

#	Program:	/corina/corina34_cracker 3.40 0067  02.08.2006

@<TRIPOS>MOLECULE
ASD01811834
  52   56    0    0    0
SMALL
NO_CHARGES


@<TRIPOS>ATOM
   1 C1            -0.0168     1.3806     0.0039 C.ar    
   2 C2             0.0020    -0.0041    -0.0005 C.ar    
   3 C3            -1.1844    -0.7162     0.0135 C.ar    
   4 C4            -2.3941    -0.0537     0.0319 C.ar    
   5 C5            -2.4214     1.3424     0.0364 C.ar    
   6 C6            -1.2177     2.0512     0.0274 C.ar    
   7 C7             1.2776     2.1522    -0.0109 C.3     
   8 C8             1.3184    -0.7375    -0.0211 C.3     
   9 C9            -1.1547    -2.2229     0.0081 C.3     
  10 C10           -1.0015    -2.7274     1.4199 C.ar    
  11 C11           -2.1233    -2.9823     2.1871 C.ar    
  12 C12           -1.9861    -3.4442     3.4815 C.ar    
  13 C13           -0.7201    -3.6530     4.0120 C.ar    
  14 C14            0.4043    -3.3966     3.2391 C.ar    
  15 C15            0.2606    -2.9397     1.9436 C.ar    
  16 N16           -0.5776    -4.1214     5.3256 N.pl3   
  17 C17            0.5908    -4.3658     5.9610 C.2     
  18 C18            0.2979    -4.8033     7.2075 C.2     
  19 C19           -1.0949    -4.8275     7.3394 C.2     
  20 N20           -1.6202    -4.4133     6.2145 N.2     
  21 C21           -3.5306     2.3145     0.0543 C.2     
  22 N22           -3.0504     3.5700     0.0515 N.am    
  23 C23           -1.5842     3.5142     0.0352 C.3     
  24 O24           -4.7104     2.0221     0.0689 O.2     
  25 C25           -3.8190     4.7338     0.0654 C.ar    
  26 C26           -3.1928     5.9728     0.1712 C.ar    
  27 C27           -3.9688     7.1205     0.1838 C.ar    
  28 C28           -5.3483     6.9880     0.0898 C.ar    
  29 C29           -5.9012     5.7255    -0.0127 C.ar    
  30 N30           -5.1364     4.6505    -0.0275 N.ar    
  31 Cl31          -6.3672     8.3934     0.1014 Cl      
  32 F32           -1.8473     6.0547     0.2608 F       
  33 H33           -3.3178    -0.6133     0.0425 H       
  34 H34            1.5761     2.3413    -1.0421 H       
  35 H35            1.1408     3.1012     0.5076 H       
  36 H36            2.0521     1.5723     0.4910 H       
  37 H37            1.6501    -0.9174     1.0015 H       
  38 H38            1.1954    -1.6903    -0.5360 H       
  39 H39            2.0617    -0.1354    -0.5436 H       
  40 H40           -2.0846    -2.6032    -0.4146 H       
  41 H41           -0.3141    -2.5676    -0.5941 H       
  42 H42           -3.1078    -2.8197     1.7739 H       
  43 H43           -2.8626    -3.6425     4.0805 H       
  44 H44            1.3904    -3.5577     3.6492 H       
  45 H45            1.1349    -2.7401     1.3419 H       
  46 H46            1.5800    -4.2358     5.5476 H       
  47 H47            1.0129    -5.0843     7.9666 H       
  48 H48           -1.6422    -5.1312     8.2195 H       
  49 H49           -1.1811     3.9972     0.9254 H       
  50 H50           -1.2008     4.0007    -0.8617 H       
  51 H51           -3.5117     8.0956     0.2651 H       
  52 H52           -6.9733     5.6177    -0.0860 H       
@<TRIPOS>BOND
   1    1    2 ar
   2    1    7 1
   3    1    6 ar
   4    2    3 ar
   5    2    8 1
   6    3    4 ar
   7    3    9 1
   8    4    5 ar
   9    4   33 1
  10    5    6 ar
  11    5   21 1
  12    6   23 1
  13    7   34 1
  14    7   35 1
  15    7   36 1
  16    8   37 1
  17    8   38 1
  18    8   39 1
  19    9   10 1
  20    9   40 1
  21    9   41 1
  22   10   11 ar
  23   10   15 ar
  24   11   12 ar
  25   11   42 1
  26   12   13 ar
  27   12   43 1
  28   13   14 ar
  29   13   16 1
  30   14   15 ar
  31   14   44 1
  32   15   45 1
  33   16   17 1
  34   16   20 1
  35   17   18 2
  36   17   46 1
  37   18   19 1
  38   18   47 1
  39   19   20 2
  40   19   48 1
  41   21   22 am
  42   21   24 2
  43   22   23 1
  44   22   25 1
  45   23   49 1
  46   23   50 1
  47   25   26 ar
  48   25   30 ar
  49   26   27 ar
  50   26   32 1
  51   27   28 ar
  52   27   51 1
  53   28   29 ar
  54   28   31 1
  55   29   30 ar
  56   29   52 1

#	End of record

