#	Name: ASD01940004
#	Creating user name:	WinNT
#	Creation time:	15. 06. 2019 20:11

#	Modifying user name:	WinNT
#	Modification time:	15. 06. 2019 20:11

#	Program:	/corina/corina34_cracker 3.40 0067  02.08.2006

@<TRIPOS>MOLECULE
ASD01940004
  53   54    0    0    0
SMALL
NO_CHARGES


@<TRIPOS>ATOM
   1 C1            -0.0311     1.5960    -0.1013 C.3     
   2 C2            -0.0258     0.0858    -0.3467 C.3     
   3 C3            -1.4449    -0.4128    -0.4400 C.2     
   4 C4            -2.1566    -0.7428     0.7318 C.2     
   5 O5            -3.4215    -1.1894     0.6863 O.3     
   6 C6            -4.0727    -1.3436    -0.4867 C.ar    
   7 C7            -3.4220    -1.0328    -1.6954 C.ar    
   8 C8            -2.0435    -0.5402    -1.6526 C.2     
   9 C9            -5.3800    -1.8067    -0.5167 C.ar    
  10 C10           -6.0291    -1.9578    -1.7323 C.ar    
  11 C11           -5.3790    -1.6488    -2.9249 C.ar    
  12 C12           -4.0930    -1.1911    -2.9131 C.ar    
  13 O13           -1.6093    -0.6199     1.8129 O.2     
  14 C14           -1.3055    -0.1944    -2.9202 C.3     
  15 O15           -7.3086    -2.4111    -1.7607 O.3     
  16 N16            1.3522     2.0821    -0.0103 N.3     
  17 C17            1.3954     3.5505    -0.0126 C.3     
  18 C18            2.0246     1.5375     1.1767 C.3     
  19 C19            1.1515     4.0657    -1.4324 C.3     
  20 C20            3.5364     1.7291     1.0394 C.3     
  21 C21           -7.9212    -2.5448    -3.0448 C.3     
  22 C22           -9.3289    -3.0565    -2.8790 C.2     
  23 O23          -10.1005    -3.2601    -3.9583 O.3     
  24 C24          -11.4456    -3.7540    -3.7234 C.3     
  25 C25          -12.1677    -3.9231    -5.0616 C.3     
  26 O26           -9.7631    -3.2834    -1.7745 O.2     
  27 Cl27          -6.2002    -2.1962     0.9630 Cl      
  28 H28           -0.5385     2.0964    -0.9260 H       
  29 H29           -0.5537     1.8108     0.8308 H       
  30 H30            0.4968    -0.1290    -1.2788 H       
  31 H31            0.4817    -0.4145     0.4780 H       
  32 H32           -5.8962    -1.7714    -3.8650 H       
  33 H33           -3.5943    -0.9533    -3.8411 H       
  34 H34           -1.9537    -0.3726    -3.7782 H       
  35 H35           -1.0149     0.8559    -2.8964 H       
  36 H36           -0.4141    -0.8162    -3.0029 H       
  37 H37            0.6232     3.9377     0.6521 H       
  38 H38            2.3735     3.8857     0.3325 H       
  39 H39            1.6715     2.0596     2.0660 H       
  40 H40            1.7998     0.4747     1.2661 H       
  41 H41            1.0979     5.1543    -1.4197 H       
  42 H42            1.9700     3.7498    -2.0792 H       
  43 H43            0.2128     3.6601    -1.8099 H       
  44 H44            4.0415     1.2431     1.8741 H       
  45 H45            3.8751     1.2869     0.1025 H       
  46 H46            3.7695     2.7939     1.0439 H       
  47 H47           -7.9434    -1.5738    -3.5395 H       
  48 H48           -7.3480    -3.2476    -3.6494 H       
  49 H49          -11.3954    -4.7161    -3.2135 H       
  50 H50          -11.9909    -3.0423    -3.1036 H       
  51 H51          -12.2178    -2.9610    -5.5715 H       
  52 H52          -11.6224    -4.6348    -5.6814 H       
  53 H53          -13.1774    -4.2939    -4.8853 H       
@<TRIPOS>BOND
   1    1    2 1
   2    1   16 1
   3    1   28 1
   4    1   29 1
   5    2    3 1
   6    2   30 1
   7    2   31 1
   8    3    4 1
   9    3    8 2
  10    4    5 1
  11    4   13 2
  12    5    6 1
  13    6    7 ar
  14    6    9 ar
  15    7    8 1
  16    7   12 ar
  17    8   14 1
  18    9   10 ar
  19    9   27 1
  20   10   11 ar
  21   10   15 1
  22   11   12 ar
  23   11   32 1
  24   12   33 1
  25   14   34 1
  26   14   35 1
  27   14   36 1
  28   15   21 1
  29   16   17 1
  30   16   18 1
  31   17   19 1
  32   17   37 1
  33   17   38 1
  34   18   20 1
  35   18   39 1
  36   18   40 1
  37   19   41 1
  38   19   42 1
  39   19   43 1
  40   20   44 1
  41   20   45 1
  42   20   46 1
  43   21   22 1
  44   21   47 1
  45   21   48 1
  46   22   23 1
  47   22   26 2
  48   23   24 1
  49   24   25 1
  50   24   49 1
  51   24   50 1
  52   25   51 1
  53   25   52 1
  54   25   53 1

#	End of record

