#	Name: ASD04882401
#	Creating user name:	WinNT
#	Creation time:	15. 06. 2019 20:54

#	Modifying user name:	WinNT
#	Modification time:	15. 06. 2019 20:54

#	Program:	/corina/corina34_cracker 3.40 0067  02.08.2006

@<TRIPOS>MOLECULE
ASD04882401
  75   80    0    0    0
SMALL
NO_CHARGES


@<TRIPOS>ATOM
   1 C1            -0.0215     1.4012    -0.0092 C.ar    
   2 C2            -0.0115     0.0036    -0.0053 C.ar    
   3 C3            -1.2093    -0.7019    -0.0165 C.ar    
   4 C4            -2.4096    -0.0269    -0.0320 C.ar    
   5 C5            -2.4267     1.3707    -0.0364 C.ar    
   6 C6            -1.2239     2.0825    -0.0185 C.ar    
   7 N7             1.1998    -0.6830     0.0094 N.3     
   8 C8             1.3071    -1.5363     1.2011 C.3     
   9 C9             1.3723    -1.4731    -1.2176 C.3     
  10 C10            2.7461    -2.1473    -1.1982 C.3     
  11 N11            2.8534    -3.0005    -0.0065 N.3     
  12 C12            2.6809    -2.2105     1.2206 C.3     
  13 C13           -3.7126     2.0937    -0.0540 C.2     
  14 O14           -3.7265     3.3095    -0.0578 O.2     
  15 C15            4.0684    -3.6893     0.0082 C.ar    
  16 C16            5.2666    -2.9869     0.0190 C.ar    
  17 C17            4.0811    -5.0785     0.0179 C.ar    
  18 C18            5.2841    -5.7563     0.0325 C.ar    
  19 C19            6.4754    -5.0538     0.0379 C.ar    
  20 C20            6.4663    -3.6712     0.0336 C.ar    
  21 N21           -4.8719     1.4064    -0.0657 N.am    
  22 C22            2.7835    -5.8448     0.0131 C.3     
  23 C23           -6.1489     2.1243    -0.0830 C.3     
  24 C24           -7.3003     1.1168    -0.0937 C.3     
  25 C25           -8.6338     1.8666    -0.1118 C.3     
  26 N26           -9.7363     0.9019    -0.1220 N.pl3   
  27 N27          -10.2699     0.4134    -1.1852 N.2     
  28 N28          -10.2987     0.4240     0.9312 N.2     
  29 C29          -11.2453    -0.4091     0.5625 C.2     
  30 C30          -11.2263    -0.4162    -0.8341 C.2     
  31 N31            1.1866     2.1110     0.0021 N.am    
  32 C32            1.2296     3.3600     0.5068 C.2     
  33 O33            0.2069     3.8985     0.8853 O.2     
  34 C34            2.5162     4.0733     0.5999 C.2     
  35 N35            3.7329     3.5991     0.2178 N.2     
  36 C36            4.6245     4.5142     0.4546 C.2     
  37 O37            4.0246     5.5882     0.9871 O.3     
  38 C38            2.7098     5.3324     1.0790 C.2     
  39 C39            6.1000     4.3876     0.1756 C.3     
  40 C40            6.7251     5.3953    -0.7913 C.3     
  41 C41            7.0167     5.4910     0.7076 C.3     
  42 H42           -1.1986    -1.7819    -0.0134 H       
  43 H43           -3.3385    -0.5778    -0.0410 H       
  44 H44           -1.2340     3.1624    -0.0215 H       
  45 H45            1.1885    -0.9265     2.0968 H       
  46 H46            0.5283    -2.2984     1.1740 H       
  47 H47            0.5942    -2.2345    -1.2722 H       
  48 H48            1.3013    -0.8173    -2.0854 H       
  49 H49            2.8647    -2.7571    -2.0939 H       
  50 H50            3.5249    -1.3851    -1.1711 H       
  51 H51            3.4590    -1.4490     1.2752 H       
  52 H52            2.7519    -2.8663     2.0883 H       
  53 H53            5.2602    -1.9069     0.0157 H       
  54 H54            5.2947    -6.8362     0.0400 H       
  55 H55            7.4149    -5.5863     0.0499 H       
  56 H56            7.3984    -3.1256     0.0377 H       
  57 H57           -4.8608     0.4365    -0.0626 H       
  58 H58            2.4787    -6.0367    -1.0157 H       
  59 H59            2.9192    -6.7923     0.5345 H       
  60 H60            2.0142    -5.2597     0.5169 H       
  61 H61           -6.2244     2.7530     0.8042 H       
  62 H62           -6.2032     2.7476    -0.9756 H       
  63 H63           -7.2248     0.4881    -0.9809 H       
  64 H64           -7.2460     0.4936     0.7989 H       
  65 H65           -8.7093     2.4952     0.7754 H       
  66 H66           -8.6882     2.4898    -1.0044 H       
  67 H67          -11.9014    -0.9751     1.2072 H       
  68 H68          -11.8669    -0.9860    -1.4908 H       
  69 H69            1.9919     1.7035    -0.3534 H       
  70 H70            1.9512     5.9967     1.4659 H       
  71 H71            6.4908     3.3702     0.1643 H       
  72 H72            7.5274     5.0408    -1.4384 H       
  73 H73            6.0691     6.1497    -1.2255 H       
  74 H74            6.5526     6.3085     1.2595 H       
  75 H75            8.0109     5.1996     1.0466 H       
@<TRIPOS>BOND
   1    1    2 ar
   2    1   31 1
   3    1    6 ar
   4    2    3 ar
   5    2    7 1
   6    3    4 ar
   7    3   42 1
   8    4    5 ar
   9    4   43 1
  10    5    6 ar
  11    5   13 1
  12    6   44 1
  13    7    8 1
  14    7    9 1
  15    8   12 1
  16    8   45 1
  17    8   46 1
  18    9   10 1
  19    9   47 1
  20    9   48 1
  21   10   11 1
  22   10   49 1
  23   10   50 1
  24   11   12 1
  25   11   15 1
  26   12   51 1
  27   12   52 1
  28   13   14 2
  29   13   21 am
  30   15   16 ar
  31   15   17 ar
  32   16   20 ar
  33   16   53 1
  34   17   18 ar
  35   17   22 1
  36   18   19 ar
  37   18   54 1
  38   19   20 ar
  39   19   55 1
  40   20   56 1
  41   21   23 1
  42   21   57 1
  43   22   58 1
  44   22   59 1
  45   22   60 1
  46   23   24 1
  47   23   61 1
  48   23   62 1
  49   24   25 1
  50   24   63 1
  51   24   64 1
  52   25   26 1
  53   25   65 1
  54   25   66 1
  55   26   28 1
  56   26   27 1
  57   27   30 2
  58   28   29 2
  59   29   30 1
  60   29   67 1
  61   30   68 1
  62   31   32 am
  63   31   69 1
  64   32   33 2
  65   32   34 1
  66   34   35 1
  67   34   38 2
  68   35   36 2
  69   36   37 1
  70   36   39 1
  71   37   38 1
  72   38   70 1
  73   39   40 1
  74   39   41 1
  75   39   71 1
  76   40   41 1
  77   40   72 1
  78   40   73 1
  79   41   74 1
  80   41   75 1

#	End of record

