#	Name: ASD03092092
#	Creating user name:	WinNT
#	Creation time:	15. 06. 2019 20:31

#	Modifying user name:	WinNT
#	Modification time:	15. 06. 2019 20:31

#	Program:	/corina/corina34_cracker 3.40 0067  02.08.2006

@<TRIPOS>MOLECULE
ASD03092092
  50   52    0    0    0
SMALL
NO_CHARGES


@<TRIPOS>ATOM
   1 N1             0.4018     0.2414    -0.3404 N.pl3   
   2 C2             0.2343    -1.1115    -0.3218 C.2     
   3 C3            -1.1090    -1.3571    -0.2886 C.2     
   4 C4            -1.7699    -0.1223    -0.2871 C.2     
   5 N5            -0.8680     0.8317    -0.3119 N.2     
   6 N6            -3.1575     0.0634    -0.2576 N.pl3   
   7 C7            -3.6875     1.3497    -0.1304 C.ar    
   8 C8            -5.0587     1.5266     0.0083 C.ar    
   9 C9            -5.5824     2.7987     0.1342 C.ar    
  10 C10           -4.7451     3.8979     0.1225 C.ar    
  11 C11           -2.8442     2.4528    -0.1365 C.ar    
  12 C12            1.3097    -2.1270    -0.3358 C.ar    
  13 C13            1.6826     0.9517    -0.3772 C.3     
  14 C14            2.3466    -2.0634    -1.2731 C.ar    
  15 C15            3.3295    -3.0310    -1.2501 C.ar    
  16 N16            3.3006    -4.0060    -0.3617 N.ar    
  17 C17            2.3419    -4.1040     0.5397 C.ar    
  18 C18            1.3217    -3.1757     0.5926 C.ar    
  19 C19            2.3643    -5.2412     1.5282 C.3     
  20 C20           -3.3744     3.7274    -0.0158 C.ar    
  21 Cl21           0.0651    -3.3139     1.7825 Cl      
  22 C22            1.9522     1.4435    -1.8007 C.3     
  23 O23            1.6332     2.0695     0.5116 O.3     
  24 C24            3.3442     2.0752    -1.8670 C.3     
  25 C25           -7.0700     2.9881     0.2840 C.3     
  26 F26           -7.4084     2.9672     1.6413 F       
  27 F27           -7.4417     4.2176    -0.2704 F       
  28 F28           -7.7407     1.9553    -0.3798 F       
  29 O29           -2.5524     4.8095    -0.0274 O.3     
  30 C30           -1.1601     4.5644    -0.2356 C.3     
  31 F31           -0.9875     3.8237    -1.4098 F       
  32 F32           -0.4839     5.7838    -0.3498 F       
  33 F33           -0.6458     3.8458     0.8489 F       
  34 H34           -1.5777    -2.3298    -0.2676 H       
  35 H35           -3.7507    -0.7010    -0.3256 H       
  36 H36           -5.7153     0.6692     0.0174 H       
  37 H37           -5.1577     4.8911     0.2208 H       
  38 H38           -1.7777     2.3181    -0.2401 H       
  39 H39            2.4812     0.2770    -0.0686 H       
  40 H40            2.3767    -1.2688    -2.0039 H       
  41 H41            4.1338    -2.9901    -1.9697 H       
  42 H42            2.9212    -4.9403     2.4156 H       
  43 H43            1.3431    -5.4981     1.8098 H       
  44 H44            2.8449    -6.1079     1.0742 H       
  45 H45            1.9019     0.6019    -2.4916 H       
  46 H46            1.2030     2.1855    -2.0768 H       
  47 H47            0.9439     2.7127     0.2966 H       
  48 H48            3.5363     2.4256    -2.8811 H       
  49 H49            3.3945     2.9168    -1.1761 H       
  50 H50            4.0934     1.3332    -1.5909 H       
@<TRIPOS>BOND
   1    1    2 1
   2    1   13 1
   3    1    5 1
   4    2    3 2
   5    2   12 1
   6    3    4 1
   7    3   34 1
   8    4    5 2
   9    4    6 1
  10    6    7 1
  11    6   35 1
  12    7    8 ar
  13    7   11 ar
  14    8    9 ar
  15    8   36 1
  16    9   10 ar
  17    9   25 1
  18   10   20 ar
  19   10   37 1
  20   11   20 ar
  21   11   38 1
  22   12   14 ar
  23   12   18 ar
  24   13   22 1
  25   13   23 1
  26   13   39 1
  27   14   15 ar
  28   14   40 1
  29   15   16 ar
  30   15   41 1
  31   16   17 ar
  32   17   18 ar
  33   17   19 1
  34   18   21 1
  35   19   42 1
  36   19   43 1
  37   19   44 1
  38   20   29 1
  39   22   24 1
  40   22   45 1
  41   22   46 1
  42   23   47 1
  43   24   48 1
  44   24   49 1
  45   24   50 1
  46   25   26 1
  47   25   27 1
  48   25   28 1
  49   29   30 1
  50   30   31 1
  51   30   32 1
  52   30   33 1

#	End of record

