#	Name: ASD01911457
#	Creating user name:	WinNT
#	Creation time:	15. 06. 2019 19:57

#	Modifying user name:	WinNT
#	Modification time:	15. 06. 2019 19:57

#	Program:	/corina/corina34_cracker 3.40 0067  02.08.2006

@<TRIPOS>MOLECULE
ASD01911457
  76   80    0    0    0
SMALL
NO_CHARGES


@<TRIPOS>ATOM
   1 C1             1.7206     0.9179     1.5198 C.3     
   2 C2             2.1920    -0.5527     1.4835 C.3     
   3 N3             3.6140    -0.4993     1.1240 N.am    
   4 C4             2.7256     1.5950     0.5594 C.3     
   5 C5             4.5103    -1.5500     1.3048 C.ar    
   6 C6             4.0433    -2.7789     1.7624 C.ar    
   7 C7             4.9358    -3.8165     1.9392 C.ar    
   8 C8             6.2894    -3.5882     1.6480 C.ar    
   9 C9             6.6804    -2.3274     1.1929 C.ar    
  10 N10            5.7935    -1.3669     1.0337 N.ar    
  11 C11            7.2551    -4.6323     1.8154 C.1     
  12 C12            0.2893     1.0472     0.9948 C.3     
  13 C13            3.9400     0.6937     0.5975 C.2     
  14 O14            5.0469     1.0028     0.2100 O.2     
  15 C15            1.8380     1.4958     2.9316 C.3     
  16 O16            2.1895     1.6561    -0.7638 O.3     
  17 Si17           2.7124     2.9332    -1.6331 Si      
  18 C18            4.5345     3.1973    -1.3175 C.ar    
  19 C19            2.4366     2.6039    -3.4511 C.ar    
  20 C20            1.7674     4.4572    -1.1278 C.3     
  21 C21            2.1436     4.8388     0.3053 C.3     
  22 C22            2.1168     5.6101    -2.0710 C.3     
  23 C23            0.2656     4.1743    -1.2027 C.3     
  24 C24            5.4592     2.8699    -2.2915 C.ar    
  25 C25            4.9577     3.7253    -0.1121 C.ar    
  26 C26            6.3061     3.9206     0.1214 C.ar    
  27 C27            7.2313     3.5876    -0.8502 C.ar    
  28 C28            6.8076     3.0652    -2.0579 C.ar    
  29 C29            3.2292     1.6865    -4.1153 C.ar    
  30 C30            3.0252     1.4428    -5.4606 C.ar    
  31 C31            2.0283     2.1161    -6.1416 C.ar    
  32 C32            1.2352     3.0328    -5.4772 C.ar    
  33 C33            1.4363     3.2733    -4.1309 C.ar    
  34 C34            8.0468    -5.4882     1.9527 C.1     
  35 C35            9.0124    -6.5323     2.1201 C.ar    
  36 C36           10.3586    -6.2970     1.8279 C.ar    
  37 C37            8.6141    -7.7896     2.5820 C.ar    
  38 C38            9.5499    -8.7901     2.7413 C.ar    
  39 C39           10.8805    -8.5513     2.4453 C.ar    
  40 C40           11.2830    -7.3073     1.9921 C.ar    
  41 H41            2.0678    -1.0130     2.4637 H       
  42 H42            1.6334    -1.1094     0.7310 H       
  43 H43            2.9802     2.5933     0.9154 H       
  44 H44            2.9941    -2.9187     1.9770 H       
  45 H45            4.6009    -4.7803     2.2934 H       
  46 H46            7.7194    -2.1392     0.9657 H       
  47 H47           -0.3839     0.4707     1.6292 H       
  48 H48           -0.0088     2.0956     1.0070 H       
  49 H49            0.2410     0.6676    -0.0258 H       
  50 H50            2.8733     1.4300     3.2662 H       
  51 H51            1.5242     2.5396     2.9242 H       
  52 H52            1.2001     0.9295     3.6102 H       
  53 H53            3.1945     5.1262     0.3408 H       
  54 H54            1.5268     5.6759     0.6322 H       
  55 H55            1.9777     3.9862     0.9638 H       
  56 H56            1.8400     5.3420    -3.0906 H       
  57 H57            1.5712     6.5043    -1.7696 H       
  58 H58            3.1882     5.8054    -2.0248 H       
  59 H59            0.0026     3.4114    -0.4700 H       
  60 H60           -0.2875     5.0890    -0.9894 H       
  61 H61            0.0119     3.8210    -2.2021 H       
  62 H62            5.1282     2.4612    -3.2348 H       
  63 H63            4.2350     3.9855     0.6470 H       
  64 H64            6.6368     4.3338     1.0629 H       
  65 H65            8.2847     3.7405    -0.6678 H       
  66 H66            7.5304     2.8050    -2.8170 H       
  67 H67            4.0080     1.1605    -3.5832 H       
  68 H68            3.6449     0.7266    -5.9797 H       
  69 H69            1.8694     1.9262    -7.1928 H       
  70 H70            0.4565     3.5591    -6.0093 H       
  71 H71            0.8167     3.9895    -3.6118 H       
  72 H72           10.6742    -5.3267     1.4741 H       
  73 H73            7.5762    -7.9772     2.8141 H       
  74 H74            9.2436    -9.7623     3.0982 H       
  75 H75           11.6089    -9.3384     2.5727 H       
  76 H76           12.3232    -7.1281     1.7631 H       
@<TRIPOS>BOND
   1    1    2 1
   2    1    4 1
   3    1   12 1
   4    1   15 1
   5    2    3 1
   6    2   41 1
   7    2   42 1
   8    3    5 1
   9    3   13 am
  10    4   13 1
  11    4   16 1
  12    4   43 1
  13    5    6 ar
  14    5   10 ar
  15    6    7 ar
  16    6   44 1
  17    7    8 ar
  18    7   45 1
  19    8    9 ar
  20    8   11 1
  21    9   10 ar
  22    9   46 1
  23   11   34 3
  24   12   47 1
  25   12   48 1
  26   12   49 1
  27   13   14 2
  28   15   50 1
  29   15   51 1
  30   15   52 1
  31   16   17 1
  32   17   18 1
  33   17   19 1
  34   17   20 1
  35   18   24 ar
  36   18   25 ar
  37   19   29 ar
  38   19   33 ar
  39   20   21 1
  40   20   22 1
  41   20   23 1
  42   21   53 1
  43   21   54 1
  44   21   55 1
  45   22   56 1
  46   22   57 1
  47   22   58 1
  48   23   59 1
  49   23   60 1
  50   23   61 1
  51   24   28 ar
  52   24   62 1
  53   25   26 ar
  54   25   63 1
  55   26   27 ar
  56   26   64 1
  57   27   28 ar
  58   27   65 1
  59   28   66 1
  60   29   30 ar
  61   29   67 1
  62   30   31 ar
  63   30   68 1
  64   31   32 ar
  65   31   69 1
  66   32   33 ar
  67   32   70 1
  68   33   71 1
  69   34   35 1
  70   35   36 ar
  71   35   37 ar
  72   36   40 ar
  73   36   72 1
  74   37   38 ar
  75   37   73 1
  76   38   39 ar
  77   38   74 1
  78   39   40 ar
  79   39   75 1
  80   40   76 1

#	End of record

