#	Name: ASD01200006
#	Creating user name:	WinNT
#	Creation time:	15. 06. 2019 19:08

#	Modifying user name:	WinNT
#	Modification time:	15. 06. 2019 19:08

#	Program:	/corina/corina34_cracker 3.40 0067  02.08.2006

@<TRIPOS>MOLECULE
ASD01200006
  45   47    0    0    0
SMALL
NO_CHARGES


@<TRIPOS>ATOM
   1 C1            -0.0184     1.5028     0.0103 C.ar    
   2 C2             0.0021    -0.0041     0.0020 C.3     
   3 C3            -0.6897    -0.5226     1.2364 C.2     
   4 N4            -0.2472    -1.6461     1.8351 N.am    
   5 C5            -0.8852    -2.1244     2.9736 C.2     
   6 O6            -1.6446     0.0710     1.6910 O.2     
   7 S7            -0.8589    -0.6124    -1.4742 S.3     
   8 C8             0.1908    -0.0224    -2.8309 C.3     
   9 S9            -0.4320    -3.5319     3.8319 S.3     
  10 C10           -1.7421    -3.2666     4.9795 C.2     
  11 C11           -2.3917    -2.1588     4.6171 C.2     
  12 N12           -1.9070    -1.5652     3.5424 N.2     
  13 C13           -0.3314    -0.5615    -4.1742 C.3     
  14 C14           -0.6954     0.6685    -5.0312 C.3     
  15 C15            0.1644     1.8124    -4.4384 C.3     
  16 C16            0.1259     1.5164    -2.9185 C.3     
  17 C17            1.1693     2.2102     0.0028 C.ar    
  18 C18            1.1505     3.5924     0.0104 C.ar    
  19 C19           -0.0559     4.2672     0.0251 C.ar    
  20 C20           -1.2435     3.5598     0.0318 C.ar    
  21 C21           -1.2248     2.1776     0.0197 C.ar    
  22 S22           -0.0797     6.0290     0.0361 S.o2    
  23 O23           -1.3160     6.3589     0.6542 O.2     
  24 O24            1.1577     6.3925     0.6326 O.2     
  25 C25           -0.1013     6.4922    -1.7177 C.3     
  26 H26            1.0345    -0.3534    -0.0097 H       
  27 H27            0.5165    -2.1209     1.4715 H       
  28 H28            1.2200    -0.3451    -2.6738 H       
  29 H29           -1.9782    -3.8915     5.8282 H       
  30 H30           -3.2425    -1.7765     5.1614 H       
  31 H31            0.4447    -1.1451    -4.6694 H       
  32 H32           -1.2156    -1.1776    -4.0109 H       
  33 H33           -0.4342     0.4968    -6.0754 H       
  34 H34           -1.7563     0.8997    -4.9354 H       
  35 H35            1.1858     1.7633    -4.8158 H       
  36 H36           -0.2821     2.7830    -4.6544 H       
  37 H37           -0.8023     1.8846    -2.4815 H       
  38 H38            0.9865     1.9635    -2.4209 H       
  39 H39            2.1118     1.6830    -0.0087 H       
  40 H40            2.0784     4.1450     0.0052 H       
  41 H41           -2.1860     4.0870     0.0436 H       
  42 H42           -2.1526     1.6249     0.0249 H       
  43 H43           -0.9899     6.0762    -2.1924 H       
  44 H44           -0.1169     7.5785    -1.8063 H       
  45 H45            0.7898     6.1004    -2.2080 H       
@<TRIPOS>BOND
   1    1    2 1
   2    1   17 ar
   3    1   21 ar
   4    2    3 1
   5    2    7 1
   6    2   26 1
   7    3    4 am
   8    3    6 2
   9    4    5 1
  10    4   27 1
  11    5    9 1
  12    5   12 2
  13    7    8 1
  14    8   13 1
  15    8   16 1
  16    8   28 1
  17    9   10 1
  18   10   11 2
  19   10   29 1
  20   11   12 1
  21   11   30 1
  22   13   14 1
  23   13   31 1
  24   13   32 1
  25   14   15 1
  26   14   33 1
  27   14   34 1
  28   15   16 1
  29   15   35 1
  30   15   36 1
  31   16   37 1
  32   16   38 1
  33   17   18 ar
  34   17   39 1
  35   18   19 ar
  36   18   40 1
  37   19   20 ar
  38   19   22 1
  39   20   21 ar
  40   20   41 1
  41   21   42 1
  42   22   23 2
  43   22   24 2
  44   22   25 1
  45   25   43 1
  46   25   44 1
  47   25   45 1

#	End of record

