#	Name: ASD01903037
#	Creating user name:	WinNT
#	Creation time:	15. 06. 2019 19:54

#	Modifying user name:	WinNT
#	Modification time:	15. 06. 2019 19:54

#	Program:	/corina/corina34_cracker 3.40 0067  02.08.2006

@<TRIPOS>MOLECULE
ASD01903037
  36   38    0    0    0
SMALL
NO_CHARGES


@<TRIPOS>ATOM
   1 C1             0.1108     1.3524    -0.5663 C.ar    
   2 C2             0.0911     0.0001    -0.2851 C.ar    
   3 C3             1.2787    -0.7191    -0.2500 C.ar    
   4 C4             2.4845    -0.0800    -0.4971 C.ar    
   5 C5             2.5052     1.2722    -0.7779 C.ar    
   6 C6             1.3185     1.9922    -0.8138 C.ar    
   7 N7             1.3393     3.3626    -1.0989 N.am    
   8 C8             2.2429     3.8564    -1.9685 C.2     
   9 O9             3.0904     3.1266    -2.4441 O.2     
  10 C10            2.2031     5.2886    -2.3446 C.ar    
  11 O11            1.2593    -2.0501     0.0273 O.3     
  12 N12            1.2751     6.0807    -1.8220 N.ar    
  13 C13            1.2053     7.3577    -2.1291 C.ar    
  14 C14            2.1046     7.9264    -3.0166 C.ar    
  15 C15            3.0902     7.1350    -3.5860 C.ar    
  16 C16            3.1435     5.7942    -3.2397 C.ar    
  17 Cl17          -1.4179    -0.8003     0.0249 Cl      
  18 C18            2.4492    -2.7002     0.1183 C.ar    
  19 C19            3.1135    -2.7663     1.3347 C.ar    
  20 C20            4.3228    -3.4276     1.4251 C.ar    
  21 C21            4.8722    -4.0235     0.3036 C.ar    
  22 C22            4.2116    -3.9584    -0.9105 C.ar    
  23 C23            2.9988    -3.3037    -1.0037 C.ar    
  24 Cl24           6.3925    -4.8535     0.4198 Cl      
  25 H25           -0.8130     1.9110    -0.5981 H       
  26 H26            3.4077    -0.6398    -0.4696 H       
  27 H27            3.4446     1.7695    -0.9696 H       
  28 H28            0.7035     3.9568    -0.6706 H       
  29 H29            0.4362     7.9713    -1.6837 H       
  30 H30            2.0381     8.9758    -3.2626 H       
  31 H31            3.8029     7.5548    -4.2805 H       
  32 H32            3.8981     5.1485    -3.6641 H       
  33 H33            2.6854    -2.3008     2.2102 H       
  34 H34            4.8402    -3.4793     2.3718 H       
  35 H35            4.6422    -4.4238    -1.7848 H       
  36 H36            2.4835    -3.2531    -1.9515 H       
@<TRIPOS>BOND
   1    1    2 ar
   2    1    6 ar
   3    1   25 1
   4    2    3 ar
   5    2   17 1
   6    3    4 ar
   7    3   11 1
   8    4    5 ar
   9    4   26 1
  10    5    6 ar
  11    5   27 1
  12    6    7 1
  13    7    8 am
  14    7   28 1
  15    8    9 2
  16    8   10 1
  17   10   12 ar
  18   10   16 ar
  19   11   18 1
  20   12   13 ar
  21   13   14 ar
  22   13   29 1
  23   14   15 ar
  24   14   30 1
  25   15   16 ar
  26   15   31 1
  27   16   32 1
  28   18   19 ar
  29   18   23 ar
  30   19   20 ar
  31   19   33 1
  32   20   21 ar
  33   20   34 1
  34   21   22 ar
  35   21   24 1
  36   22   23 ar
  37   22   35 1
  38   23   36 1

#	End of record

