#	Name: ASD01884635
#	Creating user name:	WinNT
#	Creation time:	15. 06. 2019 19:48

#	Modifying user name:	WinNT
#	Modification time:	15. 06. 2019 19:48

#	Program:	/corina/corina34_cracker 3.40 0067  02.08.2006

@<TRIPOS>MOLECULE
ASD01884635
  46   48    0    0    0
SMALL
NO_CHARGES


@<TRIPOS>ATOM
   1 C1            -0.0164     1.3576     0.0095 C.2     
   2 C2             0.0021    -0.0041     0.0020 C.2     
   3 C3             1.2440    -0.6751    -0.0134 C.2     
   4 C4             2.4024     0.0465    -0.0206 C.2     
   5 N5             2.3700     1.4024    -0.0130 N.am    
   6 C6             1.1986     2.0652     0.0017 C.2     
   7 O7             1.1911     3.2857     0.0083 O.2     
   8 C8             3.6266     2.1554    -0.0210 C.3     
   9 C9             1.2897    -2.1584    -0.0214 C.ar    
  10 C10            4.0439     2.4213    -1.4444 C.ar    
  11 C11            3.4596     3.4557    -2.1554 C.ar    
  12 C12            3.8436     3.6993    -3.4632 C.ar    
  13 C13            4.8103     2.9090    -4.0577 C.ar    
  14 C14            5.3933     1.8755    -3.3456 C.ar    
  15 C15            5.0140     1.6360    -2.0384 C.ar    
  16 Cl16           5.2921     3.2132    -5.6976 Cl      
  17 F17            2.5150     4.2267    -1.5736 F       
  18 C18            0.8124    -2.8774     1.0728 C.ar    
  19 C19            0.8563    -4.2560     1.0626 C.ar    
  20 C20            1.3756    -4.9271    -0.0359 C.ar    
  21 C21            1.8517    -4.2136    -1.1272 C.ar    
  22 C22            1.8048    -2.8351    -1.1254 C.ar    
  23 O23            1.4183    -6.2855    -0.0427 O.3     
  24 C24            1.9653    -6.9115    -1.2050 C.3     
  25 C25            1.9301    -8.4311    -1.0302 C.3     
  26 C26            2.5158    -9.1013    -2.2746 C.3     
  27 O27            2.4829   -10.5206    -2.1114 O.3     
  28 H28           -0.9563     1.8895     0.0169 H       
  29 H29           -0.9217    -0.5635     0.0082 H       
  30 H30            3.3528    -0.4664    -0.0321 H       
  31 H31            3.4857     3.1028     0.4993 H       
  32 H32            4.4006     1.5761     0.4824 H       
  33 H33            3.3882     4.5057    -4.0187 H       
  34 H34            6.1482     1.2586    -3.8102 H       
  35 H35            5.4696     0.8292    -1.4835 H       
  36 H36            0.4089    -2.3558     1.9281 H       
  37 H37            0.4865    -4.8138     1.9103 H       
  38 H38            2.2555    -4.7385    -1.9804 H       
  39 H39            2.1754    -2.2805    -1.9747 H       
  40 H40            1.3767    -6.6326    -2.0790 H       
  41 H41            2.9963    -6.5853    -1.3422 H       
  42 H42            2.5187    -8.7100    -0.1562 H       
  43 H43            0.8991    -8.7572    -0.8930 H       
  44 H44            1.9271    -8.8224    -3.1486 H       
  45 H45            3.5467    -8.7752    -2.4118 H       
  46 H46            2.8397   -11.0115    -2.8642 H       
@<TRIPOS>BOND
   1    1    2 2
   2    1    6 1
   3    1   28 1
   4    2    3 1
   5    2   29 1
   6    3    4 2
   7    3    9 1
   8    4    5 1
   9    4   30 1
  10    5    6 am
  11    5    8 1
  12    6    7 2
  13    8   10 1
  14    8   31 1
  15    8   32 1
  16    9   18 ar
  17    9   22 ar
  18   10   11 ar
  19   10   15 ar
  20   11   12 ar
  21   11   17 1
  22   12   13 ar
  23   12   33 1
  24   13   14 ar
  25   13   16 1
  26   14   15 ar
  27   14   34 1
  28   15   35 1
  29   18   19 ar
  30   18   36 1
  31   19   20 ar
  32   19   37 1
  33   20   21 ar
  34   20   23 1
  35   21   22 ar
  36   21   38 1
  37   22   39 1
  38   23   24 1
  39   24   25 1
  40   24   40 1
  41   24   41 1
  42   25   26 1
  43   25   42 1
  44   25   43 1
  45   26   27 1
  46   26   44 1
  47   26   45 1
  48   27   46 1

#	End of record

