#	Name: ASD00069071
#	Creating user name:	WinNT
#	Creation time:	15. 06. 2019 18:29

#	Modifying user name:	WinNT
#	Modification time:	15. 06. 2019 18:29

#	Program:	/corina/corina34_cracker 3.40 0067  02.08.2006

@<TRIPOS>MOLECULE
ASD00069071
  19   19    0    0    0
SMALL
NO_CHARGES


@<TRIPOS>ATOM
   1 N1            -0.0169     1.3968     0.0097 N.pl3   
   2 N2             0.0021    -0.0041     0.0020 N.2     
   3 C3             1.2417     2.1465     0.0017 C.3     
   4 C4             1.0470     3.4957    -0.7120 C.3     
   5 C5             1.3667     4.5927     0.3244 C.3     
   6 C6             2.2887     3.8886     1.3507 C.3     
   7 C7             1.6729     2.4707     1.4470 C.3     
   8 C8            -1.0718    -0.6437     0.0088 C.1     
   9 O9            -2.1097    -1.2619     0.0154 O.2     
  10 H10           -0.8635     1.8703     0.0163 H       
  11 H11            2.0176     1.5676    -0.4992 H       
  12 H12            1.7291     3.5719    -1.5589 H       
  13 H13            0.0161     3.5927    -1.0525 H       
  14 H14            1.8881     5.4246    -0.1491 H       
  15 H15            0.4530     4.9392     0.8073 H       
  16 H16            3.3129     3.8406     0.9806 H       
  17 H17            2.2489     4.3935     2.3159 H       
  18 H18            0.8086     2.4745     2.1112 H       
  19 H19            2.4177     1.7539     1.7928 H       
@<TRIPOS>BOND
   1    1    2 1
   2    1    3 1
   3    1   10 1
   4    2    8 2
   5    3    4 1
   6    3    7 1
   7    3   11 1
   8    4    5 1
   9    4   12 1
  10    4   13 1
  11    5    6 1
  12    5   14 1
  13    5   15 1
  14    6    7 1
  15    6   16 1
  16    6   17 1
  17    7   18 1
  18    7   19 1
  19    8    9 2

#	End of record

