#	Name: ASD01028602
#	Creating user name:	WinNT
#	Creation time:	15. 06. 2019 18:57

#	Modifying user name:	WinNT
#	Modification time:	15. 06. 2019 18:57

#	Program:	/corina/corina34_cracker 3.40 0067  02.08.2006

@<TRIPOS>MOLECULE
ASD01028602
  64   67    0    0    0
SMALL
NO_CHARGES


@<TRIPOS>ATOM
   1 C1             1.0973     1.1513     0.9789 C.2     
   2 N2             0.6994    -0.0571     0.5339 N.am    
   3 O3             2.1721     1.6017     0.6347 O.2     
   4 O4             0.3014     1.8617     1.8002 O.3     
   5 C5            -0.5577    -0.6368     1.0135 C.3     
   6 C6            -1.7071     0.3324     0.7301 C.3     
   7 C7            -0.8170    -1.9606     0.2915 C.3     
   8 C8            -0.4617    -0.8877     2.5197 C.3     
   9 C9             1.5239    -0.7909    -0.4294 C.3     
  10 C10            2.9255    -0.1787    -0.4717 C.3     
  11 C11            1.6207    -2.2576    -0.0049 C.3     
  12 C12            0.8868    -0.7027    -1.8176 C.3     
  13 C13            0.7943     3.1548     2.2399 C.3     
  14 C14           -1.3668     4.4241     4.8889 C.2     
  15 C15           -1.6972     4.4864     6.2564 C.2     
  16 C16           -0.9449     3.7951     7.1518 C.2     
  17 C17            0.1535     3.0262     6.7093 C.2     
  18 N18            0.4623     2.9673     5.4316 N.2     
  19 N19           -0.2925     3.6670     4.4880 N.pl3   
  20 N20           -1.2017     4.5864     2.7726 N.2     
  21 N21           -1.8867     4.9601     3.7965 N.2     
  22 C22           -0.2235     3.7989     3.1456 C.2     
  23 S23            2.7139     0.8083     8.7878 S.3     
  24 C24            1.4854     1.6027     9.7677 C.2     
  25 N25            0.7040     2.2978     9.0013 N.2     
  26 C26            0.9676     2.2770     7.6948 C.2     
  27 C27            2.0246     1.5276     7.3345 C.2     
  28 O28            0.9827     0.1513    13.5766 O.3     
  29 C29            2.2950     0.5961    13.2226 C.3     
  30 C30            2.4214     0.6328    11.6973 C.3     
  31 N31            1.3715     1.5009    11.1445 N.3     
  32 C32            0.0381     1.0148    11.5283 C.3     
  33 C33           -0.0643     0.9742    13.0553 C.3     
  34 H34           -1.7755     0.5112    -0.3429 H       
  35 H35           -2.6424    -0.0989     1.0870 H       
  36 H36           -1.5223     1.2755     1.2445 H       
  37 H37           -0.0717    -2.6941     0.5988 H       
  38 H38           -1.8122    -2.3248     0.5468 H       
  39 H39           -0.7520    -1.8058    -0.7855 H       
  40 H40           -0.2769     0.0554     3.0341 H       
  41 H41           -1.3969    -1.3190     2.8766 H       
  42 H42            0.3572    -1.5782     2.7216 H       
  43 H43            3.3113    -0.0837     0.5433 H       
  44 H44            3.5858    -0.8225    -1.0527 H       
  45 H45            2.8778     0.8064    -0.9359 H       
  46 H46            0.7713    -2.8093    -0.4077 H       
  47 H47            2.5469    -2.6863    -0.3877 H       
  48 H48            1.6129    -2.3222     1.0832 H       
  49 H49            0.6903     0.3413    -2.0616 H       
  50 H50            1.5662    -1.1270    -2.5568 H       
  51 H51           -0.0502    -1.2597    -1.8234 H       
  52 H52            1.7304     3.0216     2.7821 H       
  53 H53            0.9643     3.7928     1.3727 H       
  54 H54           -2.5381     5.0767     6.5892 H       
  55 H55           -1.1871     3.8340     8.2036 H       
  56 H56            2.3888     1.3904     6.3271 H       
  57 H57            2.4618     1.5949    13.6258 H       
  58 H58            3.0352    -0.0910    13.6327 H       
  59 H59            3.4004     1.0255    11.4225 H       
  60 H60            2.3078    -0.3751    11.2983 H       
  61 H61           -0.7226     1.6863    11.1302 H       
  62 H62           -0.1136     0.0129    11.1266 H       
  63 H63           -1.0305     0.5606    13.3444 H       
  64 H64            0.0339     1.9841    13.4536 H       
@<TRIPOS>BOND
   1    1    2 am
   2    1    3 2
   3    1    4 1
   4    2    5 1
   5    2    9 1
   6    4   13 1
   7    5    6 1
   8    5    8 1
   9    5    7 1
  10    6   34 1
  11    6   35 1
  12    6   36 1
  13    7   37 1
  14    7   38 1
  15    7   39 1
  16    8   40 1
  17    8   41 1
  18    8   42 1
  19    9   10 1
  20    9   12 1
  21    9   11 1
  22   10   43 1
  23   10   44 1
  24   10   45 1
  25   11   46 1
  26   11   47 1
  27   11   48 1
  28   12   49 1
  29   12   50 1
  30   12   51 1
  31   13   22 1
  32   13   52 1
  33   13   53 1
  34   14   15 1
  35   14   19 1
  36   14   21 2
  37   15   16 2
  38   15   54 1
  39   16   17 1
  40   16   55 1
  41   17   18 2
  42   17   26 1
  43   18   19 1
  44   19   22 1
  45   20   21 1
  46   20   22 2
  47   23   24 1
  48   23   27 1
  49   24   25 2
  50   24   31 1
  51   25   26 1
  52   26   27 2
  53   27   56 1
  54   28   29 1
  55   28   33 1
  56   29   30 1
  57   29   57 1
  58   29   58 1
  59   30   31 1
  60   30   59 1
  61   30   60 1
  62   31   32 1
  63   32   33 1
  64   32   61 1
  65   32   62 1
  66   33   63 1
  67   33   64 1

#	End of record

