#	Name: ASD07930955
#	Creating user name:	WinNT
#	Creation time:	15. 06. 2019 21:13

#	Modifying user name:	WinNT
#	Modification time:	15. 06. 2019 21:13

#	Program:	/corina/corina34_cracker 3.40 0067  02.08.2006

@<TRIPOS>MOLECULE
ASD07930955
  36   37    0    0    0
SMALL
NO_CHARGES


@<TRIPOS>ATOM
   1 C1            -0.7552     0.7107    -0.3151 C.3     
   2 S2             0.1733    -0.7765     0.1506 S.o2    
   3 O3             1.1082    -0.4792     1.1786 O.2     
   4 O4            -0.6963    -1.8957     0.2524 O.2     
   5 O5             1.0367    -1.0814    -1.0652 O.3     
   6 C6             2.1569    -0.2073    -1.2165 C.3     
   7 N7             4.2732    -0.4253    -4.9300 N.am    
   8 C8             2.9418    -0.4996    -4.9441 C.2     
   9 C9             2.0917    -0.3799    -3.7119 C.3     
  10 C10            2.9490    -0.6045    -2.4638 C.3     
  11 C11            4.2061     0.2664    -2.5762 C.3     
  12 C12            5.0701    -0.2662    -3.7200 C.3     
  13 C13            4.9477    -0.5109    -6.1529 C.ar    
  14 C14            5.3581    -1.7465    -6.6361 C.ar    
  15 C15            6.0233    -1.8277    -7.8438 C.ar    
  16 C16            6.2811    -0.6803    -8.5714 C.ar    
  17 C17            5.8737     0.5515    -8.0930 C.ar    
  18 C18            5.2031     0.6388    -6.8887 C.ar    
  19 O19            2.3878    -0.6728    -6.0090 O.2     
  20 H20           -0.0588     1.5204    -0.5331 H       
  21 H21           -1.3570     0.5012    -1.1994 H       
  22 H22           -1.4076     1.0041     0.5073 H       
  23 H23            1.8053     0.8192    -1.3210 H       
  24 H24            2.7987    -0.2839    -0.3389 H       
  25 H25            1.6489     0.6153    -3.6727 H       
  26 H26            1.2983    -1.1267    -3.7454 H       
  27 H27            3.2340    -1.6545    -2.3985 H       
  28 H28            3.9194     1.2973    -2.7839 H       
  29 H29            4.7669     0.2213    -1.6426 H       
  30 H30            5.4896    -1.2311    -3.4354 H       
  31 H31            5.8830     0.4337    -3.9135 H       
  32 H32            5.1577    -2.6428    -6.0680 H       
  33 H33            6.3427    -2.7883    -8.2202 H       
  34 H34            6.8020    -0.7464    -9.5151 H       
  35 H35            6.0766     1.4457    -8.6635 H       
  36 H36            4.8816     1.6007    -6.5176 H       
@<TRIPOS>BOND
   1    1    2 1
   2    1   20 1
   3    1   21 1
   4    1   22 1
   5    2    3 2
   6    2    4 2
   7    2    5 1
   8    5    6 1
   9    6   10 1
  10    6   23 1
  11    6   24 1
  12    7    8 am
  13    7   12 1
  14    7   13 1
  15    8    9 1
  16    8   19 2
  17    9   10 1
  18    9   25 1
  19    9   26 1
  20   10   11 1
  21   10   27 1
  22   11   12 1
  23   11   28 1
  24   11   29 1
  25   12   30 1
  26   12   31 1
  27   13   14 ar
  28   13   18 ar
  29   14   15 ar
  30   14   32 1
  31   15   16 ar
  32   15   33 1
  33   16   17 ar
  34   16   34 1
  35   17   18 ar
  36   17   35 1
  37   18   36 1

#	End of record

