#	Name: ASD03240494
#	Creating user name:	WinNT
#	Creation time:	15. 06. 2019 20:35

#	Modifying user name:	WinNT
#	Modification time:	15. 06. 2019 20:35

#	Program:	/corina/corina34_cracker 3.40 0067  02.08.2006

@<TRIPOS>MOLECULE
ASD03240494
  50   53    0    0    0
SMALL
NO_CHARGES


@<TRIPOS>ATOM
   1 C1            -0.1897     1.4469     0.3176 C.ar    
   2 C2            -0.0589     0.1022     0.0214 C.ar    
   3 C3             0.9195     2.2683     0.3124 C.ar    
   4 C4             2.1723     1.7408     0.0080 C.ar    
   5 C5             2.2984     0.3858    -0.2896 C.ar    
   6 C6             1.1828    -0.4268    -0.2810 C.ar    
   7 C7             3.3690     2.6197     0.0004 C.2     
   8 C8             4.6485     2.2371    -0.2785 C.2     
   9 N9             5.4320     3.3297    -0.1781 N.pl3   
  10 N10            4.6230     4.4178     0.1711 N.2     
  11 C11            3.3887     4.0012     0.2737 C.2     
  12 C12           -1.2736    -0.7898     0.0288 C.3     
  13 C13           -1.3575    -1.5480    -1.2975 C.3     
  14 C14           -1.1667    -1.7746     1.1644 C.ar    
  15 C15           -2.0341    -1.6886     2.2375 C.ar    
  16 C16           -1.9366    -2.5915     3.2793 C.ar    
  17 C17           -0.9708    -3.5816     3.2482 C.ar    
  18 C18           -0.1030    -3.6672     2.1741 C.ar    
  19 C19           -0.2051    -2.7671     1.1301 C.ar    
  20 Cl20          -0.8473    -4.7157     4.5568 Cl      
  21 N21           -2.5858    -2.3533    -1.3243 N.3     
  22 C22           -2.7458    -3.0262    -2.6196 C.3     
  23 C23           -3.9519    -3.9664    -2.5621 C.3     
  24 C24           -5.2081    -3.1573    -2.2275 C.3     
  25 C25           -4.9969    -2.4280    -0.8979 C.3     
  26 C26           -3.7604    -1.5324    -1.0037 C.3     
  27 H27           -1.1621     1.8558     0.5491 H       
  28 H28            0.8163     3.3183     0.5435 H       
  29 H29            3.2674    -0.0282    -0.5262 H       
  30 H30            1.2794    -1.4776    -0.5112 H       
  31 H31            4.9748     1.2396    -0.5334 H       
  32 H32            6.3908     3.3573    -0.3226 H       
  33 H33            2.5336     4.6090     0.5305 H       
  34 H34           -2.1695    -0.1825     0.1575 H       
  35 H35           -1.3719    -0.8360    -2.1228 H       
  36 H36           -0.4917    -2.2025    -1.3973 H       
  37 H37           -2.7878    -0.9154     2.2618 H       
  38 H38           -2.6141    -2.5240     4.1177 H       
  39 H39            0.6512    -4.4398     2.1493 H       
  40 H40            0.4722    -2.8339     0.2916 H       
  41 H41           -2.9033    -2.2808    -3.3991 H       
  42 H42           -1.8473    -3.6013    -2.8435 H       
  43 H43           -4.0797    -4.4540    -3.5285 H       
  44 H44           -3.7890    -4.7206    -1.7921 H       
  45 H45           -5.3932    -2.4290    -3.0171 H       
  46 H46           -6.0623    -3.8291    -2.1428 H       
  47 H47           -5.8712    -1.8164    -0.6754 H       
  48 H48           -4.8504    -3.1579    -0.1017 H       
  49 H49           -3.5989    -1.0225    -0.0540 H       
  50 H50           -3.9132    -0.7939    -1.7908 H       
@<TRIPOS>BOND
   1    1    2 ar
   2    1    3 ar
   3    1   27 1
   4    2   12 1
   5    2    6 ar
   6    3    4 ar
   7    3   28 1
   8    4    5 ar
   9    4    7 1
  10    5    6 ar
  11    5   29 1
  12    6   30 1
  13    7    8 2
  14    7   11 1
  15    8    9 1
  16    8   31 1
  17    9   10 1
  18    9   32 1
  19   10   11 2
  20   11   33 1
  21   12   13 1
  22   12   14 1
  23   12   34 1
  24   13   21 1
  25   13   35 1
  26   13   36 1
  27   14   15 ar
  28   14   19 ar
  29   15   16 ar
  30   15   37 1
  31   16   17 ar
  32   16   38 1
  33   17   18 ar
  34   17   20 1
  35   18   19 ar
  36   18   39 1
  37   19   40 1
  38   21   22 1
  39   21   26 1
  40   22   23 1
  41   22   41 1
  42   22   42 1
  43   23   24 1
  44   23   43 1
  45   23   44 1
  46   24   25 1
  47   24   45 1
  48   24   46 1
  49   25   26 1
  50   25   47 1
  51   25   48 1
  52   26   49 1
  53   26   50 1

#	End of record

