#	Name: ASD04880388
#	Creating user name:	WinNT
#	Creation time:	15. 06. 2019 20:53

#	Modifying user name:	WinNT
#	Modification time:	15. 06. 2019 20:53

#	Program:	/corina/corina34_cracker 3.40 0067  02.08.2006

@<TRIPOS>MOLECULE
ASD04880388
  55   58    0    0    0
SMALL
NO_CHARGES


@<TRIPOS>ATOM
   1 C1            -0.0112     1.3873     0.0513 C.ar    
   2 C2             1.1765     2.0952     0.0835 C.ar    
   3 C3             2.3833     1.4267     0.0555 C.ar    
   4 C4             2.4051     0.0324    -0.0050 C.ar    
   5 C5             1.2039    -0.6781    -0.0368 C.ar    
   6 C6             0.0020     0.0027    -0.0088 C.ar    
   7 C7             3.6948    -0.6889    -0.0356 C.2     
   8 O8             3.7146    -1.9025     0.0376 O.2     
   9 N9             4.8489    -0.0014    -0.1447 N.am    
  10 C10            6.2000    -0.5795    -0.0686 C.3     
  11 N11            4.9576     1.3718    -0.3541 N.2     
  12 C12            6.1712     1.7992    -0.4243 C.2     
  13 C13            7.1258     0.6389    -0.2550 C.3     
  14 F14           -1.1621    -0.6823    -0.0391 F       
  15 C15            6.5678     3.2024    -0.6402 C.ar    
  16 C16            7.9210     3.5473    -0.6990 C.ar    
  17 C17            8.2870     4.8601    -0.9014 C.ar    
  18 C18            7.3134     5.8403    -1.0466 C.ar    
  19 C19            5.9676     5.5024    -0.9885 C.ar    
  20 C20            5.5921     4.1909    -0.7926 C.ar    
  21 S21            4.7383     6.7513    -1.1724 S.o2    
  22 O22            7.6789     7.1335    -1.2456 O.3     
  23 C23            9.0797     7.4116    -1.2944 C.3     
  24 N24            4.8823     7.7751     0.1212 N.am    
  25 O25            5.0999     7.5041    -2.3221 O.2     
  26 O26            3.4823     6.1017    -1.0322 O.2     
  27 C27            6.0963     8.5779     0.2884 C.3     
  28 C28            5.8419     9.6693     1.2960 C.ar    
  29 C29            6.0855     9.4420     2.6376 C.ar    
  30 C30            5.8522    10.4431     3.5618 C.ar    
  31 C31            5.3756    11.6717     3.1444 C.ar    
  32 C32            5.1328    11.8994     1.8027 C.ar    
  33 C33            5.3703    10.8997     0.8780 C.ar    
  34 H34           -0.9529     1.9155     0.0776 H       
  35 H35            1.1594     3.1740     0.1303 H       
  36 H36            3.3095     1.9815     0.0801 H       
  37 H37            1.2141    -1.7570    -0.0840 H       
  38 H38            6.3653    -1.0415     0.9048 H       
  39 H39            6.3531    -1.3036    -0.8689 H       
  40 H40            7.7507     0.7834     0.6263 H       
  41 H41            7.7418     0.5174    -1.1460 H       
  42 H42            8.6786     2.7860    -0.5855 H       
  43 H43            9.3323     5.1275    -0.9469 H       
  44 H44            4.5453     3.9289    -0.7479 H       
  45 H45            9.5413     7.1186    -0.3514 H       
  46 H46            9.5334     6.8500    -2.1110 H       
  47 H47            9.2329     8.4783    -1.4579 H       
  48 H48            4.1628     7.8432     0.7683 H       
  49 H49            6.9077     7.9407     0.6401 H       
  50 H50            6.3720     9.0230    -0.6676 H       
  51 H51            6.4578     8.4821     2.9637 H       
  52 H52            6.0418    10.2652     4.6100 H       
  53 H53            5.1926    12.4537     3.8665 H       
  54 H54            4.7602    12.8592     1.4766 H       
  55 H55            5.1807    11.0776    -0.1703 H       
@<TRIPOS>BOND
   1    1    2 ar
   2    1    6 ar
   3    1   34 1
   4    2    3 ar
   5    2   35 1
   6    3    4 ar
   7    3   36 1
   8    4    5 ar
   9    4    7 1
  10    5    6 ar
  11    5   37 1
  12    6   14 1
  13    7    8 2
  14    7    9 am
  15    9   10 1
  16    9   11 1
  17   10   13 1
  18   10   38 1
  19   10   39 1
  20   11   12 2
  21   12   13 1
  22   12   15 1
  23   13   40 1
  24   13   41 1
  25   15   16 ar
  26   15   20 ar
  27   16   17 ar
  28   16   42 1
  29   17   18 ar
  30   17   43 1
  31   18   19 ar
  32   18   22 1
  33   19   20 ar
  34   19   21 1
  35   20   44 1
  36   21   24 am
  37   21   25 2
  38   21   26 2
  39   22   23 1
  40   23   45 1
  41   23   46 1
  42   23   47 1
  43   24   27 1
  44   24   48 1
  45   27   28 1
  46   27   49 1
  47   27   50 1
  48   28   29 ar
  49   28   33 ar
  50   29   30 ar
  51   29   51 1
  52   30   31 ar
  53   30   52 1
  54   31   32 ar
  55   31   53 1
  56   32   33 ar
  57   32   54 1
  58   33   55 1

#	End of record

