#	Name: ASD01208531
#	Creating user name:	WinNT
#	Creation time:	15. 06. 2019 19:10

#	Modifying user name:	WinNT
#	Modification time:	15. 06. 2019 19:10

#	Program:	/corina/corina34_cracker 3.40 0067  02.08.2006

@<TRIPOS>MOLECULE
ASD01208531
  58   61    0    0    0
SMALL
NO_CHARGES


@<TRIPOS>ATOM
   1 N1             0.0839     1.5072    -0.4542 N.pl3   
   2 C2             0.1553     0.1360    -0.5633 C.2     
   3 C3             1.4881    -0.2150    -0.6593 C.2     
   4 C4             2.2340     0.9603    -0.6075 C.2     
   5 C5             1.3508     2.0113    -0.4810 C.2     
   6 C6            -0.9810    -0.7869    -0.5750 C.2     
   7 O7            -0.7911    -1.9841    -0.6769 O.2     
   8 O8            -2.2388    -0.3097    -0.4728 O.3     
   9 C9             1.7149     3.4411    -0.3909 C.ar    
  10 C10            0.7187     4.4103    -0.2659 C.ar    
  11 C11            1.0643     5.7488    -0.1814 C.ar    
  12 C12            2.3992     6.1266    -0.2212 C.ar    
  13 C13            3.3925     5.1663    -0.3459 C.ar    
  14 C14            3.0559     3.8249    -0.4249 C.ar    
  15 O15            4.6981     5.5417    -0.3849 O.3     
  16 C16            5.6734     4.4973    -0.3946 C.3     
  17 C17            6.9925     5.0261     0.1721 C.3     
  18 C18            5.8915     4.0166    -1.8307 C.3     
  19 O19            7.5121     6.0367    -0.6944 O.3     
  20 C20            8.7495     6.5999    -0.2541 C.3     
  21 O21            0.0950     6.6935    -0.0596 O.3     
  22 C22           -0.6438     6.7042     1.0764 C.ar    
  23 C23           -1.7152     7.5870     1.1904 C.ar    
  24 C24           -2.4637     7.5927     2.3502 C.ar    
  25 C25           -2.1113     6.7016     3.3749 C.ar    
  26 C26           -1.0242     5.8479     3.1851 C.ar    
  27 N27           -0.3404     5.8716     2.0602 N.ar    
  28 Cl28          -2.1043     8.6679    -0.1111 Cl      
  29 C29           -2.8788     6.6681     4.6353 C.2     
  30 O30           -2.4821     6.0010     5.5712 O.2     
  31 N31           -4.0195     7.3770     4.7487 N.am    
  32 C32           -5.0590     7.5537     5.7740 C.3     
  33 C33           -6.0438     7.8782     4.6422 C.3     
  34 C34           -4.7690     8.3193     3.9043 C.3     
  35 H35           -0.7310     2.0274    -0.3757 H       
  36 H36            1.8798    -1.2168    -0.7562 H       
  37 H37            3.3103     1.0348    -0.6572 H       
  38 H38           -2.9217    -0.9941    -0.4898 H       
  39 H39           -0.3203     4.1171    -0.2355 H       
  40 H40            2.6653     7.1712    -0.1554 H       
  41 H41            3.8301     3.0777    -0.5174 H       
  42 H42            5.3221     3.6665     0.2173 H       
  43 H43            6.8192     5.4497     1.1613 H       
  44 H44            7.7093     4.2084     0.2474 H       
  45 H45            6.2427     4.8474    -2.4426 H       
  46 H46            6.6354     3.2199    -1.8381 H       
  47 H47            4.9517     3.6399    -2.2344 H       
  48 H48            9.0769     7.3583    -0.9653 H       
  49 H49            8.6126     7.0561     0.7263 H       
  50 H50            9.5027     5.8148    -0.1876 H       
  51 H51           -3.2996     8.2667     2.4661 H       
  52 H52           -0.7434     5.1579     3.9670 H       
  53 H53           -5.3007     6.6357     6.3098 H       
  54 H54           -4.8720     8.3950     6.4412 H       
  55 H55           -6.5336     7.0047     4.2118 H       
  56 H56           -6.7315     8.6931     4.8681 H       
  57 H57           -4.5056     9.3626     4.0786 H       
  58 H58           -4.7637     8.0537     2.8472 H       
@<TRIPOS>BOND
   1    1    2 1
   2    1    5 1
   3    1   35 1
   4    2    3 2
   5    2    6 1
   6    3    4 1
   7    3   36 1
   8    4    5 2
   9    4   37 1
  10    5    9 1
  11    6    7 2
  12    6    8 1
  13    8   38 1
  14    9   10 ar
  15    9   14 ar
  16   10   11 ar
  17   10   39 1
  18   11   12 ar
  19   11   21 1
  20   12   13 ar
  21   12   40 1
  22   13   14 ar
  23   13   15 1
  24   14   41 1
  25   15   16 1
  26   16   17 1
  27   16   18 1
  28   16   42 1
  29   17   19 1
  30   17   43 1
  31   17   44 1
  32   18   45 1
  33   18   46 1
  34   18   47 1
  35   19   20 1
  36   20   48 1
  37   20   49 1
  38   20   50 1
  39   21   22 1
  40   22   23 ar
  41   22   27 ar
  42   23   24 ar
  43   23   28 1
  44   24   25 ar
  45   24   51 1
  46   25   26 ar
  47   25   29 1
  48   26   27 ar
  49   26   52 1
  50   29   30 2
  51   29   31 am
  52   31   32 1
  53   31   34 1
  54   32   33 1
  55   32   53 1
  56   32   54 1
  57   33   34 1
  58   33   55 1
  59   33   56 1
  60   34   57 1
  61   34   58 1

#	End of record

