#	Name: ASD01478114
#	Creating user name:	WinNT
#	Creation time:	15. 06. 2019 19:21

#	Modifying user name:	WinNT
#	Modification time:	15. 06. 2019 19:21

#	Program:	/corina/corina34_cracker 3.40 0067  02.08.2006

@<TRIPOS>MOLECULE
ASD01478114
  38   40    0    0    0
SMALL
NO_CHARGES


@<TRIPOS>ATOM
   1 O1            -0.3065     1.6820    -0.1855 O.3     
   2 C2            -0.5441     0.3123    -0.0463 C.3     
   3 O3            -0.7343    -0.1073     1.2952 O.3     
   4 C4             0.4363    -0.2118     2.0742 C.3     
   5 O5             1.0533     1.0578     2.1978 O.3     
   6 C6             1.7983     1.5762     1.1360 C.3     
   7 C7             0.9748     2.2136     0.0287 C.3     
   8 C8             0.9216     3.7247     0.3060 C.3     
   9 C9             1.7460     3.9538     1.5919 C.3     
  10 C10            2.6980     2.7324     1.6549 C.3     
  11 O11            2.5067     5.1868     1.4950 O.3     
  12 C12            2.7564     5.8423     2.6432 C.2     
  13 O13            2.3501     5.3970     3.6973 O.2     
  14 O14            3.4564     6.9915     2.6233 O.3     
  15 C15            3.7669     7.5458     3.8251 C.ar    
  16 C16            4.7901     7.0101     4.5936 C.ar    
  17 C17            5.1042     7.5754     5.8143 C.ar    
  18 C18            4.3993     8.6740     6.2705 C.ar    
  19 C19            3.3791     9.2098     5.5064 C.ar    
  20 C20            3.0651     8.6515     4.2824 C.ar    
  21 N21            4.7372     9.2772     7.5793 N.pl3   
  22 O22            5.6355     8.8059     8.2534 O.2     
  23 O23            4.1170    10.2450     7.9822 O.2     
  24 H24           -1.4340     0.0542    -0.6203 H       
  25 H25            0.3038    -0.2312    -0.4632 H       
  26 H26            0.1790    -0.5867     3.0649 H       
  27 H27            1.1282    -0.9050     1.5959 H       
  28 H28            2.4310     0.7938     0.7169 H       
  29 H29            1.5344     2.0909    -0.8986 H       
  30 H30            1.3629     4.2744    -0.5254 H       
  31 H31           -0.1099     4.0416     0.4604 H       
  32 H32            1.0936     3.9745     2.4648 H       
  33 H33            3.0181     2.5436     2.6796 H       
  34 H34            3.5575     2.8775     1.0004 H       
  35 H35            5.3405     6.1516     4.2380 H       
  36 H36            5.9006     7.1588     6.4130 H       
  37 H37            2.8298    10.0677     5.8651 H       
  38 H38            2.2708     9.0728     3.6841 H       
@<TRIPOS>BOND
   1    1    2 1
   2    1    7 1
   3    2    3 1
   4    2   24 1
   5    2   25 1
   6    3    4 1
   7    4    5 1
   8    4   26 1
   9    4   27 1
  10    5    6 1
  11    6    7 1
  12    6   10 1
  13    6   28 1
  14    7    8 1
  15    7   29 1
  16    8    9 1
  17    8   30 1
  18    8   31 1
  19    9   10 1
  20    9   11 1
  21    9   32 1
  22   10   33 1
  23   10   34 1
  24   11   12 1
  25   12   13 2
  26   12   14 1
  27   14   15 1
  28   15   16 ar
  29   15   20 ar
  30   16   17 ar
  31   16   35 1
  32   17   18 ar
  33   17   36 1
  34   18   19 ar
  35   18   21 1
  36   19   20 ar
  37   19   37 1
  38   20   38 1
  39   21   22 2
  40   21   23 2

#	End of record

