#	Name: ASD03200063
#	Creating user name:	WinNT
#	Creation time:	15. 06. 2019 20:34

#	Modifying user name:	WinNT
#	Modification time:	15. 06. 2019 20:34

#	Program:	/corina/corina34_cracker 3.40 0067  02.08.2006

@<TRIPOS>MOLECULE
ASD03200063
  52   55    0    0    0
SMALL
NO_CHARGES


@<TRIPOS>ATOM
   1 C1             0.9764    -1.0300    -0.0719 C.3     
   2 N2            -0.0317     0.0358    -0.0074 N.3     
   3 C3             0.2651     0.9827     1.0750 C.3     
   4 C4             1.6153     1.6533     0.8120 C.3     
   5 C5             2.7056     0.5810     0.7334 C.3     
   6 C6             2.3479    -0.4195    -0.3692 C.3     
   7 C7            -1.3128    -0.4961     0.1314 C.ar    
   8 C8            -2.0495    -0.2917     1.2955 C.ar    
   9 C9            -3.3147    -0.8344     1.3942 C.ar    
  10 N10           -3.8301    -1.5399     0.4054 N.ar    
  11 C11           -3.1685    -1.7589    -0.7155 C.ar    
  12 C12           -1.8954    -1.2450    -0.8981 C.ar    
  13 N13           -1.1970    -1.4803    -2.0901 N.am    
  14 C14           -1.3571    -2.6469    -2.7459 C.2     
  15 C15           -0.7271    -2.8445    -4.0530 C.2     
  16 O16           -2.0256    -3.5364    -2.2515 O.2     
  17 C17           -0.8519    -4.0105    -4.7723 C.2     
  18 S18            0.0550    -3.8219    -6.2712 S.3     
  19 C19            0.5196    -2.1928    -5.7945 C.2     
  20 N20            0.0130    -1.9054    -4.6499 N.2     
  21 C21            1.3819    -1.2670    -6.6134 C.3     
  22 N22           -1.5621    -5.1313    -4.3873 N.pl3   
  23 C23            2.7672    -1.9005    -6.8569 C.3     
  24 N24            3.3595    -1.4838    -0.4127 N.3     
  25 C25            2.8818    -2.0372    -8.3903 C.3     
  26 N26            1.9503    -1.0125    -8.9282 N.3     
  27 C27            0.7761    -1.0742    -8.0202 C.3     
  28 H28            1.0117    -1.5548     0.8829 H       
  29 H29            0.7124    -1.7323    -0.8625 H       
  30 H30           -0.5155     1.7422     1.1174 H       
  31 H31            0.3037     0.4485     2.0244 H       
  32 H32            1.5731     2.1991    -0.1306 H       
  33 H33            1.8426     2.3445     1.6236 H       
  34 H34            3.6621     1.0503     0.5031 H       
  35 H35            2.7746     0.0610     1.6888 H       
  36 H36            2.3171     0.0937    -1.3303 H       
  37 H37           -1.6359     0.2837     2.1105 H       
  38 H38           -3.8912    -0.6796     2.2943 H       
  39 H39           -3.6265    -2.3422    -1.5006 H       
  40 H40           -0.5984    -0.8037    -2.4432 H       
  41 H41            1.4883    -0.3059    -6.1103 H       
  42 H42           -2.0314    -5.1401    -3.5384 H       
  43 H43           -1.5915    -5.9093    -4.9658 H       
  44 H44            3.5536    -1.2495    -6.4750 H       
  45 H45            2.8234    -2.8811    -6.3841 H       
  46 H46            4.2748    -1.1050    -0.6045 H       
  47 H47            3.3609    -2.0166     0.4442 H       
  48 H48            3.9018    -1.8316    -8.7151 H       
  49 H49            2.5746    -3.0339    -8.7072 H       
  50 H50            2.3722    -0.0961    -8.9119 H       
  51 H51            0.1394    -1.9202    -8.2791 H       
  52 H52            0.2106    -0.1436    -8.0663 H       
@<TRIPOS>BOND
   1    1    2 1
   2    1    6 1
   3    1   28 1
   4    1   29 1
   5    2    3 1
   6    2    7 1
   7    3    4 1
   8    3   30 1
   9    3   31 1
  10    4    5 1
  11    4   32 1
  12    4   33 1
  13    5    6 1
  14    5   34 1
  15    5   35 1
  16    6   24 1
  17    6   36 1
  18    7    8 ar
  19    7   12 ar
  20    8    9 ar
  21    8   37 1
  22    9   10 ar
  23    9   38 1
  24   10   11 ar
  25   11   12 ar
  26   11   39 1
  27   12   13 1
  28   13   14 am
  29   13   40 1
  30   14   15 1
  31   14   16 2
  32   15   17 2
  33   15   20 1
  34   17   18 1
  35   17   22 1
  36   18   19 1
  37   19   20 2
  38   19   21 1
  39   21   23 1
  40   21   27 1
  41   21   41 1
  42   22   42 1
  43   22   43 1
  44   23   25 1
  45   23   44 1
  46   23   45 1
  47   24   46 1
  48   24   47 1
  49   25   26 1
  50   25   48 1
  51   25   49 1
  52   26   27 1
  53   26   50 1
  54   27   51 1
  55   27   52 1

#	End of record

