#	Name: ASD01231367
#	Creating user name:	WinNT
#	Creation time:	15. 06. 2019 19:15

#	Modifying user name:	WinNT
#	Modification time:	15. 06. 2019 19:15

#	Program:	/corina/corina34_cracker 3.40 0067  02.08.2006

@<TRIPOS>MOLECULE
ASD01231367
  56   59    0    0    0
SMALL
NO_CHARGES


@<TRIPOS>ATOM
   1 C1             1.9156     0.8894     0.7815 C.3     
   2 O2             2.2225    -0.4958     0.9521 O.3     
   3 C3             3.1883     1.6952     0.8270 C.ar    
   4 C4             3.8903     1.9451    -0.3376 C.ar    
   5 C5             5.0575     2.6841    -0.2958 C.ar    
   6 C6             5.5228     3.1739     0.9105 C.ar    
   7 C7             4.8206     2.9249     2.0745 C.ar    
   8 C8             3.6507     2.1893     2.0322 C.ar    
   9 C9             5.3280     3.4583     3.3895 C.3     
  10 C10            2.9045     8.5877     4.4469 C.3     
  11 C11            1.9159     8.1347     5.5422 C.3     
  12 C12            1.7390     6.6339     5.2286 C.3     
  13 C13            3.0168     6.2219     4.5296 C.ar    
  14 C14            3.5512     4.9643     4.3040 C.ar    
  15 C15            4.7501     4.8288     3.6322 C.ar    
  16 C16            5.4200     5.9517     3.1830 C.ar    
  17 C17            4.8888     7.2066     3.4070 C.ar    
  18 C18            3.6865     7.3445     4.0805 C.ar    
  19 N19            2.1731     9.0930     3.2774 N.3     
  20 C20            1.3698    10.2719     3.6279 C.3     
  21 C21            3.0424     9.3759     2.2303 C.ar    
  22 C22            2.8228     8.8079     0.9793 C.ar    
  23 C23            3.6956     9.0980    -0.0536 C.ar    
  24 C24            4.7629     9.9497     0.2000 C.ar    
  25 C25            4.9206    10.4777     1.4654 C.ar    
  26 N26            4.0689    10.1877     2.4309 N.ar    
  27 C27            1.6502     7.8888     0.7529 C.3     
  28 F28            1.6965     7.3865    -0.5520 F       
  29 F29            1.7067     6.8280     1.6632 F       
  30 F30            0.4589     8.5987     0.9374 F       
  31 C31            5.8232     2.9556    -1.5651 C.3     
  32 F32            5.1609     2.3625    -2.6452 F       
  33 F33            5.9086     4.3366    -1.7718 F       
  34 F34            7.1110     2.4198    -1.4565 F       
  35 H35            1.4262     1.0373    -0.1812 H       
  36 H36            1.2504     1.2153     1.5811 H       
  37 H37            1.4486    -1.0753     0.9334 H       
  38 H38            3.5268     1.5625    -1.2798 H       
  39 H39            6.4353     3.7507     0.9432 H       
  40 H40            3.0999     1.9979     2.9413 H       
  41 H41            5.0253     2.7886     4.1944 H       
  42 H42            6.4157     3.5226     3.3600 H       
  43 H43            3.5741     9.3549     4.8357 H       
  44 H44            2.3454     8.2753     6.5341 H       
  45 H45            0.9674     8.6640     5.4510 H       
  46 H46            1.6128     6.0670     6.1510 H       
  47 H47            0.8828     6.4832     4.5710 H       
  48 H48            3.0285     4.0866     4.6546 H       
  49 H49            6.3576     5.8475     2.6571 H       
  50 H50            5.4126     8.0833     3.0557 H       
  51 H51            2.0072    11.0178     4.1027 H       
  52 H52            0.9290    10.6929     2.7243 H       
  53 H53            0.5772     9.9798     4.3168 H       
  54 H54            3.5506     8.6716    -1.0352 H       
  55 H55            5.4627    10.1959    -0.5849 H       
  56 H56            5.7493    11.1404     1.6670 H       
@<TRIPOS>BOND
   1    1    2 1
   2    1    3 1
   3    1   35 1
   4    1   36 1
   5    2   37 1
   6    3    4 ar
   7    3    8 ar
   8    4    5 ar
   9    4   38 1
  10    5    6 ar
  11    5   31 1
  12    6    7 ar
  13    6   39 1
  14    7    8 ar
  15    7    9 1
  16    8   40 1
  17    9   15 1
  18    9   41 1
  19    9   42 1
  20   10   11 1
  21   10   18 1
  22   10   19 1
  23   10   43 1
  24   11   12 1
  25   11   44 1
  26   11   45 1
  27   12   13 1
  28   12   46 1
  29   12   47 1
  30   13   14 ar
  31   13   18 ar
  32   14   15 ar
  33   14   48 1
  34   15   16 ar
  35   16   17 ar
  36   16   49 1
  37   17   18 ar
  38   17   50 1
  39   19   20 1
  40   19   21 1
  41   20   51 1
  42   20   52 1
  43   20   53 1
  44   21   22 ar
  45   21   26 ar
  46   22   23 ar
  47   22   27 1
  48   23   24 ar
  49   23   54 1
  50   24   25 ar
  51   24   55 1
  52   25   26 ar
  53   25   56 1
  54   27   28 1
  55   27   29 1
  56   27   30 1
  57   31   32 1
  58   31   33 1
  59   31   34 1

#	End of record

