#	Name: ASD01150189
#	Creating user name:	WinNT
#	Creation time:	15. 06. 2019 19:03

#	Modifying user name:	WinNT
#	Modification time:	15. 06. 2019 19:03

#	Program:	/corina/corina34_cracker 3.40 0067  02.08.2006

@<TRIPOS>MOLECULE
ASD01150189
  54   56    0    0    0
SMALL
NO_CHARGES


@<TRIPOS>ATOM
   1 N1             0.3250     1.6246    -0.7654 N.pl3   
   2 C2             0.5959     0.2630    -0.7921 C.2     
   3 C3            -0.5831    -0.3780    -0.4272 C.2     
   4 N4            -1.4991     0.5643    -0.1983 N.2     
   5 C5            -0.9745     1.7578    -0.3898 C.2     
   6 C6             1.7328    -0.5086    -1.0908 C.2     
   7 N7             1.6559    -1.8535    -1.0172 N.am    
   8 C8             0.5114    -2.4632    -0.6635 C.2     
   9 N9            -0.6000    -1.7623    -0.3695 N.am    
  10 O10            2.7765     0.0318    -1.4132 O.2     
  11 C11           -1.8280    -2.4640     0.0124 C.3     
  12 O12            0.4788    -3.6775    -0.6081 O.2     
  13 C13            2.8376    -2.6617    -1.3280 C.3     
  14 C14            3.6372    -2.8867    -0.0706 C.ar    
  15 C15            3.3789    -3.9876     0.7247 C.ar    
  16 C16            4.1119    -4.1945     1.8781 C.ar    
  17 C17            5.1042    -3.2996     2.2366 C.ar    
  18 C18            5.3622    -2.1981     1.4403 C.ar    
  19 C19            4.6324    -1.9952     0.2842 C.ar    
  20 N20           -1.6407     2.9525    -0.2406 N.3     
  21 C21            1.2606     2.7083    -1.0760 C.3     
  22 C22           -1.8555    -2.6548     1.5302 C.3     
  23 Cl23           6.0249    -3.5586     3.6854 Cl      
  24 C24           -3.1380    -3.3875     1.9290 C.3     
  25 C25           -3.0954     2.7528    -0.2822 C.3     
  26 C26           -3.7882     4.0968    -0.5158 C.3     
  27 C27           -1.5512     2.7291     2.1965 C.3     
  28 C28           -1.2373     3.6289     0.9995 C.3     
  29 H29           -2.6929    -1.8764    -0.2956 H       
  30 H30           -1.8573    -3.4376    -0.4768 H       
  31 H31            2.5237    -3.6225    -1.7358 H       
  32 H32            3.4525    -2.1394    -2.0610 H       
  33 H33            2.6040    -4.6859     0.4449 H       
  34 H34            3.9098    -5.0544     2.4994 H       
  35 H35            6.1367    -1.4992     1.7197 H       
  36 H36            4.8337    -1.1354    -0.3375 H       
  37 H37            1.2278     2.9216    -2.1444 H       
  38 H38            0.9798     3.6017    -0.5183 H       
  39 H39            2.2704     2.4078    -0.7963 H       
  40 H40           -0.9906    -3.2423     1.8382 H       
  41 H41           -1.8262    -1.6812     2.0194 H       
  42 H42           -3.1575    -3.5235     3.0103 H       
  43 H43           -4.0029    -2.8000     1.6210 H       
  44 H44           -3.1673    -4.3612     1.4398 H       
  45 H45           -3.3453     2.0693    -1.0937 H       
  46 H46           -3.4314     2.3306     0.6649 H       
  47 H47           -3.5319     4.7829     0.2915 H       
  48 H48           -3.4583     4.5152    -1.4667 H       
  49 H49           -4.8680     3.9499    -0.5386 H       
  50 H50           -2.6300     2.5958     2.2778 H       
  51 H51           -1.0747     1.7588     2.0565 H       
  52 H52           -1.1726     3.1918     3.1079 H       
  53 H53           -0.1672     3.8340     0.9699 H       
  54 H54           -1.7846     4.5666     1.0964 H       
@<TRIPOS>BOND
   1    1    2 1
   2    1   21 1
   3    1    5 1
   4    2    3 2
   5    2    6 1
   6    3    4 1
   7    3    9 1
   8    4    5 2
   9    5   20 1
  10    6    7 am
  11    6   10 2
  12    7    8 am
  13    7   13 1
  14    8    9 am
  15    8   12 2
  16    9   11 1
  17   11   22 1
  18   11   29 1
  19   11   30 1
  20   13   14 1
  21   13   31 1
  22   13   32 1
  23   14   15 ar
  24   14   19 ar
  25   15   16 ar
  26   15   33 1
  27   16   17 ar
  28   16   34 1
  29   17   18 ar
  30   17   23 1
  31   18   19 ar
  32   18   35 1
  33   19   36 1
  34   20   25 1
  35   20   28 1
  36   21   37 1
  37   21   38 1
  38   21   39 1
  39   22   24 1
  40   22   40 1
  41   22   41 1
  42   24   42 1
  43   24   43 1
  44   24   44 1
  45   25   26 1
  46   25   45 1
  47   25   46 1
  48   26   47 1
  49   26   48 1
  50   26   49 1
  51   27   28 1
  52   27   50 1
  53   27   51 1
  54   27   52 1
  55   28   53 1
  56   28   54 1

#	End of record

