#	Name: ASD01915005
#	Creating user name:	WinNT
#	Creation time:	15. 06. 2019 20:04

#	Modifying user name:	WinNT
#	Modification time:	15. 06. 2019 20:04

#	Program:	/corina/corina34_cracker 3.40 0067  02.08.2006

@<TRIPOS>MOLECULE
ASD01915005
  40   42    0    0    0
SMALL
NO_CHARGES


@<TRIPOS>ATOM
   1 N1            -0.0160     1.3255     0.0093 N.ar    
   2 C2             0.0021    -0.0041     0.0020 C.ar    
   3 C3             1.2085    -0.7087    -0.0128 C.ar    
   4 C4             2.3978    -0.0057    -0.0195 C.ar    
   5 C5             2.3371     1.3905    -0.0115 C.ar    
   6 C6             3.5643     2.2107    -0.0170 C.2     
   7 N7             3.4884     3.5063     0.3490 N.am    
   8 C8             2.2287     4.0888     0.8038 C.3     
   9 C9             1.0493     3.5361     0.0075 C.3     
  10 C10            1.0936     2.0299     0.0025 C.ar    
  11 O11            4.6287     1.7249    -0.3474 O.2     
  12 C12           -1.2729    -0.7475     0.0101 C.2     
  13 C13           -2.4252    -0.0888     0.0246 C.2     
  14 C14            4.6892     4.3434     0.2891 C.3     
  15 C15            4.7837     4.9898    -1.0690 C.ar    
  16 C16            4.1949     6.2212    -1.2897 C.ar    
  17 C17            4.2802     6.8157    -2.5337 C.ar    
  18 C18            4.9572     6.1763    -3.5620 C.ar    
  19 C19            5.5471     4.9408    -3.3379 C.ar    
  20 C20            5.4639     4.3530    -2.0905 C.ar    
  21 O21            5.0421     6.7589    -4.7868 O.3     
  22 C22            5.7545     6.0431    -5.7978 C.3     
  23 H23            1.2113    -1.7887    -0.0185 H       
  24 H24            3.3472    -0.5204    -0.0302 H       
  25 H25            2.0878     3.8568     1.8594 H       
  26 H26            2.2692     5.1708     0.6786 H       
  27 H27            0.1169     3.8692     0.4635 H       
  28 H28            1.1007     3.9032    -1.0175 H       
  29 H29           -1.2683    -1.8275     0.0043 H       
  30 H30           -3.3581    -0.6328     0.0306 H       
  31 H31           -2.4298     0.9911     0.0305 H       
  32 H32            4.6322     5.1159     1.0560 H       
  33 H33            5.5713     3.7262     0.4599 H       
  34 H34            3.6677     6.7184    -0.4890 H       
  35 H35            3.8198     7.7774    -2.7058 H       
  36 H36            6.0747     4.4409    -4.1368 H       
  37 H37            5.9270     3.3934    -1.9143 H       
  38 H38            5.2762     5.0780    -5.9651 H       
  39 H39            5.7466     6.6179    -6.7239 H       
  40 H40            6.7841     5.8874    -5.4756 H       
@<TRIPOS>BOND
   1    1    2 ar
   2    1   10 ar
   3    2    3 ar
   4    2   12 1
   5    3    4 ar
   6    3   23 1
   7    4    5 ar
   8    4   24 1
   9    5    6 1
  10    5   10 ar
  11    6    7 am
  12    6   11 2
  13    7    8 1
  14    7   14 1
  15    8    9 1
  16    8   25 1
  17    8   26 1
  18    9   10 1
  19    9   27 1
  20    9   28 1
  21   12   13 2
  22   12   29 1
  23   13   30 1
  24   13   31 1
  25   14   15 1
  26   14   32 1
  27   14   33 1
  28   15   16 ar
  29   15   20 ar
  30   16   17 ar
  31   16   34 1
  32   17   18 ar
  33   17   35 1
  34   18   19 ar
  35   18   21 1
  36   19   20 ar
  37   19   36 1
  38   20   37 1
  39   21   22 1
  40   22   38 1
  41   22   39 1
  42   22   40 1

#	End of record

