#	Name: ASD01810503
#	Creating user name:	WinNT
#	Creation time:	15. 06. 2019 19:24

#	Modifying user name:	WinNT
#	Modification time:	15. 06. 2019 19:24

#	Program:	/corina/corina34_cracker 3.40 0067  02.08.2006

@<TRIPOS>MOLECULE
ASD01810503
  76   78    0    0    0
SMALL
NO_CHARGES


@<TRIPOS>ATOM
   1 C1             0.0100     1.4274    -0.0862 C.ar    
   2 C2             0.0121     0.0395    -0.0892 C.ar    
   3 C3             1.2005    -0.6637    -0.0670 C.ar    
   4 C4             2.4178     0.0167    -0.0411 C.ar    
   5 C5             2.4104     1.4210    -0.0493 C.ar    
   6 C6             1.1996     2.1204    -0.0665 C.ar    
   7 N7             3.5949    -0.7090     0.0021 N.3     
   8 C8             4.7509     0.0019    -0.5456 C.3     
   9 C9             4.9386     1.3310     0.2004 C.3     
  10 C10            3.6872     2.1539    -0.0492 C.2     
  11 C11            3.4295    -2.0193    -0.6412 C.3     
  12 C12            4.7847    -2.6058    -0.9422 C.ar    
  13 C13            5.4159    -3.4034    -0.0061 C.ar    
  14 C14            6.6590    -3.9414    -0.2822 C.ar    
  15 C15            7.2706    -3.6822    -1.4944 C.ar    
  16 C16            6.6389    -2.8853    -2.4309 C.ar    
  17 C17            5.3939    -2.3508    -2.1565 C.ar    
  18 F18            1.1839    -2.0146    -0.0698 F       
  19 Br19          -1.6296    -0.8985    -0.1235 Br      
  20 O20            3.7369     3.3512    -0.2388 O.2     
  21 C21            5.1008     1.0748     1.6765 C.2     
  22 N22            5.2794     2.1074     2.5241 N.am    
  23 O23            5.0706    -0.0606     2.1019 O.2     
  24 C24            6.3105     5.2887     9.0612 C.3     
  25 C25            6.4690     5.0385    10.5030 C.1     
  26 C26            6.5954     4.8389    11.6530 C.1     
  27 C27            6.7538     4.5887    13.0949 C.3     
  28 O28            6.9275     5.8319    13.7779 O.3     
  29 C29            7.0880     5.7782    15.1195 C.2     
  30 N30            7.0983     4.7156    15.8284 N.2     
  31 C31            7.2927     6.9690    16.0365 C.3     
  32 C32            7.0149     6.3662    17.4346 C.3     
  33 O33            7.2925     4.9682    17.2058 O.3     
  34 N34            6.1319     4.0107     8.3591 N.4     
  35 C35            7.3092     3.1609     8.5821 C.3     
  36 C36            4.9343     3.3329     8.8730 C.3     
  37 C37            5.4371     1.8584     3.9591 C.3     
  38 C38            5.6231     3.1895     4.6903 C.3     
  39 C39            5.7878     2.9294     6.1890 C.3     
  40 C40            5.9738     4.2604     6.9202 C.3     
  41 H41           -0.9266     1.9649    -0.1038 H       
  42 H42            1.1975     3.2004    -0.0647 H       
  43 H43            5.6443    -0.6109    -0.4256 H       
  44 H44            4.5867     0.2002    -1.6047 H       
  45 H45            5.8126     1.8551    -0.1862 H       
  46 H46            2.8853    -2.6862     0.0274 H       
  47 H47            2.8708    -1.9003    -1.5695 H       
  48 H48            4.9381    -3.6060     0.9410 H       
  49 H49            7.1525    -4.5640     0.4494 H       
  50 H50            8.2421    -4.1019    -1.7098 H       
  51 H51            7.1169    -2.6824    -3.3778 H       
  52 H52            4.9004    -1.7283    -2.8881 H       
  53 H53            5.3035     3.0155     2.1838 H       
  54 H54            5.4370     5.9193     8.8957 H       
  55 H55            7.1992     5.7917     8.6798 H       
  56 H56            5.8652     4.0858    13.4763 H       
  57 H57            7.6274     3.9581    13.2604 H       
  58 H58            8.3164     7.3373    15.9701 H       
  59 H59            6.5795     7.7609    15.8077 H       
  60 H60            7.6932     6.7805    18.1806 H       
  61 H61            5.9758     6.5183    17.7264 H       
  62 H62            8.1979     3.6638     8.2008 H       
  63 H63            7.4265     2.9756     9.6499 H       
  64 H64            7.1767     2.2126     8.0612 H       
  65 H65            4.8018     2.3847     8.3521 H       
  66 H66            5.0516     3.1476     9.9407 H       
  67 H67            4.0607     3.9635     8.7075 H       
  68 H68            4.5484     1.3555     4.3404 H       
  69 H69            6.3106     1.2278     4.1246 H       
  70 H70            6.5118     3.6924     4.3090 H       
  71 H71            4.7496     3.8201     4.5248 H       
  72 H72            4.8991     2.4264     6.5703 H       
  73 H73            6.6613     2.2988     6.3545 H       
  74 H74            5.1003     4.8910     6.7547 H       
  75 H75            6.8625     4.7634     6.5388 H       
  76 Br76          13.3164    12.7609    23.1806 Br      
@<TRIPOS>BOND
   1    1    2 ar
   2    1    6 ar
   3    1   41 1
   4    2    3 ar
   5    2   19 1
   6    3    4 ar
   7    3   18 1
   8    4    5 ar
   9    4    7 1
  10    5    6 ar
  11    5   10 1
  12    6   42 1
  13    7    8 1
  14    7   11 1
  15    8    9 1
  16    8   43 1
  17    8   44 1
  18    9   10 1
  19    9   21 1
  20    9   45 1
  21   10   20 2
  22   11   12 1
  23   11   46 1
  24   11   47 1
  25   12   13 ar
  26   12   17 ar
  27   13   14 ar
  28   13   48 1
  29   14   15 ar
  30   14   49 1
  31   15   16 ar
  32   15   50 1
  33   16   17 ar
  34   16   51 1
  35   17   52 1
  36   21   22 am
  37   21   23 2
  38   22   37 1
  39   22   53 1
  40   24   25 1
  41   24   34 1
  42   24   54 1
  43   24   55 1
  44   25   26 3
  45   26   27 1
  46   27   28 1
  47   27   56 1
  48   27   57 1
  49   28   29 1
  50   29   30 2
  51   29   31 1
  52   30   33 1
  53   31   32 1
  54   31   58 1
  55   31   59 1
  56   32   33 1
  57   32   60 1
  58   32   61 1
  59   34   40 1
  60   34   35 1
  61   34   36 1
  62   35   62 1
  63   35   63 1
  64   35   64 1
  65   36   65 1
  66   36   66 1
  67   36   67 1
  68   37   38 1
  69   37   68 1
  70   37   69 1
  71   38   39 1
  72   38   70 1
  73   38   71 1
  74   39   40 1
  75   39   72 1
  76   39   73 1
  77   40   74 1
  78   40   75 1

#	End of record

