#	Name: ASD00310045
#	Creating user name:	WinNT
#	Creation time:	15. 06. 2019 18:33

#	Modifying user name:	WinNT
#	Modification time:	15. 06. 2019 18:33

#	Program:	/corina/corina34_cracker 3.40 0067  02.08.2006

@<TRIPOS>MOLECULE
ASD00310045
  23   23    0    0    0
SMALL
NO_CHARGES


@<TRIPOS>ATOM
   1 C1            -0.0167     1.3792     0.0096 C.ar    
   2 C2             0.0021    -0.0041     0.0020 C.ar    
   3 C3             1.2071    -0.6794    -0.0132 C.ar    
   4 C4             2.3989     0.0305    -0.0208 C.ar    
   5 C5             2.3779     1.4176    -0.0131 C.ar    
   6 C6             1.1707     2.0891     0.0021 C.ar    
   7 O7             3.5856    -0.6320    -0.0353 O.3     
   8 C8             4.7727     0.1635    -0.0424 C.3     
   9 C9             5.9992    -0.7509    -0.0585 C.3     
  10 O10            6.0293    -1.4860    -1.2836 O.3     
  11 C11            7.1419    -2.3751    -1.4008 C.3     
  12 Br12          -1.6677     2.3010     0.0225 Br      
  13 H13           -0.9260    -0.5564     0.0083 H       
  14 H14            1.2213    -1.7593    -0.0187 H       
  15 H15            3.3046     1.9722    -0.0187 H       
  16 H16            1.1539     3.1689     0.0077 H       
  17 H17            4.7801     0.7971    -0.9293 H       
  18 H18            4.7968     0.7881     0.8506 H       
  19 H19            6.9032    -0.1478     0.0256 H       
  20 H20            5.9461    -1.4449     0.7803 H       
  21 H21            8.0696    -1.8056    -1.3446 H       
  22 H22            7.1125    -3.1027    -0.5898 H       
  23 H23            7.0922    -2.8951    -2.3575 H       
@<TRIPOS>BOND
   1    1    2 ar
   2    1    6 ar
   3    1   12 1
   4    2    3 ar
   5    2   13 1
   6    3    4 ar
   7    3   14 1
   8    4    5 ar
   9    4    7 1
  10    5    6 ar
  11    5   15 1
  12    6   16 1
  13    7    8 1
  14    8    9 1
  15    8   17 1
  16    8   18 1
  17    9   10 1
  18    9   19 1
  19    9   20 1
  20   10   11 1
  21   11   21 1
  22   11   22 1
  23   11   23 1

#	End of record

