#	Name: ASD01918044
#	Creating user name:	WinNT
#	Creation time:	15. 06. 2019 20:10

#	Modifying user name:	WinNT
#	Modification time:	15. 06. 2019 20:10

#	Program:	/corina/corina34_cracker 3.40 0067  02.08.2006

@<TRIPOS>MOLECULE
ASD01918044
  45   48    0    0    0
SMALL
NO_CHARGES


@<TRIPOS>ATOM
   1 N1             4.8262    -0.4051    -2.1383 N.ar    
   2 C2             5.2923     0.2905    -3.1563 C.ar    
   3 C3             5.1773     1.6733    -3.1845 C.ar    
   4 C4             4.5608     2.3225    -2.1213 C.ar    
   5 C5             4.0819     1.5530    -1.0665 C.ar    
   6 C6             4.2357     0.1746    -1.1122 C.ar    
   7 O7             3.4724     2.1431    -0.0050 O.3     
   8 C8             3.4499     3.5023     0.0441 C.2     
   9 N9             2.1949     5.5135    -0.0225 N.pl3   
  10 C10            2.2665     4.1538    -0.0660 C.2     
  11 C11            4.6506     4.2061     0.2134 C.2     
  12 C12            4.6244     5.5939     0.2631 C.2     
  13 C13            3.3311     6.2682     0.1352 C.2     
  14 C14            5.8647     6.3668     0.4402 C.2     
  15 N15            5.8191     7.7130     0.4860 N.am    
  16 C16            6.9754     8.4402     0.7587 C.ar    
  17 O17            6.9307     5.7905     0.5451 O.2     
  18 C18            1.1684     6.4046    -0.1049 C.2     
  19 N19            1.6811     7.6037    -0.0105 N.2     
  20 N20            2.9575     7.5323     0.1386 N.2     
  21 O21            5.6613     2.3832    -4.2375 O.3     
  22 N22            8.1361     7.8106     0.8646 N.ar    
  23 C23            6.9006     9.8188     0.9114 C.ar    
  24 C24            8.0564    10.5331     1.1825 C.ar    
  25 C25            9.2520     9.8416     1.2922 C.ar    
  26 C26            9.2571     8.4638     1.1227 C.ar    
  27 C27            6.2813     1.6415    -5.2899 C.3     
  28 O28           10.4244     7.7797     1.2233 O.3     
  29 C29           10.3645     6.3638     1.0394 C.3     
  30 H30            5.7699    -0.2219    -3.9784 H       
  31 H31            4.4567     3.3974    -2.1143 H       
  32 H32            3.8667    -0.4306    -0.2973 H       
  33 H33            1.3591     3.5816    -0.1914 H       
  34 H34            5.5863     3.6746     0.3046 H       
  35 H35            4.9810     8.1755     0.3290 H       
  36 H36            0.1231     6.1651    -0.2333 H       
  37 H37            5.9526    10.3280     0.8194 H       
  38 H38            8.0260    11.6056     1.3054 H       
  39 H39           10.1706    10.3693     1.5025 H       
  40 H40            7.1331     1.0896    -4.8925 H       
  41 H41            5.5612     0.9420    -5.7145 H       
  42 H42            6.6226     2.3272    -6.0655 H       
  43 H43            9.7039     5.9277     1.7888 H       
  44 H44            9.9803     6.1427     0.0436 H       
  45 H45           11.3635     5.9410     1.1456 H       
@<TRIPOS>BOND
   1    1    2 ar
   2    1    6 ar
   3    2    3 ar
   4    2   30 1
   5    3    4 ar
   6    3   21 1
   7    4    5 ar
   8    4   31 1
   9    5    6 ar
  10    5    7 1
  11    6   32 1
  12    7    8 1
  13    8   11 1
  14    8   10 2
  15    9   10 1
  16    9   18 1
  17    9   13 1
  18   10   33 1
  19   11   12 2
  20   11   34 1
  21   12   13 1
  22   12   14 1
  23   13   20 2
  24   14   15 am
  25   14   17 2
  26   15   16 1
  27   15   35 1
  28   16   23 ar
  29   16   22 ar
  30   18   19 2
  31   18   36 1
  32   19   20 1
  33   21   27 1
  34   22   26 ar
  35   23   24 ar
  36   23   37 1
  37   24   25 ar
  38   24   38 1
  39   25   26 ar
  40   25   39 1
  41   26   28 1
  42   27   40 1
  43   27   41 1
  44   27   42 1
  45   28   29 1
  46   29   43 1
  47   29   44 1
  48   29   45 1

#	End of record

