#	Name: ASD01150335
#	Creating user name:	WinNT
#	Creation time:	15. 06. 2019 19:04

#	Modifying user name:	WinNT
#	Modification time:	15. 06. 2019 19:04

#	Program:	/corina/corina34_cracker 3.40 0067  02.08.2006

@<TRIPOS>MOLECULE
ASD01150335
  66   69    0    0    0
SMALL
NO_CHARGES


@<TRIPOS>ATOM
   1 N1            -0.0850     1.0814     1.8349 N.pl3   
   2 C2            -0.0494    -0.2395     1.3818 C.2     
   3 C3            -1.3702    -0.5972     1.1404 C.2     
   4 N4            -2.1383     0.4552     1.4355 N.2     
   5 C5            -1.3919     1.4557     1.8540 C.2     
   6 C6             1.0934    -1.0451     1.2051 C.2     
   7 C7             1.0142     1.8673     2.2045 C.ar    
   8 C8             1.3397     2.9985     1.4679 C.ar    
   9 C9             2.4238     3.7715     1.8350 C.ar    
  10 C10            3.1847     3.4200     2.9349 C.ar    
  11 C11            2.8634     2.2938     3.6701 C.ar    
  12 C12            1.7771     1.5198     3.3114 C.ar    
  13 N13           -1.8602     2.6903     2.2405 N.3     
  14 C14           -3.3232     2.7576     2.1266 C.3     
  15 C15           -1.4229     3.0158     3.6046 C.3     
  16 O16            0.9763    -2.1876     0.8000 O.2     
  17 O17            2.3183    -0.5501     1.4849 O.3     
  18 C18            3.4322    -1.4221     1.2826 C.3     
  19 C19            3.4864    -1.8479    -0.1860 C.3     
  20 C20            4.7252    -0.6914     1.6498 C.3     
  21 C21            3.2774    -2.6608     2.1673 C.3     
  22 N22           -1.8129    -1.8293     0.6746 N.am    
  23 C23           -3.1296    -2.0438     0.4831 C.2     
  24 O24           -3.9301    -1.1593     0.7180 O.2     
  25 C25           -3.5994    -3.3514    -0.0112 C.ar    
  26 C26           -2.6889    -4.3784    -0.2856 C.ar    
  27 C27           -3.1808    -5.5865    -0.7476 C.ar    
  28 C28           -4.5438    -5.7437    -0.9234 C.ar    
  29 N29           -5.3844    -4.7622    -0.6590 N.ar    
  30 C30           -4.9682    -3.5904    -0.2096 C.ar    
  31 O31           -5.8669    -2.6109     0.0491 O.3     
  32 C32           -7.1878    -2.9142    -0.0514 C.ar    
  33 C33           -7.8137    -3.6356     0.9551 C.ar    
  34 C34           -9.1564    -3.9426     0.8506 C.ar    
  35 C35           -9.8766    -3.5322    -0.2561 C.ar    
  36 C36           -9.2552    -2.8136    -1.2608 C.ar    
  37 C37           -7.9142    -2.4983    -1.1579 C.ar    
  38 H38            0.7460     3.2733     0.6086 H       
  39 H39            2.6776     4.6513     1.2623 H       
  40 H40            4.0319     4.0261     3.2200 H       
  41 H41            3.4600     2.0214     4.5282 H       
  42 H42            1.5265     0.6405     3.8862 H       
  43 H43           -3.7728     1.9976     2.7655 H       
  44 H44           -3.6669     3.7440     2.4382 H       
  45 H45           -3.6156     2.5814     1.0914 H       
  46 H46           -0.3337     3.0272     3.6440 H       
  47 H47           -1.8069     3.9966     3.8849 H       
  48 H48           -1.8036     2.2651     4.2971 H       
  49 H49            3.5967    -0.9655    -0.8163 H       
  50 H50            4.3360    -2.5131    -0.3403 H       
  51 H51            2.5652    -2.3685    -0.4476 H       
  52 H52            4.6866    -0.3881     2.6961 H       
  53 H53            5.5748    -1.3566     1.4955 H       
  54 H54            4.8355     0.1910     1.0195 H       
  55 H55            2.3562    -3.1813     1.9056 H       
  56 H56            4.1270    -3.3259     2.0130 H       
  57 H57            3.2387    -2.3575     3.2135 H       
  58 H58           -1.1742    -2.5349     0.4873 H       
  59 H59           -1.6288    -4.2315    -0.1408 H       
  60 H60           -2.5059    -6.4000    -0.9694 H       
  61 H61           -4.9266    -6.6870    -1.2840 H       
  62 H62           -7.2515    -3.9570     1.8194 H       
  63 H63           -9.6441    -4.5041     1.6338 H       
  64 H64          -10.9262    -3.7736    -0.3361 H       
  65 H65           -9.8198    -2.4945    -2.1243 H       
  66 H66           -7.4292    -1.9369    -1.9429 H       
@<TRIPOS>BOND
   1    1    2 1
   2    1    7 1
   3    1    5 1
   4    2    3 2
   5    2    6 1
   6    3    4 1
   7    3   22 1
   8    4    5 2
   9    5   13 1
  10    6   16 2
  11    6   17 1
  12    7    8 ar
  13    7   12 ar
  14    8    9 ar
  15    8   38 1
  16    9   10 ar
  17    9   39 1
  18   10   11 ar
  19   10   40 1
  20   11   12 ar
  21   11   41 1
  22   12   42 1
  23   13   14 1
  24   13   15 1
  25   14   43 1
  26   14   44 1
  27   14   45 1
  28   15   46 1
  29   15   47 1
  30   15   48 1
  31   17   18 1
  32   18   19 1
  33   18   20 1
  34   18   21 1
  35   19   49 1
  36   19   50 1
  37   19   51 1
  38   20   52 1
  39   20   53 1
  40   20   54 1
  41   21   55 1
  42   21   56 1
  43   21   57 1
  44   22   23 am
  45   22   58 1
  46   23   24 2
  47   23   25 1
  48   25   26 ar
  49   25   30 ar
  50   26   27 ar
  51   26   59 1
  52   27   28 ar
  53   27   60 1
  54   28   29 ar
  55   28   61 1
  56   29   30 ar
  57   30   31 1
  58   31   32 1
  59   32   33 ar
  60   32   37 ar
  61   33   34 ar
  62   33   62 1
  63   34   35 ar
  64   34   63 1
  65   35   36 ar
  66   35   64 1
  67   36   37 ar
  68   36   65 1
  69   37   66 1

#	End of record

