#	Name: ASD01820111
#	Creating user name:	WinNT
#	Creation time:	15. 06. 2019 19:36

#	Modifying user name:	WinNT
#	Modification time:	15. 06. 2019 19:36

#	Program:	/corina/corina34_cracker 3.40 0067  02.08.2006

@<TRIPOS>MOLECULE
ASD01820111
  58   61    0    0    0
SMALL
NO_CHARGES


@<TRIPOS>ATOM
   1 C1             0.0004     1.5092    -0.0232 C.3     
   2 C2             0.0054    -0.0208    -0.0187 C.3     
   3 C3            -1.4352    -0.5353     0.0126 C.3     
   4 N4            -2.1171    -0.1536    -1.2265 N.am    
   5 C5            -2.6902     1.0616    -1.3335 C.2     
   6 O6            -2.7293     1.8026    -0.3696 O.2     
   7 C7            -3.2685     1.4918    -2.6161 C.2     
   8 C8            -3.9544     2.6842    -2.7120 C.2     
   9 N9            -4.4953     3.1083    -3.8644 N.pl3   
  10 C10           -4.4098     2.3925    -5.0374 C.ar    
  11 N11           -4.9633     2.8593    -6.1498 N.ar    
  12 C12           -4.8950     2.1916    -7.2890 C.ar    
  13 C13           -4.2377     0.9643    -7.3755 C.ar    
  14 C14           -3.6490     0.4367    -6.2571 C.ar    
  15 C15           -3.7333     1.1598    -5.0626 C.ar    
  16 C16           -3.1201     0.6599    -3.8218 C.2     
  17 O17           -2.5187    -0.4000    -3.7924 O.2     
  18 N18           -5.4919     2.7243    -8.4255 N.am    
  19 C19           -6.2048     4.0066    -8.4628 C.3     
  20 C20           -6.3011     4.3813    -9.9584 C.3     
  21 H21           -7.2509     4.8688   -10.1780 H       
  22 O22           -5.2027     5.2071   -10.3504 O.3     
  23 C23           -6.2212     2.9940   -10.6368 C.3     
  24 C24           -5.4855     2.1339    -9.6331 C.2     
  25 O25           -4.9675     1.0658    -9.8813 O.2     
  26 C26           -5.1775     4.3331    -3.8744 C.ar    
  27 C27           -6.5401     4.3736    -3.6019 C.ar    
  28 F28           -7.2088     3.2325    -3.3266 F       
  29 C29           -7.2105     5.5835    -3.6125 C.ar    
  30 C30           -6.5257     6.7535    -3.8946 C.ar    
  31 F31           -7.1832     7.9337    -3.9047 F       
  32 C32           -5.1683     6.7164    -4.1659 C.ar    
  33 C33           -4.4915     5.5101    -4.1511 C.ar    
  34 F34           -3.1662     5.4752    -4.4109 F       
  35 C35           -1.4295    -2.0598     0.1428 C.3     
  36 F36           -0.7583    -2.6186    -0.9501 F       
  37 F37           -0.7783    -2.4243     1.3261 F       
  38 C38           -2.8700    -2.5743     0.1741 C.3     
  39 F39           -3.5212    -2.2098    -1.0092 F       
  40 F40           -2.8648    -3.9683     0.2931 F       
  41 F41           -3.5412    -2.0155     1.2670 F       
  42 H42            1.0267     1.8758    -0.0454 H       
  43 H43           -0.5328     1.8683    -0.9034 H       
  44 H44           -0.4961     1.8736     0.8762 H       
  45 H45            0.5019    -0.3851    -0.9180 H       
  46 H46            0.5386    -0.3798     0.8616 H       
  47 H47           -1.9581    -0.0999     0.8641 H       
  48 H48           -2.1562    -0.7754    -1.9700 H       
  49 H49           -4.0601     3.2975    -1.8293 H       
  50 H50           -4.1937     0.4347    -8.3157 H       
  51 H51           -3.1340    -0.5118    -6.2963 H       
  52 H52           -7.2020     3.8963    -8.0367 H       
  53 H53           -5.6433     4.7662    -7.9190 H       
  54 H54           -5.2195     5.4682   -11.2813 H       
  55 H55           -7.2212     2.6014   -10.8210 H       
  56 H56           -5.6574     3.0564   -11.5675 H       
  57 H57           -8.2691     5.6156    -3.4009 H       
  58 H58           -4.6369     7.6305    -4.3856 H       
@<TRIPOS>BOND
   1    1    2 1
   2    1   42 1
   3    1   43 1
   4    1   44 1
   5    2    3 1
   6    2   45 1
   7    2   46 1
   8    3    4 1
   9    3   35 1
  10    3   47 1
  11    4    5 am
  12    4   48 1
  13    5    6 2
  14    5    7 1
  15    7   16 1
  16    7    8 2
  17    8    9 1
  18    8   49 1
  19    9   10 1
  20    9   26 1
  21   10   15 ar
  22   10   11 ar
  23   11   12 ar
  24   12   13 ar
  25   12   18 1
  26   13   14 ar
  27   13   50 1
  28   14   15 ar
  29   14   51 1
  30   15   16 1
  31   16   17 2
  32   18   24 am
  33   18   19 1
  34   19   20 1
  35   19   52 1
  36   19   53 1
  37   20   21 1
  38   20   22 1
  39   20   23 1
  40   22   54 1
  41   23   24 1
  42   23   55 1
  43   23   56 1
  44   24   25 2
  45   26   33 ar
  46   26   27 ar
  47   27   28 1
  48   27   29 ar
  49   29   30 ar
  50   29   57 1
  51   30   31 1
  52   30   32 ar
  53   32   33 ar
  54   32   58 1
  55   33   34 1
  56   35   36 1
  57   35   37 1
  58   35   38 1
  59   38   39 1
  60   38   40 1
  61   38   41 1

#	End of record

