#	Name: ASD04880401
#	Creating user name:	WinNT
#	Creation time:	15. 06. 2019 20:53

#	Modifying user name:	WinNT
#	Modification time:	15. 06. 2019 20:53

#	Program:	/corina/corina34_cracker 3.40 0067  02.08.2006

@<TRIPOS>MOLECULE
ASD04880401
  37   40    0    0    0
SMALL
NO_CHARGES


@<TRIPOS>ATOM
   1 C1            -0.0144     1.2118     0.0087 C.2     
   2 O2             0.0435    -0.0026     0.0315 O.2     
   3 N3             1.1186     1.9395    -0.0483 N.am    
   4 N4             1.1863     3.3239    -0.1910 N.2     
   5 C5             2.3863     3.7920    -0.2200 C.2     
   6 C6             3.3750     2.6559    -0.0857 C.3     
   7 C7             2.4860     1.4025     0.0364 C.3     
   8 N8             3.4828     9.2619    -0.7721 N.pl3   
   9 C9             2.2103     9.7593    -0.8450 C.2     
  10 C10            1.3211     8.7579    -0.7553 C.2     
  11 C11            2.0876     7.5170    -0.6132 C.ar    
  12 C12            1.7382     6.1743    -0.4785 C.ar    
  13 C13            2.7408     5.2162    -0.3626 C.ar    
  14 C14            4.0882     5.6045    -0.3808 C.ar    
  15 C15            4.4316     6.9178    -0.5120 C.ar    
  16 C16            3.4442     7.8931    -0.6300 C.ar    
  17 C17           -1.3274     1.8896     0.0373 C.ar    
  18 C18           -2.5036     1.1433    -0.0542 C.ar    
  19 C19           -3.7276     1.7836    -0.0268 C.ar    
  20 C20           -3.7877     3.1632     0.0912 C.ar    
  21 C21           -2.6249     3.9066     0.1817 C.ar    
  22 C22           -1.3967     3.2782     0.1617 C.ar    
  23 F23           -4.8675     1.0639    -0.1156 F       
  24 H24            4.0094     2.5947    -0.9699 H       
  25 H25            3.9801     2.7799     0.8124 H       
  26 H26            2.6454     0.9086     0.9950 H       
  27 H27            2.6799     0.7153    -0.7872 H       
  28 H28            4.2923     9.7943    -0.8178 H       
  29 H29            1.9585    10.8035    -0.9577 H       
  30 H30            0.2453     8.8494    -0.7820 H       
  31 H31            0.6991     5.8803    -0.4635 H       
  32 H32            4.8615     4.8562    -0.2896 H       
  33 H33            5.4733     7.2027    -0.5242 H       
  34 H34           -2.4569     0.0682    -0.1465 H       
  35 H35           -4.7465     3.6599     0.1122 H       
  36 H36           -2.6785     4.9814     0.2727 H       
  37 H37           -0.4901     3.8602     0.2377 H       
@<TRIPOS>BOND
   1    1    2 2
   2    1    3 am
   3    1   17 1
   4    3    4 1
   5    3    7 1
   6    4    5 2
   7    5    6 1
   8    5   13 1
   9    6    7 1
  10    6   24 1
  11    6   25 1
  12    7   26 1
  13    7   27 1
  14    8    9 1
  15    8   16 1
  16    8   28 1
  17    9   10 2
  18    9   29 1
  19   10   11 1
  20   10   30 1
  21   11   12 ar
  22   11   16 ar
  23   12   13 ar
  24   12   31 1
  25   13   14 ar
  26   14   15 ar
  27   14   32 1
  28   15   16 ar
  29   15   33 1
  30   17   18 ar
  31   17   22 ar
  32   18   19 ar
  33   18   34 1
  34   19   20 ar
  35   19   23 1
  36   20   21 ar
  37   20   35 1
  38   21   22 ar
  39   21   36 1
  40   22   37 1

#	End of record

