#	Name: ASD06710062
#	Creating user name:	WinNT
#	Creation time:	15. 06. 2019 21:08

#	Modifying user name:	WinNT
#	Modification time:	15. 06. 2019 21:08

#	Program:	/corina/corina34_cracker 3.40 0067  02.08.2006

@<TRIPOS>MOLECULE
ASD06710062
  42   42    0    0    0
SMALL
NO_CHARGES


@<TRIPOS>ATOM
   1 C1             1.2237    -0.6142     0.5288 C.2     
   2 C2            -0.0691    -0.0489    -0.0005 C.3     
   3 C3            -0.0340     1.4779     0.0925 C.3     
   4 O4             2.1248    -0.8766    -0.2322 O.2     
   5 O5             1.3762    -0.8212     1.8462 O.3     
   6 C6            -0.2483    -0.4669    -1.4613 C.3     
   7 N7            -1.1878    -0.5610     0.7948 N.pl3   
   8 C8            -1.4191    -1.9301     0.8686 C.ar    
   9 C9            -2.5645    -2.4072     1.4977 C.ar    
  10 C10           -2.7941    -3.7657     1.5711 C.ar    
  11 C11           -1.8707    -4.6578     1.0105 C.ar    
  12 C12           -0.7232    -4.1661     0.3808 C.ar    
  13 C13           -0.5063    -2.8197     0.3075 C.ar    
  14 F14           -3.9047    -4.2338     2.1814 F       
  15 C15           -2.1078    -6.1104     1.0848 C.2     
  16 N16           -1.2183    -6.9669     0.5449 N.am    
  17 O17           -3.1063    -6.5362     1.6332 O.2     
  18 C18           -1.4541    -8.4109     0.6187 C.3     
  19 C19           -2.7686    -8.7498    -0.0870 C.3     
  20 C20           -0.3027    -9.1513    -0.0648 C.3     
  21 C21           -1.5371    -8.8398     2.0850 C.3     
  22 H22            0.8476     1.8534    -0.4271 H       
  23 H23           -0.9311     1.8907    -0.3689 H       
  24 H24            0.0066     1.7773     1.1398 H       
  25 H25            2.2231    -1.1854     2.1383 H       
  26 H26           -0.1741    -1.5514    -1.5406 H       
  27 H27           -1.2273    -0.1429    -1.8144 H       
  28 H28            0.5288    -0.0041    -2.0696 H       
  29 H29           -1.7672     0.0551     1.2698 H       
  30 H30           -3.2728    -1.7151     1.9285 H       
  31 H31           -0.0097    -4.8517    -0.0518 H       
  32 H32            0.3788    -2.4436    -0.1838 H       
  33 H33           -0.4219    -6.6273     0.1074 H       
  34 H34           -2.7095    -8.4442    -1.1316 H       
  35 H35           -2.9441    -9.8242    -0.0321 H       
  36 H36           -3.5889    -8.2223     0.4000 H       
  37 H37            0.6338    -8.9099     0.4379 H       
  38 H38           -0.4782   -10.2257    -0.0099 H       
  39 H39           -0.2436    -8.8457    -1.1095 H       
  40 H40           -2.3573    -8.3124     2.5720 H       
  41 H41           -1.7125    -9.9142     2.1399 H       
  42 H42           -0.6006    -8.5984     2.5877 H       
@<TRIPOS>BOND
   1    1    2 1
   2    1    4 2
   3    1    5 1
   4    2    3 1
   5    2    6 1
   6    2    7 1
   7    3   22 1
   8    3   23 1
   9    3   24 1
  10    5   25 1
  11    6   26 1
  12    6   27 1
  13    6   28 1
  14    7    8 1
  15    7   29 1
  16    8    9 ar
  17    8   13 ar
  18    9   10 ar
  19    9   30 1
  20   10   11 ar
  21   10   14 1
  22   11   12 ar
  23   11   15 1
  24   12   13 ar
  25   12   31 1
  26   13   32 1
  27   15   16 am
  28   15   17 2
  29   16   18 1
  30   16   33 1
  31   18   19 1
  32   18   21 1
  33   18   20 1
  34   19   34 1
  35   19   35 1
  36   19   36 1
  37   20   37 1
  38   20   38 1
  39   20   39 1
  40   21   40 1
  41   21   41 1
  42   21   42 1

#	End of record

