#	Name: ASD01815854
#	Creating user name:	WinNT
#	Creation time:	15. 06. 2019 19:34

#	Modifying user name:	WinNT
#	Modification time:	15. 06. 2019 19:34

#	Program:	/corina/corina34_cracker 3.40 0067  02.08.2006

@<TRIPOS>MOLECULE
ASD01815854
  55   60    0    0    0
SMALL
NO_CHARGES


@<TRIPOS>ATOM
   1 C1             0.1744     1.0572    -0.0445 C.ar    
   2 C2             0.2907    -0.3170     0.1141 C.ar    
   3 C3            -0.8412    -1.1094     0.1160 C.ar    
   4 C4            -2.0895    -0.5361    -0.0403 C.ar    
   5 C5            -2.2109     0.8326    -0.1986 C.ar    
   6 C6            -1.0833     1.6326    -0.1958 C.ar    
   7 F7            -1.2016     2.9695    -0.3500 F       
   8 N8             1.3197     1.8629    -0.0463 N.am    
   9 C9             2.0881     2.1090    -1.1300 C.2     
  10 N10            1.8268     2.5316     1.0715 N.2     
  11 C11            2.9040     3.2043     0.7636 C.2     
  12 C12            3.1601     2.9869    -0.6767 C.2     
  13 O13            1.9190     1.6819    -2.2611 O.2     
  14 C14            3.8366     4.0692     1.5037 C.2     
  15 C15            4.8710     4.6061     0.8442 C.2     
  16 N16            5.0561     4.3653    -0.4983 N.pl3   
  17 C17            4.2512     3.5970    -1.2428 C.2     
  18 C18            6.2049     4.9934    -1.1555 C.3     
  19 C19            7.3661     4.0329    -1.1634 C.ar    
  20 C20            7.4642     3.0771    -2.1579 C.ar    
  21 C21            8.5271     2.1951    -2.1676 C.ar    
  22 C22            9.4978     2.2691    -1.1777 C.ar    
  23 C23            9.3968     3.2301    -0.1807 C.ar    
  24 C24            8.3343     4.1127    -0.1794 C.ar    
  25 N25           10.5775     1.3750    -1.1845 N.pl3   
  26 C26           11.5862     1.3384    -0.2847 C.2     
  27 C27           12.4213     0.3358    -0.6429 C.2     
  28 C28           11.9071    -0.2606    -1.7995 C.2     
  29 N29           10.7993     0.3574    -2.1213 N.2     
  30 C30            3.5683     4.3098     2.9640 C.3     
  31 C31            4.8140     4.8497     3.6635 C.3     
  32 C32            5.3468     6.0304     2.8421 C.3     
  33 C33            5.8902     5.4879     1.5231 C.3     
  34 H34            1.2652    -0.7664     0.2356 H       
  35 H35           -0.7505    -2.1784     0.2393 H       
  36 H36           -2.9721    -1.1586    -0.0391 H       
  37 H37           -3.1876     1.2771    -0.3204 H       
  38 H38            4.4633     3.4541    -2.2920 H       
  39 H39            5.9403     5.2520    -2.1808 H       
  40 H40            6.4844     5.8968    -0.6135 H       
  41 H41            6.7089     3.0200    -2.9277 H       
  42 H42            8.6028     1.4484    -2.9441 H       
  43 H43           10.1501     3.2899     0.5908 H       
  44 H44            8.2552     4.8604     0.5959 H       
  45 H45           11.7044     1.9924     0.5667 H       
  46 H46           13.3252     0.0469    -0.1272 H       
  47 H47           12.3464    -1.0910    -2.3323 H       
  48 H48            2.7585     5.0324     3.0655 H       
  49 H49            3.2717     3.3718     3.4334 H       
  50 H50            4.5557     5.1864     4.6675 H       
  51 H51            5.5721     4.0686     3.7201 H       
  52 H52            4.5391     6.7353     2.6448 H       
  53 H53            6.1453     6.5296     3.3911 H       
  54 H54            6.7924     4.9082     1.7184 H       
  55 H55            6.1364     6.3223     0.8664 H       
@<TRIPOS>BOND
   1    1    2 ar
   2    1    8 1
   3    1    6 ar
   4    2    3 ar
   5    2   34 1
   6    3    4 ar
   7    3   35 1
   8    4    5 ar
   9    4   36 1
  10    5    6 ar
  11    5   37 1
  12    6    7 1
  13    8    9 am
  14    8   10 1
  15    9   13 2
  16    9   12 1
  17   10   11 2
  18   11   12 1
  19   11   14 1
  20   12   17 2
  21   14   15 2
  22   14   30 1
  23   15   16 1
  24   15   33 1
  25   16   17 1
  26   16   18 1
  27   17   38 1
  28   18   19 1
  29   18   39 1
  30   18   40 1
  31   19   20 ar
  32   19   24 ar
  33   20   21 ar
  34   20   41 1
  35   21   22 ar
  36   21   42 1
  37   22   23 ar
  38   22   25 1
  39   23   24 ar
  40   23   43 1
  41   24   44 1
  42   25   26 1
  43   25   29 1
  44   26   27 2
  45   26   45 1
  46   27   28 1
  47   27   46 1
  48   28   29 2
  49   28   47 1
  50   30   31 1
  51   30   48 1
  52   30   49 1
  53   31   32 1
  54   31   50 1
  55   31   51 1
  56   32   33 1
  57   32   52 1
  58   32   53 1
  59   33   54 1
  60   33   55 1

#	End of record

