#	Name: ASD02690050
#	Creating user name:	WinNT
#	Creation time:	15. 06. 2019 20:26

#	Modifying user name:	WinNT
#	Modification time:	15. 06. 2019 20:26

#	Program:	/corina/corina34_cracker 3.40 0067  02.08.2006

@<TRIPOS>MOLECULE
ASD02690050
  43   43    0    0    0
SMALL
NO_CHARGES


@<TRIPOS>ATOM
   1 N1            -0.0582     1.5128    -0.0094 N.am    
   2 C2             0.0925     0.0542    -0.1021 C.3     
   3 C3             0.9390    -0.4301     1.0794 C.3     
   4 C4             2.2623     0.3383     1.1025 C.3     
   5 C5             1.9838     1.8317     1.2879 C.3     
   6 C6             1.1492     2.3416     0.1089 C.3     
   7 C7            -1.2804     2.0800    -0.0379 C.2     
   8 O8            -2.2710     1.3839    -0.1411 O.2     
   9 O9            -1.4038     3.4180     0.0479 O.3     
  10 C10            3.1119    -0.1594     2.2433 C.2     
  11 N11            4.4481     0.0149     2.2144 N.am    
  12 O12            2.5933    -0.7167     3.1875 O.2     
  13 C13            5.0842     0.6074     1.0352 C.3     
  14 O14            5.2370    -0.3748     3.3238 O.3     
  15 C15            5.8011    -1.6824     3.2053 C.3     
  16 C16           -2.7505     3.9595     0.0107 C.3     
  17 C17           -3.5593     3.3962     1.1809 C.3     
  18 C18           -2.6902     5.4845     0.1197 C.3     
  19 C19           -3.4211     3.5686    -1.3078 C.3     
  20 H20           -0.8894    -0.4176    -0.0658 H       
  21 H21            0.5895    -0.2031    -1.0374 H       
  22 H22            0.3995    -0.2537     2.0099 H       
  23 H23            1.1391    -1.4960     0.9708 H       
  24 H24            2.7899     0.1813     0.1617 H       
  25 H25            1.4345     1.9868     2.2165 H       
  26 H26            2.9276     2.3756     1.3278 H       
  27 H27            1.7323     2.2709    -0.8093 H       
  28 H28            0.8645     3.3791     0.2843 H       
  29 H29            5.1287     1.6902     1.1520 H       
  30 H30            6.0942     0.2114     0.9297 H       
  31 H31            4.5028     0.3614     0.1466 H       
  32 H32            6.5034    -1.7009     2.3719 H       
  33 H33            6.3242    -1.9374     4.1269 H       
  34 H34            5.0060    -2.4062     3.0265 H       
  35 H35           -3.0815     3.6747     2.1202 H       
  36 H36           -4.5702     3.8027     1.1530 H       
  37 H37           -3.6023     2.3098     1.1033 H       
  38 H38           -2.1140     5.8858    -0.7140 H       
  39 H39           -3.7011     5.8910     0.0917 H       
  40 H40           -2.2124     5.7630     1.0590 H       
  41 H41           -3.4641     2.4822    -1.3854 H       
  42 H42           -4.4321     3.9751    -1.3357 H       
  43 H43           -2.8450     3.9699    -2.1415 H       
@<TRIPOS>BOND
   1    1    2 1
   2    1    6 1
   3    1    7 am
   4    2    3 1
   5    2   20 1
   6    2   21 1
   7    3    4 1
   8    3   22 1
   9    3   23 1
  10    4    5 1
  11    4   10 1
  12    4   24 1
  13    5    6 1
  14    5   25 1
  15    5   26 1
  16    6   27 1
  17    6   28 1
  18    7    8 2
  19    7    9 1
  20    9   16 1
  21   10   11 am
  22   10   12 2
  23   11   13 1
  24   11   14 1
  25   13   29 1
  26   13   30 1
  27   13   31 1
  28   14   15 1
  29   15   32 1
  30   15   33 1
  31   15   34 1
  32   16   17 1
  33   16   19 1
  34   16   18 1
  35   17   35 1
  36   17   36 1
  37   17   37 1
  38   18   38 1
  39   18   39 1
  40   18   40 1
  41   19   41 1
  42   19   42 1
  43   19   43 1

#	End of record

