#	Name: ASD01150937
#	Creating user name:	WinNT
#	Creation time:	15. 06. 2019 19:05

#	Modifying user name:	WinNT
#	Modification time:	15. 06. 2019 19:05

#	Program:	/corina/corina34_cracker 3.40 0067  02.08.2006

@<TRIPOS>MOLECULE
ASD01150937
  41   42    0    0    0
SMALL
NO_CHARGES


@<TRIPOS>ATOM
   1 N1            -0.0167     1.3818     0.0096 N.pl3   
   2 C2             0.0021    -0.0041     0.0020 C.2     
   3 N3             1.0917    -0.7762    -0.0121 N.2     
   4 C4             0.7459    -2.0474    -0.0158 C.2     
   5 N5            -0.6113    -2.1455    -0.0039 N.pl3   
   6 C6            -1.1105    -0.8389     0.0137 C.2     
   7 C7            -2.4621    -0.4487     0.0304 C.2     
   8 O8            -3.4355    -1.3852     0.0303 O.3     
   9 O9            -2.7545     0.7337     0.0448 O.2     
  10 C10           -4.7857    -0.9176     0.0477 C.3     
  11 C11           -5.6833    -1.9239    -0.6751 C.3     
  12 S12            1.8655    -3.4078    -0.0338 S.3     
  13 C13            3.4415    -2.5177    -0.0431 C.3     
  14 C14           -1.3634    -3.3271    -0.0034 C.ar    
  15 C15           -1.2991    -4.1924     1.0807 C.ar    
  16 C16           -2.0423    -5.3565     1.0784 C.ar    
  17 C17           -2.8499    -5.6608    -0.0020 C.ar    
  18 C18           -2.9161    -4.8012    -1.0832 C.ar    
  19 C19           -2.1794    -3.6329    -1.0846 C.ar    
  20 O20           -5.7001    -3.1546     0.0510 O.3     
  21 C21           -5.2539    -0.7650     1.4963 C.3     
  22 C22           -6.5139    -4.1684    -0.5423 C.3     
  23 H23            0.8166     1.8782     0.0043 H       
  24 H24           -0.8633     1.8554     0.0162 H       
  25 H25           -4.8425     0.0473    -0.4561 H       
  26 H26           -6.6962    -1.5264    -0.7398 H       
  27 H27           -5.2971    -2.0997    -1.6791 H       
  28 H28            3.4971    -1.8865    -0.9300 H       
  29 H29            3.5133    -1.8967     0.8499 H       
  30 H30            4.2632    -3.2338    -0.0547 H       
  31 H31           -0.6682    -3.9555     1.9247 H       
  32 H32           -1.9924    -6.0300     1.9212 H       
  33 H33           -3.4298    -6.5719    -0.0016 H       
  34 H34           -3.5475    -5.0418    -1.9257 H       
  35 H35           -2.2315    -2.9620    -1.9293 H       
  36 H36           -4.6144    -0.0480     2.0112 H       
  37 H37           -6.2838    -0.4083     1.5096 H       
  38 H38           -5.1971    -1.7299     2.0001 H       
  39 H39           -7.5440    -3.8175    -0.6043 H       
  40 H40           -6.1449    -4.3907    -1.5436 H       
  41 H41           -6.4734    -5.0704     0.0683 H       
@<TRIPOS>BOND
   1    1    2 1
   2    1   23 1
   3    1   24 1
   4    2    3 1
   5    2    6 2
   6    3    4 2
   7    4    5 1
   8    4   12 1
   9    5    6 1
  10    5   14 1
  11    6    7 1
  12    7    8 1
  13    7    9 2
  14    8   10 1
  15   10   11 1
  16   10   21 1
  17   10   25 1
  18   11   20 1
  19   11   26 1
  20   11   27 1
  21   12   13 1
  22   13   28 1
  23   13   29 1
  24   13   30 1
  25   14   15 ar
  26   14   19 ar
  27   15   16 ar
  28   15   31 1
  29   16   17 ar
  30   16   32 1
  31   17   18 ar
  32   17   33 1
  33   18   19 ar
  34   18   34 1
  35   19   35 1
  36   20   22 1
  37   21   36 1
  38   21   37 1
  39   21   38 1
  40   22   39 1
  41   22   40 1
  42   22   41 1

#	End of record

