#	Name: ASD01120296
#	Creating user name:	WinNT
#	Creation time:	15. 06. 2019 18:59

#	Modifying user name:	WinNT
#	Modification time:	15. 06. 2019 18:59

#	Program:	/corina/corina34_cracker 3.40 0067  02.08.2006

@<TRIPOS>MOLECULE
ASD01120296
  33   35    0    0    0
SMALL
NO_CHARGES


@<TRIPOS>ATOM
   1 O1            -0.1250     0.5288    -2.2264 O.2     
   2 N2            -0.1434     1.6898    -1.8587 N.pl3   
   3 O3             0.8723     2.3602    -1.9073 O.2     
   4 C4            -1.4018     2.2879    -1.3583 C.ar    
   5 C5            -2.5514     1.5300    -1.3093 C.ar    
   6 C6            -3.7397     2.0729    -0.8436 C.ar    
   7 C7            -3.7889     3.3886    -0.4203 C.ar    
   8 C8            -2.6225     4.1763    -0.4642 C.ar    
   9 C9            -1.4200     3.6132    -0.9330 C.ar    
  10 N10           -0.4553     4.5912    -0.8683 N.pl3   
  11 C11           -1.0285     5.7481    -0.3709 C.2     
  12 C12           -2.3446     5.5165    -0.1141 C.2     
  13 C13           -0.3286     7.0184    -0.1503 C.2     
  14 O14           -0.9323     7.9761     0.2935 O.2     
  15 O15            0.9844     7.1240    -0.4398 O.3     
  16 N16           -4.9836     3.9307     0.0457 N.pl3   
  17 C17           -6.1697     3.2002    -0.0586 C.ar    
  18 C18           -7.0691     3.1779     1.0001 C.ar    
  19 C19           -8.2409     2.4551     0.8935 C.ar    
  20 C20           -8.5196     1.7539    -0.2654 C.ar    
  21 C21           -7.6267     1.7739    -1.3212 C.ar    
  22 C22           -6.4554     2.4989    -1.2234 C.ar    
  23 H23           -2.5270     0.5013    -1.6375 H       
  24 H24           -4.6317     1.4649    -0.8118 H       
  25 H25            0.4734     4.4872    -1.1284 H       
  26 H26           -3.0515     6.2311     0.2810 H       
  27 H27            1.4022     7.9809    -0.2777 H       
  28 H28           -4.9923     4.8157     0.4427 H       
  29 H29           -6.8519     3.7250     1.9056 H       
  30 H30           -8.9403     2.4371     1.7162 H       
  31 H31           -9.4367     1.1891    -0.3460 H       
  32 H32           -7.8475     1.2251    -2.2249 H       
  33 H33           -5.7585     2.5141    -2.0483 H       
@<TRIPOS>BOND
   1    1    2 2
   2    2    3 2
   3    2    4 1
   4    4    5 ar
   5    4    9 ar
   6    5    6 ar
   7    5   23 1
   8    6    7 ar
   9    6   24 1
  10    7    8 ar
  11    7   16 1
  12    8    9 ar
  13    8   12 1
  14    9   10 1
  15   10   11 1
  16   10   25 1
  17   11   12 2
  18   11   13 1
  19   12   26 1
  20   13   14 2
  21   13   15 1
  22   15   27 1
  23   16   17 1
  24   16   28 1
  25   17   18 ar
  26   17   22 ar
  27   18   19 ar
  28   18   29 1
  29   19   20 ar
  30   19   30 1
  31   20   21 ar
  32   20   31 1
  33   21   22 ar
  34   21   32 1
  35   22   33 1

#	End of record

