#	Name: ASD01810413
#	Creating user name:	WinNT
#	Creation time:	15. 06. 2019 19:24

#	Modifying user name:	WinNT
#	Modification time:	15. 06. 2019 19:24

#	Program:	/corina/corina34_cracker 3.40 0067  02.08.2006

@<TRIPOS>MOLECULE
ASD01810413
  46   48    0    0    0
SMALL
NO_CHARGES


@<TRIPOS>ATOM
   1 C1             0.3138     0.9908     1.5673 C.2     
   2 C2             0.1556    -0.2279     0.7474 C.ar    
   3 C3             1.1643    -0.6102    -0.1411 C.ar    
   4 C4             1.0177    -1.7488    -0.9079 C.ar    
   5 C5            -0.1250    -2.5173    -0.8029 C.ar    
   6 C6            -1.1412    -2.1465     0.0808 C.ar    
   7 C7            -0.9974    -1.0021     0.8623 C.ar    
   8 O8             1.3627     1.6032     1.5489 O.2     
   9 O9            -0.7069     1.4261     2.3310 O.3     
  10 C10            2.4144     0.2224    -0.2628 C.3     
  11 C11           -2.3640    -2.9704     0.1913 C.2     
  12 O12           -3.4336    -2.4422     0.4243 O.2     
  13 N13           -2.2925    -4.3070     0.0338 N.am    
  14 C14           -3.5124    -5.1259     0.0234 C.3     
  15 C15           -3.3666    -6.2410     1.0635 C.3     
  16 C16           -2.0811    -7.0247     0.7886 C.3     
  17 C17           -0.8757    -6.0898     0.9106 C.3     
  18 C18           -0.9936    -4.9723    -0.1369 C.3     
  19 C19           -1.9517    -8.1440     1.7893 C.ar    
  20 C20           -1.8982    -9.4557     1.3523 C.ar    
  21 C21           -1.7798   -10.4851     2.2629 C.ar    
  22 C22           -1.7135   -10.2008     3.6284 C.ar    
  23 C23           -1.7676    -8.8748     4.0624 C.ar    
  24 C24           -1.8812    -7.8548     3.1406 C.ar    
  25 C25           -1.5910   -11.2644     4.5794 C.1     
  26 N26           -1.4938   -12.1082     5.3338 N.1     
  27 H27            1.8000    -2.0397    -1.5933 H       
  28 H28           -0.2333    -3.4068    -1.4057 H       
  29 H29           -1.7779    -0.7139     1.5509 H       
  30 H30           -0.5561     2.2279     2.8501 H       
  31 H31            3.1120    -0.0517     0.5286 H       
  32 H32            2.8773     0.0433    -1.2333 H       
  33 H33            2.1582     1.2780    -0.1718 H       
  34 H34           -4.3721    -4.5039     0.2725 H       
  35 H35           -3.6500    -5.5639    -0.9652 H       
  36 H36           -3.3200    -5.8042     2.0611 H       
  37 H37           -4.2228    -6.9125     0.9995 H       
  38 H38           -2.1177    -7.4406    -0.2183 H       
  39 H39           -0.8526    -5.6544     1.9096 H       
  40 H40            0.0410    -6.6536     0.7376 H       
  41 H41           -0.9300    -5.3981    -1.1383 H       
  42 H42           -0.1910    -4.2489     0.0065 H       
  43 H43           -1.9496    -9.6741     0.2959 H       
  44 H44           -1.7388   -11.5086     1.9205 H       
  45 H45           -1.7168    -8.6480     5.1171 H       
  46 H46           -1.9191    -6.8285     3.4746 H       
@<TRIPOS>BOND
   1    1    2 1
   2    1    8 2
   3    1    9 1
   4    2    3 ar
   5    2    7 ar
   6    3    4 ar
   7    3   10 1
   8    4    5 ar
   9    4   27 1
  10    5    6 ar
  11    5   28 1
  12    6    7 ar
  13    6   11 1
  14    7   29 1
  15    9   30 1
  16   10   31 1
  17   10   32 1
  18   10   33 1
  19   11   12 2
  20   11   13 am
  21   13   14 1
  22   13   18 1
  23   14   15 1
  24   14   34 1
  25   14   35 1
  26   15   16 1
  27   15   36 1
  28   15   37 1
  29   16   17 1
  30   16   19 1
  31   16   38 1
  32   17   18 1
  33   17   39 1
  34   17   40 1
  35   18   41 1
  36   18   42 1
  37   19   20 ar
  38   19   24 ar
  39   20   21 ar
  40   20   43 1
  41   21   22 ar
  42   21   44 1
  43   22   23 ar
  44   22   25 1
  45   23   24 ar
  46   23   45 1
  47   24   46 1
  48   25   26 3

#	End of record

