#	Name: ASD06660025
#	Creating user name:	WinNT
#	Creation time:	15. 06. 2019 21:07

#	Modifying user name:	WinNT
#	Modification time:	15. 06. 2019 21:07

#	Program:	/corina/corina34_cracker 3.40 0067  02.08.2006

@<TRIPOS>MOLECULE
ASD06660025
  82   85    0    0    0
SMALL
NO_CHARGES


@<TRIPOS>ATOM
   1 C1            -0.1017     1.4066     0.0466 C.2     
   2 C2            -0.0112    -0.0974     0.0200 C.3     
   3 C3            -0.7186    -0.6289    -1.2282 C.3     
   4 O4             0.9064     2.0726     0.0432 O.2     
   5 O5            -1.3023     2.0065     0.0686 O.3     
   6 C6             2.0893    -0.6092     1.1440 C.2     
   7 O7             1.5764    -0.2818     2.1931 O.2     
   8 N8             1.3967    -0.5015    -0.0072 N.am    
   9 C9             3.5087    -1.1394     1.1274 C.3     
  10 C10            4.4490    -0.0420     1.5968 C.3     
  11 C11            5.8467    -0.5712     1.9030 C.3     
  12 C12            5.7712    -1.7371     2.8873 C.3     
  13 C13            4.9831    -2.8739     2.2415 C.3     
  14 C14            3.5599    -2.4349     1.9180 C.3     
  15 C15            2.7391    -2.3279     3.2063 C.3     
  16 C16            2.9148    -3.5420     1.0542 C.3     
  17 C17            4.5798     0.9907     0.4557 C.3     
  18 C18            3.8836     0.6909     2.8149 C.3     
  19 C19           -0.7355    -2.1354    -1.1930 C.ar    
  20 C20           -1.7903    -2.7996    -0.5942 C.ar    
  21 C21           -1.8089    -4.1801    -0.5602 C.ar    
  22 C22           -0.7665    -4.9015    -1.1282 C.ar    
  23 C23            0.2916    -4.2310    -1.7288 C.ar    
  24 C24            0.3011    -2.8505    -1.7644 C.ar    
  25 N25           -0.7819    -6.2977    -1.0951 N.3     
  26 C26            0.4099    -6.8528    -1.7493 C.3     
  27 C27            0.2896    -8.3766    -1.8235 C.3     
  28 C28            0.1515    -8.9424    -0.4074 C.3     
  29 C29           -1.0691    -8.3121     0.2689 C.3     
  30 C30           -0.9093    -6.7901     0.2824 C.3     
  31 C31           -0.0302   -10.4599    -0.4786 C.3     
  32 N32           -0.0426   -11.0144     0.8774 N.pl3   
  33 C33           -0.1965   -12.3828     1.0673 C.ar    
  34 C34           -0.3384   -13.2202    -0.0347 C.ar    
  35 C35           -0.4907   -14.5796     0.1688 C.ar    
  36 C36           -0.4961   -15.0581     1.4726 C.ar    
  37 C37           -0.3505   -14.1702     2.5192 C.ar    
  38 N38           -0.2014   -12.8782     2.2951 N.ar    
  39 H39           -0.4893    -0.5060     0.9103 H       
  40 H40           -1.7420    -0.2545    -1.2530 H       
  41 H41           -0.1869    -0.2922    -2.1182 H       
  42 H42           -1.3098     2.9733     0.0852 H       
  43 H43            1.8304    -0.6916    -0.8538 H       
  44 H44            3.7515    -1.3704     0.0744 H       
  45 H45            6.3187    -0.9095     0.9779 H       
  46 H46            6.4520     0.2286     2.3355 H       
  47 H47            6.7871    -2.0857     3.1032 H       
  48 H48            5.3062    -1.4266     3.8169 H       
  49 H49            5.4861    -3.1837     1.3214 H       
  50 H50            4.9539    -3.7267     2.9251 H       
  51 H51            1.6856    -2.2017     2.9565 H       
  52 H52            2.8667    -3.2363     3.7949 H       
  53 H53            3.0807    -1.4693     3.7845 H       
  54 H54            3.5187    -3.7044     0.1614 H       
  55 H55            2.8607    -4.4663     1.6293 H       
  56 H56            1.9101    -3.2361     0.7625 H       
  57 H57            3.5983     1.4066     0.2278 H       
  58 H58            5.2507     1.7918     0.7659 H       
  59 H59            4.9826     0.5026    -0.4317 H       
  60 H60            3.6790    -0.0276     3.6086 H       
  61 H61            4.6092     1.4242     3.1669 H       
  62 H62            2.9597     1.1983     2.5372 H       
  63 H63           -2.6002    -2.2382    -0.1525 H       
  64 H64           -2.6328    -4.6983    -0.0921 H       
  65 H65            1.1036    -4.7888    -2.1714 H       
  66 H66            1.1210    -2.3286    -2.2354 H       
  67 H67            0.4940    -6.4456    -2.7569 H       
  68 H68            1.2970    -6.5861    -1.1748 H       
  69 H69           -0.5897    -8.6441    -2.4096 H       
  70 H70            1.1813    -8.7896    -2.2951 H       
  71 H71            1.0477    -8.7085     0.1673 H       
  72 H72           -1.9697    -8.5785    -0.2843 H       
  73 H73           -1.1480    -8.6788     1.2923 H       
  74 H74           -0.0161    -6.5237     0.8474 H       
  75 H75           -1.7834    -6.3374     0.7505 H       
  76 H76           -0.9736   -10.6901    -0.9738 H       
  77 H77            0.7928   -10.8984    -1.0430 H       
  78 H78            0.0567   -10.4267     1.6426 H       
  79 H79           -0.3300   -12.8141    -1.0355 H       
  80 H80           -0.6033   -15.2539    -0.6673 H       
  81 H81           -0.6135   -16.1142     1.6655 H       
  82 H82           -0.3541   -14.5381     3.5346 H       
@<TRIPOS>BOND
   1    1    2 1
   2    1    4 2
   3    1    5 1
   4    2    3 1
   5    2    8 1
   6    2   39 1
   7    3   19 1
   8    3   40 1
   9    3   41 1
  10    5   42 1
  11    6    7 2
  12    6    8 am
  13    6    9 1
  14    8   43 1
  15    9   10 1
  16    9   14 1
  17    9   44 1
  18   10   11 1
  19   10   17 1
  20   10   18 1
  21   11   12 1
  22   11   45 1
  23   11   46 1
  24   12   13 1
  25   12   47 1
  26   12   48 1
  27   13   14 1
  28   13   49 1
  29   13   50 1
  30   14   15 1
  31   14   16 1
  32   15   51 1
  33   15   52 1
  34   15   53 1
  35   16   54 1
  36   16   55 1
  37   16   56 1
  38   17   57 1
  39   17   58 1
  40   17   59 1
  41   18   60 1
  42   18   61 1
  43   18   62 1
  44   19   20 ar
  45   19   24 ar
  46   20   21 ar
  47   20   63 1
  48   21   22 ar
  49   21   64 1
  50   22   23 ar
  51   22   25 1
  52   23   24 ar
  53   23   65 1
  54   24   66 1
  55   25   26 1
  56   25   30 1
  57   26   27 1
  58   26   67 1
  59   26   68 1
  60   27   28 1
  61   27   69 1
  62   27   70 1
  63   28   29 1
  64   28   31 1
  65   28   71 1
  66   29   30 1
  67   29   72 1
  68   29   73 1
  69   30   74 1
  70   30   75 1
  71   31   32 1
  72   31   76 1
  73   31   77 1
  74   32   33 1
  75   32   78 1
  76   33   34 ar
  77   33   38 ar
  78   34   35 ar
  79   34   79 1
  80   35   36 ar
  81   35   80 1
  82   36   37 ar
  83   36   81 1
  84   37   38 ar
  85   37   82 1

#	End of record

