#	Name: ASD01884373
#	Creating user name:	WinNT
#	Creation time:	15. 06. 2019 19:48

#	Modifying user name:	WinNT
#	Modification time:	15. 06. 2019 19:48

#	Program:	/corina/corina34_cracker 3.40 0067  02.08.2006

@<TRIPOS>MOLECULE
ASD01884373
  26   27    0    0    0
SMALL
NO_CHARGES


@<TRIPOS>ATOM
   1 C1            -0.1509     1.5956    -0.7013 C.ar    
   2 C2            -0.3307     0.2298    -0.7871 C.ar    
   3 N3             0.5723    -0.6029    -0.3029 N.ar    
   4 C4             1.6764    -0.1716     0.2792 C.ar    
   5 C5             1.9283     1.1793     0.4039 C.ar    
   6 C6             1.0004     2.0903    -0.0946 C.ar    
   7 O7             1.2130     3.4274     0.0089 O.3     
   8 C8             0.7264     4.0682     1.1047 C.ar    
   9 C9             0.8182     5.4516     1.2001 C.ar    
  10 C10            0.1327     3.3431     2.1264 C.ar    
  11 C11           -0.3619     3.9962     3.2396 C.ar    
  12 C12           -0.2658     5.3726     3.3357 C.ar    
  13 C13            0.3218     6.1003     2.3159 C.ar    
  14 Br14          -0.9444     6.2620     4.8602 Br      
  15 F15            1.3919     6.1616     0.2042 F       
  16 O16            0.3504    -1.9973    -0.4104 O.3     
  17 C17           -1.5731    -0.3177    -1.4412 C.3     
  18 H18           -0.8912     2.2714    -1.1033 H       
  19 H19            2.3908    -0.8851     0.6627 H       
  20 H20            2.8329     1.5255     0.8817 H       
  21 H21            0.0563     2.2684     2.0524 H       
  22 H22           -0.8244     3.4310     4.0353 H       
  23 H23            0.3961     7.1750     2.3931 H       
  24 H24           -1.3918    -0.4559    -2.5071 H       
  25 H25           -1.8296    -1.2757    -0.9891 H       
  26 H26           -2.3964     0.3826    -1.3005 H       
@<TRIPOS>BOND
   1    1    2 ar
   2    1    6 ar
   3    1   18 1
   4    2    3 ar
   5    2   17 1
   6    3    4 ar
   7    3   16 1
   8    4    5 ar
   9    4   19 1
  10    5    6 ar
  11    5   20 1
  12    6    7 1
  13    7    8 1
  14    8    9 ar
  15    8   10 ar
  16    9   15 1
  17    9   13 ar
  18   10   11 ar
  19   10   21 1
  20   11   12 ar
  21   11   22 1
  22   12   13 ar
  23   12   14 1
  24   13   23 1
  25   17   24 1
  26   17   25 1
  27   17   26 1

#	End of record

