#	Name: ASD01410957
#	Creating user name:	WinNT
#	Creation time:	15. 06. 2019 19:19

#	Modifying user name:	WinNT
#	Modification time:	15. 06. 2019 19:19

#	Program:	/corina/corina34_cracker 3.40 0067  02.08.2006

@<TRIPOS>MOLECULE
ASD01410957
  64   67    0    0    0
SMALL
NO_CHARGES


@<TRIPOS>ATOM
   1 C1            -1.4929     3.0863     0.4110 C.ar    
   2 C2            -1.3370     0.7312    -0.0413 C.ar    
   3 C3            -2.7115     0.6706    -0.2261 C.ar    
   4 C4            -3.4863     1.8315    -0.0786 C.ar    
   5 C5            -2.8640     3.0421     0.2358 C.ar    
   6 O6            -0.8873     4.2631     0.7227 O.3     
   7 C7            -0.0907     4.8370    -0.2136 C.ar    
   8 N8            -3.3211    -0.5406    -0.5456 N.am    
   9 C9            -3.7199    -1.3738     0.4358 C.2     
  10 C10           -3.6658    -0.9344     1.8456 C.ar    
  11 O11           -4.1242    -2.4869     0.1612 O.2     
  12 C12           -4.2241    -1.7287     2.8492 C.ar    
  13 C13           -3.0037     0.6784     3.4997 C.ar    
  14 C14           -3.5653    -0.1130     4.4902 C.ar    
  15 C15           -4.1707    -1.3145     4.1634 C.ar    
  16 Br16          -3.5036     0.4507     6.2942 Br      
  17 N17           -0.0179     4.3092    -1.4246 N.ar    
  18 C18           -3.5286    -0.9087    -1.9483 C.3     
  19 C19           -4.2578     0.2259    -2.6707 C.3     
  20 C20            0.6364     5.9763     0.1066 C.ar    
  21 C21            1.4450     6.5523    -0.8579 C.ar    
  22 C22            1.4978     5.9652    -2.1143 C.ar    
  23 C23            0.7437     4.8356    -2.3644 C.ar    
  24 C24           -3.0513     0.2736     2.1797 C.ar    
  25 C25            2.3639     6.5575    -3.1960 C.3     
  26 C26           -2.1744    -1.1521    -2.6174 C.3     
  27 O27           -1.5472    -2.2902    -2.0231 O.3     
  28 C28           -0.2691    -2.6059    -2.5789 C.3     
  29 C29           -0.7326     1.9308     0.2752 C.ar    
  30 N30            3.7002     5.9603    -3.1334 N.pl3   
  31 N31            4.0570     4.9000    -3.7677 N.2     
  32 C32            5.3148     4.6443    -3.4874 C.2     
  33 C33            5.7234     5.6506    -2.6091 C.2     
  34 N34            4.6777     6.4281    -2.4411 N.2     
  35 F35           -2.4140     1.8495     3.8253 F       
  36 C36            0.5456     6.5776     1.4855 C.3     
  37 F37            1.3651     7.7093     1.5556 F       
  38 F38           -0.7788     6.9438     1.7483 F       
  39 F39            0.9664     5.6379     2.4326 F       
  40 C40           -4.9462     1.7776    -0.2732 C.2     
  41 O41           -5.5054     0.7043    -0.3819 O.2     
  42 O42           -5.6609     2.9187    -0.3305 O.3     
  43 H43           -0.7383    -0.1606    -0.1541 H       
  44 H44           -3.4524     3.9414     0.3423 H       
  45 H45           -4.6975    -2.6659     2.5964 H       
  46 H46           -4.6025    -1.9288     4.9397 H       
  47 H47           -4.1283    -1.8174    -2.0007 H       
  48 H48           -3.6742     1.1429    -2.5893 H       
  49 H49           -4.3822    -0.0334    -3.7221 H       
  50 H50           -5.2367     0.3766    -2.2155 H       
  51 H51            2.0215     7.4387    -0.6378 H       
  52 H52            0.7814     4.3746    -3.3404 H       
  53 H53           -2.6138     0.8900     1.4083 H       
  54 H54            1.9196     6.3527    -4.1701 H       
  55 H55            2.4403     7.6351    -3.0509 H       
  56 H56           -2.3225    -1.3334    -3.6820 H       
  57 H57           -1.5400    -0.2760    -2.4829 H       
  58 H58           -0.3777    -2.8174    -3.6426 H       
  59 H59            0.4049    -1.7599    -2.4436 H       
  60 H60            0.1404    -3.4810    -2.0744 H       
  61 H61            0.3371     1.9720     0.4179 H       
  62 H62            5.9105     3.8239    -3.8595 H       
  63 H63            6.7000     5.7680    -2.1631 H       
  64 H64           -6.6154     2.8328    -0.4594 H       
@<TRIPOS>BOND
   1    1   29 ar
   2    1    6 1
   3    1    5 ar
   4    2    3 ar
   5    2   29 ar
   6    2   43 1
   7    3    4 ar
   8    3    8 1
   9    4    5 ar
  10    4   40 1
  11    5   44 1
  12    6    7 1
  13    7   20 ar
  14    7   17 ar
  15    8    9 am
  16    8   18 1
  17    9   10 1
  18    9   11 2
  19   10   12 ar
  20   10   24 ar
  21   12   15 ar
  22   12   45 1
  23   13   14 ar
  24   13   35 1
  25   13   24 ar
  26   14   15 ar
  27   14   16 1
  28   15   46 1
  29   17   23 ar
  30   18   19 1
  31   18   26 1
  32   18   47 1
  33   19   48 1
  34   19   49 1
  35   19   50 1
  36   20   21 ar
  37   20   36 1
  38   21   22 ar
  39   21   51 1
  40   22   23 ar
  41   22   25 1
  42   23   52 1
  43   24   53 1
  44   25   30 1
  45   25   54 1
  46   25   55 1
  47   26   27 1
  48   26   56 1
  49   26   57 1
  50   27   28 1
  51   28   58 1
  52   28   59 1
  53   28   60 1
  54   29   61 1
  55   30   31 1
  56   30   34 1
  57   31   32 2
  58   32   33 1
  59   32   62 1
  60   33   34 2
  61   33   63 1
  62   36   37 1
  63   36   38 1
  64   36   39 1
  65   40   41 2
  66   40   42 1
  67   42   64 1

#	End of record

