#	Name: ASD01840545
#	Creating user name:	WinNT
#	Creation time:	15. 06. 2019 19:37

#	Modifying user name:	WinNT
#	Modification time:	15. 06. 2019 19:37

#	Program:	/corina/corina34_cracker 3.40 0067  02.08.2006

@<TRIPOS>MOLECULE
ASD01840545
  49   52    0    0    0
SMALL
NO_CHARGES


@<TRIPOS>ATOM
   1 C1            -0.2618     1.3592    -0.8547 C.3     
   2 N2            -0.1823    -0.0868    -0.6335 N.pl3   
   3 C3            -1.3397    -0.8173    -0.3903 C.ar    
   4 N4            -2.5121    -0.2023    -0.3650 N.ar    
   5 C5            -3.6345    -0.8583    -0.1377 C.ar    
   6 C6            -4.9427    -0.1106    -0.1200 C.3     
   7 C7            -3.6253    -2.2213     0.0836 C.ar    
   8 C8            -4.9126    -2.9609     0.3417 C.3     
   9 C9            -2.4155    -2.9017     0.0650 C.ar    
  10 C10           -2.0664    -4.3518     0.2650 C.3     
  11 N11           -0.6111    -4.4815     0.1307 N.am    
  12 C12           -0.0886    -3.1386    -0.1449 C.3     
  13 C13           -1.2585    -2.1909    -0.1808 C.ar    
  14 C14            0.1077    -5.6164     0.2396 C.2     
  15 O15           -0.4516    -6.6699     0.4717 O.2     
  16 O16            1.4454    -5.5828     0.0912 O.3     
  17 C17            2.1550    -6.8429     0.2215 C.3     
  18 C18            2.8042    -7.3267    -1.0877 C.3     
  19 N19            4.0041    -6.5778    -0.6535 N.3     
  20 C20            3.5886    -6.6937     0.7619 C.3     
  21 C21            5.1676    -7.3124    -0.8955 C.ar    
  22 C22            5.2760    -8.1105    -2.0317 C.ar    
  23 C23            6.4495    -8.8201    -2.2279 C.ar    
  24 C24            7.4663    -8.7141    -1.2975 C.ar    
  25 N25            7.3326    -7.9495    -0.2313 N.ar    
  26 C26            6.2358    -7.2533    -0.0092 C.ar    
  27 H27            0.7387     1.7558    -1.0276 H       
  28 H28           -0.8875     1.5599    -1.7244 H       
  29 H29           -0.6957     1.8378     0.0232 H       
  30 H30            0.6779    -0.5345    -0.6567 H       
  31 H31           -5.3660    -0.0952    -1.1243 H       
  32 H32           -5.6359    -0.6073     0.5589 H       
  33 H33           -4.7725     0.9115     0.2183 H       
  34 H34           -5.3307    -3.3038    -0.6047 H       
  35 H35           -4.7160    -3.8192     0.9843 H       
  36 H36           -5.6223    -2.2948     0.8324 H       
  37 H37           -2.3759    -4.6727     1.2596 H       
  38 H38           -2.5630    -4.9593    -0.4917 H       
  39 H39            0.6060    -2.8438     0.6417 H       
  40 H40            0.4189    -3.1303    -1.1095 H       
  41 H41            1.5710    -7.6084     0.7326 H       
  42 H42            2.9522    -8.4057    -1.1319 H       
  43 H43            2.3358    -6.9233    -1.9854 H       
  44 H44            3.7469    -5.7845     1.3419 H       
  45 H45            3.9660    -7.5875     1.2586 H       
  46 H46            4.4651    -8.1748    -2.7421 H       
  47 H47            6.5684    -9.4493    -3.0976 H       
  48 H48            8.3830    -9.2656    -1.4456 H       
  49 H49            6.1651    -6.6341     0.8729 H       
@<TRIPOS>BOND
   1    1    2 1
   2    1   27 1
   3    1   28 1
   4    1   29 1
   5    2    3 1
   6    2   30 1
   7    3   13 ar
   8    3    4 ar
   9    4    5 ar
  10    5    6 1
  11    5    7 ar
  12    6   31 1
  13    6   32 1
  14    6   33 1
  15    7    8 1
  16    7    9 ar
  17    8   34 1
  18    8   35 1
  19    8   36 1
  20    9   13 ar
  21    9   10 1
  22   10   11 1
  23   10   37 1
  24   10   38 1
  25   11   12 1
  26   11   14 am
  27   12   13 1
  28   12   39 1
  29   12   40 1
  30   14   15 2
  31   14   16 1
  32   16   17 1
  33   17   20 1
  34   17   18 1
  35   17   41 1
  36   18   19 1
  37   18   42 1
  38   18   43 1
  39   19   20 1
  40   19   21 1
  41   20   44 1
  42   20   45 1
  43   21   26 ar
  44   21   22 ar
  45   22   23 ar
  46   22   46 1
  47   23   24 ar
  48   23   47 1
  49   24   25 ar
  50   24   48 1
  51   25   26 ar
  52   26   49 1

#	End of record

