#	Name: ASD03380007
#	Creating user name:	WinNT
#	Creation time:	15. 06. 2019 20:40

#	Modifying user name:	WinNT
#	Modification time:	15. 06. 2019 20:40

#	Program:	/corina/corina34_cracker 3.40 0067  02.08.2006

@<TRIPOS>MOLECULE
ASD03380007
  81   83    0    0    0
SMALL
NO_CHARGES


@<TRIPOS>ATOM
   1 N1            -0.7547     1.1780    -0.0606 N.3     
   2 C2            -0.6558    -0.2842     0.0406 C.3     
   3 C3             0.2308    -0.8052    -1.0610 C.2     
   4 O4             1.0433    -0.0718    -1.5835 O.2     
   5 C5            -0.0587    -0.6623     1.3976 C.3     
   6 C6            -0.8851    -0.0219     2.5147 C.3     
   7 C7            -0.0779    -2.1838     1.5572 C.3     
   8 N8             0.1208    -2.0860    -1.4657 N.am    
   9 C9             0.9056    -2.5637    -2.6068 C.3     
  10 C10            0.4977    -1.8114    -3.8472 C.2     
  11 O11           -0.0713    -0.7448    -3.7499 O.2     
  12 C12            2.3933    -2.3314    -2.3355 C.3     
  13 C13            2.8309    -3.1835    -1.1721 C.ar    
  14 C14            3.1872    -4.5033    -1.3788 C.ar    
  15 C15            2.8806    -2.6424     0.0994 C.ar    
  16 C16            3.5886    -5.2865    -0.3139 C.ar    
  17 C17            3.2818    -3.4213     1.1675 C.ar    
  18 C18            3.6340    -4.7476     0.9637 C.ar    
  19 O19            4.0281    -5.5161     2.0129 O.3     
  20 N20            0.7652    -2.3238    -5.0647 N.am    
  21 C21            0.3687    -1.5925    -6.2706 C.3     
  22 C22            1.2588    -1.9954    -7.4179 C.2     
  23 O23            2.1378    -2.8130    -7.2454 O.2     
  24 C24           -1.0854    -1.9233    -6.6126 C.3     
  25 C25           -1.9877    -1.4099    -5.5202 C.ar    
  26 C26           -2.5033    -0.1292    -5.5958 C.ar    
  27 C27           -2.3031    -2.2224    -4.4468 C.ar    
  28 C28           -3.3307     0.3437    -4.5957 C.ar    
  29 C29           -3.1304    -1.7543    -3.4443 C.ar    
  30 C30           -3.6441    -0.4675    -3.5148 C.ar    
  31 O31           -4.4577    -0.0046    -2.5297 O.3     
  32 N32            1.0780    -1.4472    -8.6358 N.am    
  33 C33            1.9433    -1.8389    -9.7512 C.3     
  34 C34            1.4004    -3.0897   -10.3929 C.2     
  35 O35            2.0349    -3.6353   -11.4424 O.3     
  36 C36            1.9842    -0.7118   -10.7851 C.3     
  37 C37            2.6400     0.5022   -10.1791 C.ar    
  38 C38            1.8741     1.4431    -9.5166 C.ar    
  39 C39            4.0081     0.6719   -10.2808 C.ar    
  40 C40            2.4763     2.5539    -8.9558 C.ar    
  41 C41            4.6096     1.7855    -9.7249 C.ar    
  42 C42            3.8445     2.7234    -9.0571 C.ar    
  43 O43            0.3939    -3.6015    -9.9627 O.2     
  44 H44            0.1538     1.6086     0.0244 H       
  45 H45           -1.2053     1.4512    -0.9210 H       
  46 H46           -1.6491    -0.7230    -0.0542 H       
  47 H47            0.9691    -0.3039     1.4548 H       
  48 H48           -1.9129    -0.3802     2.4574 H       
  49 H49           -0.4596    -0.2912     3.4814 H       
  50 H50           -0.8714     1.0621     2.4010 H       
  51 H51           -1.0872    -2.5551     1.3796 H       
  52 H52            0.6065    -2.6333     0.8376 H       
  53 H53            0.2335    -2.4471     2.5680 H       
  54 H54           -0.4781    -2.6916    -1.0014 H       
  55 H55            0.7247    -3.6287    -2.7519 H       
  56 H56            2.9703    -2.6005    -3.2202 H       
  57 H57            2.5598    -1.2804    -2.0991 H       
  58 H58            3.1514    -4.9224    -2.3735 H       
  59 H59            2.6060    -1.6100     0.2575 H       
  60 H60            3.8666    -6.3175    -0.4758 H       
  61 H61            3.3212    -2.9981     2.1603 H       
  62 H62            4.9798    -5.4917     2.1828 H       
  63 H63            1.2203    -3.1769    -5.1425 H       
  64 H64            0.4658    -0.5212    -6.0942 H       
  65 H65           -1.3532    -1.4500    -7.5573 H       
  66 H66           -1.2010    -3.0034    -6.7017 H       
  67 H67           -2.2588     0.5021    -6.4373 H       
  68 H68           -1.9026    -3.2239    -4.3922 H       
  69 H69           -3.7329     1.3443    -4.6551 H       
  70 H70           -3.3770    -2.3896    -2.6065 H       
  71 H71           -3.9893     0.4344    -1.8065 H       
  72 H72            0.3749    -0.7933    -8.7738 H       
  73 H73            2.9505    -2.0286    -9.3804 H       
  74 H74            1.6488    -4.4373   -11.8203 H       
  75 H75            2.5551    -1.0371   -11.6548 H       
  76 H76            0.9682    -0.4617   -11.0903 H       
  77 H77            0.8052     1.3107    -9.4375 H       
  78 H78            4.6071    -0.0657   -10.7942 H       
  79 H79            1.8785     3.2866    -8.4341 H       
  80 H80            5.6785     1.9180    -9.8041 H       
  81 H81            4.3150     3.5912    -8.6190 H       
@<TRIPOS>BOND
   1    1    2 1
   2    1   44 1
   3    1   45 1
   4    2    3 1
   5    2    5 1
   6    2   46 1
   7    3    8 am
   8    3    4 2
   9    5    6 1
  10    5    7 1
  11    5   47 1
  12    6   48 1
  13    6   49 1
  14    6   50 1
  15    7   51 1
  16    7   52 1
  17    7   53 1
  18    8    9 1
  19    8   54 1
  20    9   10 1
  21    9   12 1
  22    9   55 1
  23   10   11 2
  24   10   20 am
  25   12   13 1
  26   12   56 1
  27   12   57 1
  28   13   14 ar
  29   13   15 ar
  30   14   16 ar
  31   14   58 1
  32   15   17 ar
  33   15   59 1
  34   16   18 ar
  35   16   60 1
  36   17   18 ar
  37   17   61 1
  38   18   19 1
  39   19   62 1
  40   20   21 1
  41   20   63 1
  42   21   24 1
  43   21   22 1
  44   21   64 1
  45   22   32 am
  46   22   23 2
  47   24   25 1
  48   24   65 1
  49   24   66 1
  50   25   26 ar
  51   25   27 ar
  52   26   28 ar
  53   26   67 1
  54   27   29 ar
  55   27   68 1
  56   28   30 ar
  57   28   69 1
  58   29   30 ar
  59   29   70 1
  60   30   31 1
  61   31   71 1
  62   32   33 1
  63   32   72 1
  64   33   34 1
  65   33   36 1
  66   33   73 1
  67   34   43 2
  68   34   35 1
  69   35   74 1
  70   36   37 1
  71   36   75 1
  72   36   76 1
  73   37   39 ar
  74   37   38 ar
  75   38   40 ar
  76   38   77 1
  77   39   41 ar
  78   39   78 1
  79   40   42 ar
  80   40   79 1
  81   41   42 ar
  82   41   80 1
  83   42   81 1

#	End of record

