#	Name: ASD01884870
#	Creating user name:	WinNT
#	Creation time:	15. 06. 2019 19:49

#	Modifying user name:	WinNT
#	Modification time:	15. 06. 2019 19:49

#	Program:	/corina/corina34_cracker 3.40 0067  02.08.2006

@<TRIPOS>MOLECULE
ASD01884870
  44   49    0    0    0
SMALL
NO_CHARGES


@<TRIPOS>ATOM
   1 C1            -0.0164     1.3605     0.0095 C.ar    
   2 C2             0.0021    -0.0041     0.0020 C.ar    
   3 C3             1.2155    -0.7018    -0.0129 C.ar    
   4 C4             2.4184    -0.0069    -0.0207 C.ar    
   5 C5             2.4036     1.3873    -0.0135 C.ar    
   6 C6             1.1768     2.0775     0.0020 C.ar    
   7 C7             3.4482     2.4155    -0.0187 C.2     
   8 C8             2.8279     3.6057    -0.0071 C.2     
   9 N9             1.4699     3.4247     0.0055 N.pl3   
  10 C10            1.2170    -2.1836    -0.0199 C.2     
  11 C11            0.7028    -2.8774    -1.1002 C.2     
  12 C12            1.7502    -2.9033     1.0770 C.2     
  13 C13            1.7510    -4.2494     1.0687 C.2     
  14 N14            1.2408    -4.9432     0.0089 N.pl3   
  15 C15            0.7184    -4.2835    -1.0771 C.2     
  16 Cl16           0.0477    -2.0257    -2.4637 Cl      
  17 C17            1.1131    -6.2706    -0.2660 C.2     
  18 N18            0.5454    -6.3771    -1.4397 N.2     
  19 N19            0.3083    -5.2108    -1.9288 N.2     
  20 C20            1.5470    -7.4095     0.6203 C.3     
  21 C21            0.4705    -8.3921     1.0859 C.3     
  22 C22            1.4943    -8.8213     0.0330 C.3     
  23 C23            0.5208     4.4549     0.0200 C.ar    
  24 C24           -0.5308     4.4566    -0.8865 C.ar    
  25 N25           -1.4257     5.4244    -0.8763 N.ar    
  26 C26           -1.3618     6.4206    -0.0147 C.ar    
  27 C27           -0.3443     6.4881     0.9191 C.ar    
  28 C28            0.6149     5.4894     0.9477 C.ar    
  29 H29           -0.9600     1.8859     0.0168 H       
  30 H30           -0.9290    -0.5512     0.0080 H       
  31 H31            3.3566    -0.5417    -0.0319 H       
  32 H32            4.5149     2.2472    -0.0294 H       
  33 H33            3.3256     4.5641    -0.0076 H       
  34 H34            2.1579    -2.3703     1.9231 H       
  35 H35            2.1606    -4.7875     1.9107 H       
  36 H36            2.3559    -7.1829     1.3149 H       
  37 H37            0.5715    -8.8121     2.0866 H       
  38 H38           -0.5515    -8.2147     0.7511 H       
  39 H39            1.1458    -8.9263    -0.9945 H       
  40 H40            2.2687    -9.5238     0.3410 H       
  41 H41           -0.6164     3.6571    -1.6075 H       
  42 H42           -2.1145     7.1947    -0.0390 H       
  43 H43           -0.3001     7.3082     1.6205 H       
  44 H44            1.4208     5.5166     1.6663 H       
@<TRIPOS>BOND
   1    1    2 ar
   2    1    6 ar
   3    1   29 1
   4    2    3 ar
   5    2   30 1
   6    3    4 ar
   7    3   10 1
   8    4    5 ar
   9    4   31 1
  10    5    6 ar
  11    5    7 1
  12    6    9 1
  13    7    8 2
  14    7   32 1
  15    8    9 1
  16    8   33 1
  17    9   23 1
  18   10   11 2
  19   10   12 1
  20   11   16 1
  21   11   15 1
  22   12   13 2
  23   12   34 1
  24   13   14 1
  25   13   35 1
  26   14   15 1
  27   14   17 1
  28   15   19 2
  29   17   18 2
  30   17   20 1
  31   18   19 1
  32   20   21 1
  33   20   22 1
  34   20   36 1
  35   21   22 1
  36   21   37 1
  37   21   38 1
  38   22   39 1
  39   22   40 1
  40   23   24 ar
  41   23   28 ar
  42   24   25 ar
  43   24   41 1
  44   25   26 ar
  45   26   27 ar
  46   26   42 1
  47   27   28 ar
  48   27   43 1
  49   28   44 1

#	End of record

