#	Name: ASD03330268
#	Creating user name:	WinNT
#	Creation time:	15. 06. 2019 20:36

#	Modifying user name:	WinNT
#	Modification time:	15. 06. 2019 20:36

#	Program:	/corina/corina34_cracker 3.40 0067  02.08.2006

@<TRIPOS>MOLECULE
ASD03330268
  64   67    0    0    0
SMALL
NO_CHARGES


@<TRIPOS>ATOM
   1 C1            -0.6695     0.3319    -0.4827 C.3     
   2 N2            -0.8295    -0.9687    -1.1481 N.3     
   3 C3            -0.2736    -0.9402    -2.5130 C.3     
   4 C4             1.1179    -0.3666    -2.4373 C.2     
   5 N5             1.5964     0.3113    -1.3612 N.pl3   
   6 C6             0.8098     0.5673    -0.1513 C.3     
   7 C7             2.1097    -0.4056    -3.3618 C.2     
   8 N8             3.1787     0.2419    -2.8444 N.2     
   9 C9             2.8757     0.6744    -1.6409 C.2     
  10 C10            3.7759     1.4296    -0.7418 C.ar    
  11 C11            4.9409     2.0105    -1.2435 C.ar    
  12 C12            2.0359    -1.0392    -4.6903 C.2     
  13 O13            1.0129    -1.5941    -5.0434 O.2     
  14 C14            3.0288    -1.6334    -6.8347 C.3     
  15 N15            3.1021    -1.0036    -5.5140 N.am    
  16 C16            5.7760     2.7139    -0.3999 C.ar    
  17 C17            5.4602     2.8437     0.9407 C.ar    
  18 C18            4.3065     2.2699     1.4444 C.ar    
  19 C19            3.4604     1.5685     0.6101 C.ar    
  20 C20            2.4093    -0.6536    -7.8333 C.3     
  21 C21            4.4157    -2.0062    -7.2912 C.2     
  22 C22            3.2564     0.6191    -7.8914 C.3     
  23 C23            2.3632    -1.2993    -9.2196 C.3     
  24 C24            0.9888    -0.3009    -7.3875 C.3     
  25 C25           -2.2389    -1.3829    -1.1623 C.3     
  26 C26           -2.3783    -2.6906    -1.9441 C.3     
  27 O27            5.3829    -1.4740    -6.7890 O.2     
  28 N28            4.5813    -2.9310    -8.2575 N.am    
  29 C29            5.9296    -3.3603    -8.6372 C.3     
  30 C30           -3.7539    -3.3601    -1.9615 C.3     
  31 C31           -3.2253    -2.6652    -3.2180 C.3     
  32 H32           -1.0231     1.1231    -1.1438 H       
  33 H33           -1.2532     0.3423     0.4378 H       
  34 H34           -0.2335    -1.9523    -2.9157 H       
  35 H35           -0.8962    -0.3135    -3.1514 H       
  36 H36            0.9550     1.5986     0.1704 H       
  37 H37            1.1219    -0.1131     0.6410 H       
  38 H38            5.1887     1.9096    -2.2898 H       
  39 H39            2.4123    -2.5304    -6.7757 H       
  40 H40            3.9180    -0.5610    -5.2324 H       
  41 H41            6.6783     3.1638    -0.7870 H       
  42 H42            6.1173     3.3949     1.5970 H       
  43 H43            4.0654     2.3747     2.4919 H       
  44 H44            2.5600     1.1211     1.0044 H       
  45 H45            4.2684     0.3679    -8.2090 H       
  46 H46            2.8151     1.3172    -8.6028 H       
  47 H47            3.2892     1.0791    -6.9037 H       
  48 H48            1.7615    -2.2072    -9.1777 H       
  49 H49            1.9199    -0.6021    -9.9306 H       
  50 H50            3.3754    -1.5486    -9.5382 H       
  51 H51            1.0217     0.1591    -6.3998 H       
  52 H52            0.5475     0.3971    -8.0989 H       
  53 H53            0.3853    -1.2077    -7.3461 H       
  54 H54           -2.5838    -1.5327    -0.1392 H       
  55 H55           -2.8403    -0.6088    -1.6388 H       
  56 H56           -1.5027    -3.3398    -1.9343 H       
  57 H57            3.8078    -3.3123    -8.7016 H       
  58 H58            5.8637    -4.1072    -9.4284 H       
  59 H59            6.4972    -2.5012    -8.9948 H       
  60 H60            6.4309    -3.7920    -7.7709 H       
  61 H61           -3.7834    -4.4497    -1.9636 H       
  62 H62           -4.5597    -2.8688    -1.4160 H       
  63 H63           -3.6832    -1.7169    -3.4991 H       
  64 H64           -2.9070    -3.2977    -4.0467 H       
@<TRIPOS>BOND
   1    1    2 1
   2    1    6 1
   3    1   32 1
   4    1   33 1
   5    2    3 1
   6    2   25 1
   7    3    4 1
   8    3   34 1
   9    3   35 1
  10    4    5 1
  11    4    7 2
  12    5    6 1
  13    5    9 1
  14    6   36 1
  15    6   37 1
  16    7    8 1
  17    7   12 1
  18    8    9 2
  19    9   10 1
  20   10   11 ar
  21   10   19 ar
  22   11   16 ar
  23   11   38 1
  24   12   13 2
  25   12   15 am
  26   14   15 1
  27   14   21 1
  28   14   20 1
  29   14   39 1
  30   15   40 1
  31   16   17 ar
  32   16   41 1
  33   17   18 ar
  34   17   42 1
  35   18   19 ar
  36   18   43 1
  37   19   44 1
  38   20   22 1
  39   20   23 1
  40   20   24 1
  41   21   27 2
  42   21   28 am
  43   22   45 1
  44   22   46 1
  45   22   47 1
  46   23   48 1
  47   23   49 1
  48   23   50 1
  49   24   51 1
  50   24   52 1
  51   24   53 1
  52   25   26 1
  53   25   54 1
  54   25   55 1
  55   26   30 1
  56   26   31 1
  57   26   56 1
  58   28   29 1
  59   28   57 1
  60   29   58 1
  61   29   59 1
  62   29   60 1
  63   30   31 1
  64   30   61 1
  65   30   62 1
  66   31   63 1
  67   31   64 1

#	End of record

