#	Name: ASD03332078
#	Creating user name:	WinNT
#	Creation time:	15. 06. 2019 20:40

#	Modifying user name:	WinNT
#	Modification time:	15. 06. 2019 20:40

#	Program:	/corina/corina34_cracker 3.40 0067  02.08.2006

@<TRIPOS>MOLECULE
ASD03332078
  75   77    0    0    0
SMALL
NO_CHARGES


@<TRIPOS>ATOM
   1 C1            -0.0470     1.9686     1.7936 C.2     
   2 N2            -0.1253     0.6770     2.2124 N.pl3   
   3 C3             1.0987     0.1094     1.9714 C.2     
   4 N4             1.8984     1.0207     1.4733 N.2     
   5 C5             1.2226     2.1843     1.3570 C.2     
   6 C6             1.7633     3.4575     0.8489 C.2     
   7 O7             1.0506     4.4414     0.7922 O.2     
   8 N8             3.0477     3.5316     0.4471 N.am    
   9 C9             3.5852     4.7974    -0.0580 C.3     
  10 C10            3.2648     4.9291    -1.5482 C.3     
  11 C11            3.9777     3.8191    -2.3232 C.3     
  12 C12            5.0791     4.8228     0.1388 C.2     
  13 C13            1.7540     4.8080    -1.7576 C.3     
  14 C14            3.7421     6.2919    -2.0540 C.3     
  15 O15            5.6741     3.7984     0.3984 O.2     
  16 N16            5.7540     5.9840     0.0262 N.am    
  17 C17           -1.2600    -0.0078     2.8425 C.3     
  18 C18           -2.5844     0.5971     2.3761 C.3     
  19 C19           -2.9315     1.8229     3.2348 C.3     
  20 N20           -1.8917     2.8278     3.0807 N.am    
  21 C21           -1.1960     2.9408     1.7926 C.3     
  22 C22            1.4585    -1.3014     2.2311 C.ar    
  23 C23           -1.5715     3.6433     4.1048 C.2     
  24 C24            7.2142     5.9970     0.1440 C.3     
  25 C25            1.1257    -1.8969     3.4478 C.ar    
  26 C26            1.4642    -3.2135     3.6842 C.ar    
  27 C27            2.1324    -3.9444     2.7181 C.ar    
  28 C28            2.4667    -3.3620     1.5091 C.ar    
  29 C29            2.1284    -2.0459     1.2563 C.ar    
  30 O30           -0.6072     4.5703     3.9511 O.3     
  31 O31           -2.1530     3.5420     5.1669 O.2     
  32 C32           -0.3151     5.4138     5.0963 C.3     
  33 C33            0.1360     4.5420     6.2700 C.3     
  34 C34            0.7992     6.3977     4.7340 C.3     
  35 C35           -1.5726     6.1904     5.4917 C.3     
  36 F36            2.4547    -1.4773     0.0750 F       
  37 C37            2.4982    -5.3818     2.9847 C.3     
  38 H38            3.6161     2.7469     0.4924 H       
  39 H39            3.1330     5.6269     0.4856 H       
  40 H40            3.6376     2.8482    -1.9628 H       
  41 H41            3.7494     3.9129    -3.3849 H       
  42 H42            5.0540     3.9054    -2.1740 H       
  43 H43            1.2461     5.5987    -1.2055 H       
  44 H44            1.5257     4.9018    -2.8193 H       
  45 H45            1.4139     3.8371    -1.3973 H       
  46 H46            4.7867     6.4363    -1.7782 H       
  47 H47            3.6440     6.3315    -3.1389 H       
  48 H48            3.1357     7.0787    -1.6054 H       
  49 H49            5.2728     6.8111    -0.1329 H       
  50 H50           -1.2344    -1.0644     2.5760 H       
  51 H51           -1.1821     0.0905     3.9253 H       
  52 H52           -2.4967     0.8993     1.3325 H       
  53 H53           -3.3753    -0.1469     2.4708 H       
  54 H54           -3.8870     2.2353     2.9108 H       
  55 H55           -2.9987     1.5265     4.2816 H       
  56 H56           -0.8191     3.9557     1.6657 H       
  57 H57           -1.8823     2.6985     0.9812 H       
  58 H58            7.5030     5.6186     1.1245 H       
  59 H59            7.6469     5.3647    -0.6313 H       
  60 H60            7.5791     7.0173     0.0263 H       
  61 H61            0.6044    -1.3282     4.2036 H       
  62 H62            1.2069    -3.6747     4.6263 H       
  63 H63            2.9887    -3.9380     0.7593 H       
  64 H64            1.0319     3.9887     5.9883 H       
  65 H65            0.3553     5.1752     7.1297 H       
  66 H66           -0.6578     3.8410     6.5281 H       
  67 H67            0.4778     7.0187     3.8979 H       
  68 H68            1.0184     7.0309     5.5937 H       
  69 H69            1.6951     5.8444     4.4524 H       
  70 H70           -2.3664     5.4894     5.7498 H       
  71 H71           -1.3533     6.8236     6.3514 H       
  72 H72           -1.8940     6.8115     4.6555 H       
  73 H73            1.6865    -6.0304     2.6551 H       
  74 H74            3.4080    -5.6324     2.4392 H       
  75 H75            2.6646    -5.5223     4.0527 H       
@<TRIPOS>BOND
   1    1    2 1
   2    1    5 2
   3    1   21 1
   4    2    3 1
   5    2   17 1
   6    3    4 2
   7    3   22 1
   8    4    5 1
   9    5    6 1
  10    6    7 2
  11    6    8 am
  12    8    9 1
  13    8   38 1
  14    9   10 1
  15    9   12 1
  16    9   39 1
  17   10   11 1
  18   10   13 1
  19   10   14 1
  20   11   40 1
  21   11   41 1
  22   11   42 1
  23   12   15 2
  24   12   16 am
  25   13   43 1
  26   13   44 1
  27   13   45 1
  28   14   46 1
  29   14   47 1
  30   14   48 1
  31   16   24 1
  32   16   49 1
  33   17   18 1
  34   17   50 1
  35   17   51 1
  36   18   19 1
  37   18   52 1
  38   18   53 1
  39   19   20 1
  40   19   54 1
  41   19   55 1
  42   20   21 1
  43   20   23 am
  44   21   56 1
  45   21   57 1
  46   22   25 ar
  47   22   29 ar
  48   23   30 1
  49   23   31 2
  50   24   58 1
  51   24   59 1
  52   24   60 1
  53   25   26 ar
  54   25   61 1
  55   26   27 ar
  56   26   62 1
  57   27   28 ar
  58   27   37 1
  59   28   29 ar
  60   28   63 1
  61   29   36 1
  62   30   32 1
  63   32   33 1
  64   32   34 1
  65   32   35 1
  66   33   64 1
  67   33   65 1
  68   33   66 1
  69   34   67 1
  70   34   68 1
  71   34   69 1
  72   35   70 1
  73   35   71 1
  74   35   72 1
  75   37   73 1
  76   37   74 1
  77   37   75 1

#	End of record

