#	Name: ASD02198819
#	Creating user name:	WinNT
#	Creation time:	15. 06. 2019 20:20

#	Modifying user name:	WinNT
#	Modification time:	15. 06. 2019 20:20

#	Program:	/corina/corina34_cracker 3.40 0067  02.08.2006

@<TRIPOS>MOLECULE
ASD02198819
  51   55    0    0    0
SMALL
NO_CHARGES


@<TRIPOS>ATOM
   1 F1             2.5108    -2.1520     1.9126 F       
   2 C2            -0.0163     1.3526     0.0095 C.2     
   3 C3             0.0021    -0.0041     0.0020 C.2     
   4 N4             1.1722    -0.6813    -0.0128 N.pl3   
   5 N5             2.3181    -0.1068    -0.0206 N.2     
   6 C6             2.4434     1.2030    -0.0148 C.2     
   7 C7             1.2264     2.0304     0.0013 C.2     
   8 C8             1.1303    -2.0796    -0.0194 C.ar    
   9 C9             1.8098    -2.8012     0.9574 C.ar    
  10 C10            1.7673    -4.1826     0.9494 C.ar    
  11 C11            1.0469    -4.8489    -0.0330 C.ar    
  12 C12            0.3692    -4.1279    -1.0081 C.ar    
  13 C13            0.4055    -2.7486    -0.9979 C.ar    
  14 C14            3.7802     1.8310    -0.0237 C.2     
  15 N15            4.5050     2.1821    -1.1278 N.pl3   
  16 N16            5.7092     2.7445    -0.6864 N.2     
  17 C17            5.7218     2.7384     0.6228 C.2     
  18 C18            4.5286     2.1786     1.0795 C.2     
  19 C19            4.1140     2.0097    -2.4617 C.ar    
  20 C20            3.3664     0.8990    -2.8295 C.ar    
  21 C21            2.9823     0.7318    -4.1458 C.ar    
  22 C22            3.3415     1.6691    -5.0966 C.ar    
  23 C23            4.0866     2.7763    -4.7335 C.ar    
  24 C24            4.4684     2.9524    -3.4181 C.ar    
  25 O25            1.2861     3.2510     0.0068 O.2     
  26 N26            1.0039    -6.2499    -0.0411 N.pl3   
  27 N27            1.6364    -7.0995     0.8757 N.2     
  28 C28            1.3653    -8.3358     0.5423 C.2     
  29 C29            0.5523    -8.3142    -0.5962 C.2     
  30 C30            0.3396    -7.0206    -0.9318 C.2     
  31 C31            4.1332     1.9813     2.5202 C.3     
  32 C32            4.4768     3.7950    -5.7733 C.3     
  33 F33            3.9743     3.4053    -7.0195 F       
  34 F34            3.9469     5.0423    -5.4261 F       
  35 F35            5.8715     3.8829    -5.8396 F       
  36 H36           -0.9487     1.8976     0.0169 H       
  37 H37           -0.9298    -0.5499     0.0083 H       
  38 H38            2.2945    -4.7437     1.7068 H       
  39 H39           -0.1901    -4.6474    -1.7721 H       
  40 H40           -0.1220    -2.1891    -1.7563 H       
  41 H41            6.5223     3.1087     1.2461 H       
  42 H42            3.0857     0.1664    -2.0873 H       
  43 H43            2.4011    -0.1321    -4.4325 H       
  44 H44            3.0401     1.5362    -6.1251 H       
  45 H45            5.0498     3.8174    -3.1351 H       
  46 H46            1.7101    -9.2204     1.0571 H       
  47 H47            0.1604    -9.1775    -1.1135 H       
  48 H48           -0.2492    -6.6673    -1.7654 H       
  49 H49            3.6046     2.8656     2.8763 H       
  50 H50            3.4821     1.1111     2.6024 H       
  51 H51            5.0271     1.8247     3.1241 H       
@<TRIPOS>BOND
   1    1    9 1
   2    2    3 2
   3    2    7 1
   4    2   36 1
   5    3    4 1
   6    3   37 1
   7    4    5 1
   8    4    8 1
   9    5    6 2
  10    6    7 1
  11    6   14 1
  12    7   25 2
  13    8    9 ar
  14    8   13 ar
  15    9   10 ar
  16   10   11 ar
  17   10   38 1
  18   11   12 ar
  19   11   26 1
  20   12   13 ar
  21   12   39 1
  22   13   40 1
  23   14   15 1
  24   14   18 2
  25   15   16 1
  26   15   19 1
  27   16   17 2
  28   17   18 1
  29   17   41 1
  30   18   31 1
  31   19   20 ar
  32   19   24 ar
  33   20   21 ar
  34   20   42 1
  35   21   22 ar
  36   21   43 1
  37   22   23 ar
  38   22   44 1
  39   23   24 ar
  40   23   32 1
  41   24   45 1
  42   26   27 1
  43   26   30 1
  44   27   28 2
  45   28   29 1
  46   28   46 1
  47   29   30 2
  48   29   47 1
  49   30   48 1
  50   31   49 1
  51   31   50 1
  52   31   51 1
  53   32   33 1
  54   32   34 1
  55   32   35 1

#	End of record

