#	Name: ASD01870252
#	Creating user name:	WinNT
#	Creation time:	15. 06. 2019 19:38

#	Modifying user name:	WinNT
#	Modification time:	15. 06. 2019 19:38

#	Program:	/corina/corina34_cracker 3.40 0067  02.08.2006

@<TRIPOS>MOLECULE
ASD01870252
  67   72    0    0    0
SMALL
NO_CHARGES


@<TRIPOS>ATOM
   1 C1             0.2236     1.1376    -0.1917 C.ar    
   2 C2             0.3262    -0.2513    -0.1847 C.ar    
   3 C3             1.5425    -0.8669    -0.1751 C.ar    
   4 C4             2.7101    -0.0920    -0.1725 C.ar    
   5 C5             2.6054     1.3252    -0.1802 C.ar    
   6 C6             1.3371     1.9235    -0.1895 C.ar    
   7 C7             3.9920    -0.6726    -0.1631 C.ar    
   8 N8             5.0614     0.0793    -0.1610 N.ar    
   9 C9             5.0089     1.4184    -0.1680 C.ar    
  10 C10            3.7892     2.0739    -0.1779 C.ar    
  11 C11            6.0793     2.4392    -0.1678 C.2     
  12 N12            5.5484     3.6736    -0.1771 N.am    
  13 C13            4.0860     3.5509    -0.1842 C.3     
  14 C14            6.3022     4.9298    -0.1788 C.3     
  15 C15            7.1752     5.0024     1.0756 C.3     
  16 C16            8.1496     3.8229     1.0878 C.3     
  17 C17            9.0383     3.8827    -0.1563 C.3     
  18 C18            8.1653     3.8101    -1.4106 C.3     
  19 C19            7.1909     4.9896    -1.4228 C.3     
  20 C20            4.1331    -2.1730    -0.1549 C.3     
  21 C21            4.1873    -2.6802    -1.5729 C.ar    
  22 C22            5.4000    -2.8033    -2.2236 C.ar    
  23 N23            5.4608    -3.2462    -3.4637 N.ar    
  24 C24            4.3685    -3.5896    -4.1336 C.ar    
  25 C25            3.1122    -3.4906    -3.5383 C.ar    
  26 C26            3.0198    -3.0338    -2.2357 C.ar    
  27 O27            7.2702     2.1960    -0.1602 O.2     
  28 O28            6.3451     4.9466     2.2375 O.3     
  29 C29            4.4851    -4.0825    -5.5278 C.2     
  30 C30            3.4176    -4.3887    -6.3951 C.2     
  31 N31            3.9212    -4.7901    -7.5317 N.2     
  32 C32            5.6463    -4.3165    -6.2066 C.2     
  33 C33            3.7535     5.7079    -1.4004 C.3     
  34 C34            3.5098     4.1981    -1.4451 C.3     
  35 N35            5.3176    -4.7567    -7.4366 N.pl3   
  36 C36            6.2593    -5.1309    -8.4946 C.3     
  37 H37           -0.7529     1.5988    -0.2036 H       
  38 H38           -0.5724    -0.8504    -0.1867 H       
  39 H39            1.6058    -1.9450    -0.1690 H       
  40 H40            1.2434     2.9994    -0.1957 H       
  41 H41            3.6661     4.0215     0.7048 H       
  42 H42            5.6079     5.7701    -0.1875 H       
  43 H43            7.7360     5.9371     1.0743 H       
  44 H44            8.7716     3.8747     1.9814 H       
  45 H45            7.5888     2.8883     1.0890 H       
  46 H46            9.5992     4.8174    -0.1575 H       
  47 H47            9.7325     3.0425    -0.1476 H       
  48 H48            8.7984     3.8527    -2.2969 H       
  49 H49            7.6045     2.8755    -1.4094 H       
  50 H50            6.5689     4.9378    -2.3165 H       
  51 H51            7.7517     5.9242    -1.4241 H       
  52 H52            5.0505    -2.4488     0.3650 H       
  53 H53            3.2784    -2.6155     0.3569 H       
  54 H54            6.3103    -2.5326    -1.7094 H       
  55 H55            2.2237    -3.7705    -4.0848 H       
  56 H56            2.0601    -2.9468    -1.7480 H       
  57 H57            6.8327     4.9879     3.0715 H       
  58 H58            2.3665    -4.3064    -6.1609 H       
  59 H59            6.6471    -4.1763    -5.8257 H       
  60 H60            3.4769     6.0917    -0.4184 H       
  61 H61            4.8082     5.9113    -1.5861 H       
  62 H62            3.1492     6.1963    -2.1648 H       
  63 H63            3.9970     3.7773    -2.3246 H       
  64 H64            2.4383     4.0044    -1.4957 H       
  65 H65            6.4934    -4.2548    -9.0993 H       
  66 H66            7.1744    -5.5179    -8.0463 H       
  67 H67            5.8109    -5.8985    -9.1254 H       
@<TRIPOS>BOND
   1    1    2 ar
   2    1    6 ar
   3    1   37 1
   4    2    3 ar
   5    2   38 1
   6    3    4 ar
   7    3   39 1
   8    4    5 ar
   9    4    7 ar
  10    5    6 ar
  11    5   10 ar
  12    6   40 1
  13    7    8 ar
  14    7   20 1
  15    8    9 ar
  16    9   10 ar
  17    9   11 1
  18   10   13 1
  19   11   12 am
  20   11   27 2
  21   12   13 1
  22   12   14 1
  23   13   34 1
  24   13   41 1
  25   14   15 1
  26   14   19 1
  27   14   42 1
  28   15   16 1
  29   15   28 1
  30   15   43 1
  31   16   17 1
  32   16   44 1
  33   16   45 1
  34   17   18 1
  35   17   46 1
  36   17   47 1
  37   18   19 1
  38   18   48 1
  39   18   49 1
  40   19   50 1
  41   19   51 1
  42   20   21 1
  43   20   52 1
  44   20   53 1
  45   21   22 ar
  46   21   26 ar
  47   22   23 ar
  48   22   54 1
  49   23   24 ar
  50   24   25 ar
  51   24   29 1
  52   25   26 ar
  53   25   55 1
  54   26   56 1
  55   28   57 1
  56   29   30 1
  57   29   32 2
  58   30   31 2
  59   30   58 1
  60   31   35 1
  61   32   35 1
  62   32   59 1
  63   33   34 1
  64   33   60 1
  65   33   61 1
  66   33   62 1
  67   34   63 1
  68   34   64 1
  69   35   36 1
  70   36   65 1
  71   36   66 1
  72   36   67 1

#	End of record

