#	Name: ASD09740527
#	Creating user name:	WinNT
#	Creation time:	15. 06. 2019 21:23

#	Modifying user name:	WinNT
#	Modification time:	15. 06. 2019 21:23

#	Program:	/corina/corina34_cracker 3.40 0067  02.08.2006

@<TRIPOS>MOLECULE
ASD09740527
  61   65    0    0    0
SMALL
NO_CHARGES


@<TRIPOS>ATOM
   1 N1            -0.1244     1.4213     0.8868 N.2     
   2 C2            -0.1203     0.1333     1.1243 C.2     
   3 C3             1.0002     2.0605     1.0483 C.2     
   4 S4             2.2440     0.9252     1.5651 S.3     
   5 C5             1.0654    -0.3842     1.5133 C.2     
   6 C6             1.2002     3.5083     0.8312 C.ar    
   7 C7             0.1341     4.3048     0.4204 C.ar    
   8 C8             2.4584     4.0798     1.0438 C.ar    
   9 C9             2.6504     5.4298     0.8434 C.ar    
  10 C10            1.5966     6.2319     0.4295 C.ar    
  11 C11            0.3285     5.6700     0.2177 C.ar    
  12 O12            1.7912     7.5602     0.2346 O.3     
  13 C13            3.1303     8.0444     0.3553 C.3     
  14 C14            3.2800     9.3364    -0.4505 C.3     
  15 C15            3.4413     8.3224     1.8273 C.3     
  16 C16           -0.7609     6.4954    -0.2099 C.1     
  17 N17           -1.6250     7.1501    -0.5491 N.1     
  18 C18            1.3285    -1.8017     1.8388 C.ar    
  19 C19            2.4152    -2.4629     1.2591 C.ar    
  20 C20            2.6553    -3.7862     1.5671 C.ar    
  21 C21            1.8195    -4.4538     2.4488 C.ar    
  22 C22            0.7432    -3.8045     3.0244 C.ar    
  23 C23            0.4959    -2.4800     2.7293 C.ar    
  24 C24            3.4588    -1.9656     0.2822 C.3     
  25 C25            4.6093    -2.9914     0.3639 C.3     
  26 C26            3.8779    -4.2724     0.8181 C.3     
  27 N27            4.7393    -5.0632     1.7073 N.3     
  28 C28            5.0439    -4.3240     2.9390 C.3     
  29 C29            5.8182    -5.2287     3.9002 C.3     
  30 C30            7.1133    -5.6911     3.2267 C.3     
  31 C31            6.7704    -6.4157     1.9222 C.3     
  32 C32            5.9685    -5.4765     1.0183 C.3     
  33 H33           -1.0063    -0.4748     1.0167 H       
  34 H34           -0.8396     3.8661     0.2592 H       
  35 H35            3.2827     3.4612     1.3667 H       
  36 H36            3.6248     5.8650     1.0094 H       
  37 H37            3.8234     7.2952    -0.0273 H       
  38 H38            2.5869    10.0856    -0.0679 H       
  39 H39            4.3014     9.7056    -0.3585 H       
  40 H40            3.0584     9.1383    -1.4992 H       
  41 H41            2.7482     9.0716     2.2099 H       
  42 H42            3.3347     7.4020     2.4013 H       
  43 H43            4.4627     8.6917     1.9193 H       
  44 H44            2.0105    -5.4896     2.6877 H       
  45 H45            0.0978    -4.3338     3.7098 H       
  46 H46           -0.3447    -1.9724     3.1790 H       
  47 H47            3.0487    -1.9368    -0.7273 H       
  48 H48            3.8117    -0.9772     0.5763 H       
  49 H49            5.0711    -3.1345    -0.6129 H       
  50 H50            5.3497    -2.6852     1.1029 H       
  51 H51            3.5805    -4.8651    -0.0470 H       
  52 H52            5.6478    -3.4493     2.6976 H       
  53 H53            4.1144    -4.0046     3.4102 H       
  54 H54            6.0577    -4.6749     4.8080 H       
  55 H55            5.2094    -6.0969     4.1529 H       
  56 H56            7.7396    -4.8259     3.0091 H       
  57 H57            7.6470    -6.3704     3.8913 H       
  58 H58            7.6901    -6.7098     1.4167 H       
  59 H59            6.1765    -7.3025     2.1437 H       
  60 H60            5.7104    -5.9942     0.0944 H       
  61 H61            6.5681    -4.5964     0.7859 H       
@<TRIPOS>BOND
   1    1    2 1
   2    1    3 2
   3    2    5 2
   4    2   33 1
   5    3    4 1
   6    3    6 1
   7    4    5 1
   8    5   18 1
   9    6    7 ar
  10    6    8 ar
  11    7   11 ar
  12    7   34 1
  13    8    9 ar
  14    8   35 1
  15    9   10 ar
  16    9   36 1
  17   10   11 ar
  18   10   12 1
  19   11   16 1
  20   12   13 1
  21   13   14 1
  22   13   15 1
  23   13   37 1
  24   14   38 1
  25   14   39 1
  26   14   40 1
  27   15   41 1
  28   15   42 1
  29   15   43 1
  30   16   17 3
  31   18   19 ar
  32   18   23 ar
  33   19   20 ar
  34   19   24 1
  35   20   21 ar
  36   20   26 1
  37   21   22 ar
  38   21   44 1
  39   22   23 ar
  40   22   45 1
  41   23   46 1
  42   24   25 1
  43   24   47 1
  44   24   48 1
  45   25   26 1
  46   25   49 1
  47   25   50 1
  48   26   27 1
  49   26   51 1
  50   27   28 1
  51   27   32 1
  52   28   29 1
  53   28   52 1
  54   28   53 1
  55   29   30 1
  56   29   54 1
  57   29   55 1
  58   30   31 1
  59   30   56 1
  60   30   57 1
  61   31   32 1
  62   31   58 1
  63   31   59 1
  64   32   60 1
  65   32   61 1

#	End of record

