#	Name: ASD04880417
#	Creating user name:	WinNT
#	Creation time:	15. 06. 2019 20:53

#	Modifying user name:	WinNT
#	Modification time:	15. 06. 2019 20:53

#	Program:	/corina/corina34_cracker 3.40 0067  02.08.2006

@<TRIPOS>MOLECULE
ASD04880417
  48   51    0    0    0
SMALL
NO_CHARGES


@<TRIPOS>ATOM
   1 C1            -0.0507     1.3840     0.3512 C.ar    
   2 C2            -0.0293    -0.0061     0.2899 C.ar    
   3 C3            -1.2101    -0.7140     0.2638 C.ar    
   4 C4            -2.4315    -0.0346     0.2989 C.ar    
   5 C5            -2.4493     1.3620     0.3605 C.ar    
   6 C6            -1.2647     2.0633     0.3921 C.ar    
   7 C7            -3.6971    -0.7887     0.2707 C.2     
   8 N8            -3.7969    -2.0725     0.2146 N.2     
   9 N9            -5.1090    -2.5412     0.1999 N.am    
  10 C10           -6.0257    -1.3914     0.2546 C.3     
  11 C11           -5.0789    -0.1761     0.3096 C.3     
  12 C12           -5.4783    -3.8362     0.1441 C.2     
  13 C13           -4.4563    -4.8891    -0.0326 C.ar    
  14 O14           -6.6523    -4.1383     0.2391 O.2     
  15 C15           -4.8138    -6.2344     0.0601 C.ar    
  16 C16           -3.8505    -7.2156    -0.1066 C.ar    
  17 C17           -2.5335    -6.8595    -0.3647 C.ar    
  18 C18           -2.1777    -5.5264    -0.4564 C.ar    
  19 C19           -3.1304    -4.5411    -0.2987 C.ar    
  20 O20           -4.1944    -8.5272    -0.0170 O.3     
  21 S21            1.4626     2.2858     0.3844 S.3     
  22 C22            0.9079     4.0112     0.4627 C.3     
  23 C23           -5.0129    -9.0388    -0.9734 C.ar    
  24 C24           -5.4857   -10.3385    -0.8610 C.ar    
  25 C25           -6.3181   -10.8560    -1.8344 C.ar    
  26 C26           -6.6802   -10.0801    -2.9201 C.ar    
  27 C27           -6.2105    -8.7847    -3.0345 C.ar    
  28 C28           -5.3821    -8.2605    -2.0612 C.ar    
  29 H29            0.9145    -0.5303     0.2624 H       
  30 H30           -1.1928    -1.7928     0.2158 H       
  31 H31           -3.3911     1.8900     0.3874 H       
  32 H32           -1.2777     3.1422     0.4396 H       
  33 H33           -6.6498    -1.3555    -0.6383 H       
  34 H34           -6.6417    -1.4344     1.1529 H       
  35 H35           -5.2285     0.3837     1.2328 H       
  36 H36           -5.2313     0.4667    -0.5574 H       
  37 H37           -5.8385    -6.5099     0.2616 H       
  38 H38           -1.7843    -7.6265    -0.4939 H       
  39 H39           -1.1515    -5.2558    -0.6566 H       
  40 H40           -2.8490    -3.5009    -0.3713 H       
  41 H41            1.7753     4.6709     0.4881 H       
  42 H42            0.3038     4.2388    -0.4155 H       
  43 H43            0.3114     4.1605     1.3627 H       
  44 H44           -5.2028   -10.9451    -0.0134 H       
  45 H45           -6.6860   -11.8677    -1.7476 H       
  46 H46           -7.3308   -10.4867    -3.6802 H       
  47 H47           -6.4949    -8.1807    -3.8835 H       
  48 H48           -5.0158    -7.2485    -2.1509 H       
@<TRIPOS>BOND
   1    1    2 ar
   2    1   21 1
   3    1    6 ar
   4    2    3 ar
   5    2   29 1
   6    3    4 ar
   7    3   30 1
   8    4    5 ar
   9    4    7 1
  10    5    6 ar
  11    5   31 1
  12    6   32 1
  13    7    8 2
  14    7   11 1
  15    8    9 1
  16    9   10 1
  17    9   12 am
  18   10   11 1
  19   10   33 1
  20   10   34 1
  21   11   35 1
  22   11   36 1
  23   12   13 1
  24   12   14 2
  25   13   15 ar
  26   13   19 ar
  27   15   16 ar
  28   15   37 1
  29   16   17 ar
  30   16   20 1
  31   17   18 ar
  32   17   38 1
  33   18   19 ar
  34   18   39 1
  35   19   40 1
  36   20   23 1
  37   21   22 1
  38   22   41 1
  39   22   42 1
  40   22   43 1
  41   23   24 ar
  42   23   28 ar
  43   24   25 ar
  44   24   44 1
  45   25   26 ar
  46   25   45 1
  47   26   27 ar
  48   26   46 1
  49   27   28 ar
  50   27   47 1
  51   28   48 1

#	End of record

