#	Name: ASD05730068
#	Creating user name:	WinNT
#	Creation time:	15. 06. 2019 21:02

#	Modifying user name:	WinNT
#	Modification time:	15. 06. 2019 21:02

#	Program:	/corina/corina34_cracker 3.40 0067  02.08.2006

@<TRIPOS>MOLECULE
ASD05730068
  89   95    0    0    0
SMALL
NO_CHARGES


@<TRIPOS>ATOM
   1 N1            -0.0754     1.3958    -0.0062 N.3     
   2 C2            -0.0418    -0.0049    -0.0102 C.ar    
   3 C3             0.9024    -0.6742    -0.7756 C.ar    
   4 C4             0.9361    -2.0554    -0.7793 C.ar    
   5 C5             0.0256    -2.7748    -0.0174 C.ar    
   6 C6            -0.9203    -2.1063     0.7494 C.ar    
   7 C7            -0.9512    -0.7247     0.7577 C.ar    
   8 N8             0.0603    -4.1750    -0.0223 N.pl3   
   9 C9            -0.2493    -4.8777     1.1264 C.ar    
  10 N10           -0.3216    -6.1986     1.0662 N.ar    
  11 C11           -0.6162    -6.9083     2.1497 C.ar    
  12 C12           -0.8501    -6.2271     3.3635 C.ar    
  13 C13           -0.7617    -4.8274     3.3753 C.ar    
  14 N14           -0.4584    -4.2039     2.2520 N.ar    
  15 N15           -0.6936    -8.2773     2.0966 N.am    
  16 C16           -0.9932    -8.9916     3.1985 C.2     
  17 C17           -1.2419    -8.3156     4.4734 C.2     
  18 C18           -1.1657    -6.9515     4.5366 C.2     
  19 C19           -0.4485    -8.9689     0.8286 C.3     
  20 C20            1.0401    -9.3015     0.7085 C.3     
  21 O21           -1.0580   -10.2064     3.1341 O.2     
  22 C22           -1.5723    -9.1036     5.6862 C.2     
  23 C23           -1.3167     1.8945    -0.6144 C.3     
  24 C24           -1.3506     3.4217    -0.5191 C.3     
  25 N25           -0.1733     3.9787    -1.1998 N.3     
  26 C26            1.0680     3.4799    -0.5916 C.3     
  27 C27            1.1019     1.9528    -0.6869 C.3     
  28 C28            2.2711     4.0646    -1.3344 C.3     
  29 F29           -1.8705    -0.0736     1.5035 F       
  30 C30            1.4833   -10.1321    -0.4975 C.3     
  31 C31            1.8219    -8.6416    -0.4291 C.3     
  32 C32           -2.8228    -9.4620     6.0996 C.2     
  33 N33           -2.6881   -10.1685     7.2411 N.am    
  34 N34           -1.3240   -10.2521     7.5455 N.2     
  35 C35           -0.6519    -9.6234     6.6177 C.2     
  36 S36           -3.9229   -10.8233     8.1292 S.o2    
  37 O37           -5.0445   -10.0049     7.8266 O.2     
  38 C38           -4.1440   -12.4865     7.4396 C.3     
  39 O39           -3.4043   -10.8960     9.4502 O.2     
  40 C40           -5.3517   -13.1577     8.0996 C.3     
  41 C41           -4.3866   -12.3868     5.9311 C.3     
  42 C42           -4.6327   -13.7873     5.3653 C.3     
  43 N43           -5.7981   -14.3865     6.0281 N.3     
  44 C44           -5.5698   -14.5358     7.4710 C.3     
  45 C45           -6.1483   -15.6744     5.4144 C.3     
  46 C46            0.8463    -9.4716     6.5600 C.3     
  47 C47           -4.1190    -9.1285     5.4069 C.3     
  48 H48            1.6110    -0.1153    -1.3689 H       
  49 H49            1.6711    -2.5757    -1.3756 H       
  50 H50           -1.6289    -2.6660     1.3418 H       
  51 H51            0.3017    -4.6513    -0.8320 H       
  52 H52           -0.9341    -4.2717     4.2852 H       
  53 H53           -1.3456    -6.4351     5.4679 H       
  54 H54           -1.0302    -9.8902     0.7988 H       
  55 H55           -0.7449    -8.3252     0.0004 H       
  56 H56            1.5630    -9.4639     1.6510 H       
  57 H57           -1.3547     1.5946    -1.6616 H       
  58 H58           -2.1738     1.4780    -0.0852 H       
  59 H59           -2.2569     3.7957    -0.9953 H       
  60 H60           -1.3402     3.7210     0.5290 H       
  61 H61           -0.1982     3.7772    -2.1882 H       
  62 H62            1.1060     3.7799     0.4556 H       
  63 H63            2.0082     1.5787    -0.2106 H       
  64 H64            1.0915     1.6535    -1.7350 H       
  65 H65            2.2456     5.1522    -1.2680 H       
  66 H66            3.1917     3.6945    -0.8831 H       
  67 H67            2.2331     3.7635    -2.3813 H       
  68 H68            2.2981   -10.8407    -0.3485 H       
  69 H69            0.7144   -10.4416    -1.2054 H       
  70 H70            1.2757    -7.9705    -1.0920 H       
  71 H71            2.8594    -8.3696    -0.2351 H       
  72 H72           -3.2495   -13.0804     7.6272 H       
  73 H73           -5.1667   -13.2701     9.1679 H       
  74 H74           -6.2386   -12.5430     7.9459 H       
  75 H75           -5.2584   -11.7601     5.7433 H       
  76 H76           -3.5121   -11.9485     5.4500 H       
  77 H77           -4.8199   -13.7184     4.2937 H       
  78 H78           -3.7552   -14.4095     5.5412 H       
  79 H79           -4.6879   -15.1545     7.6370 H       
  80 H80           -6.4377   -15.0105     7.9288 H       
  81 H81           -5.3054   -16.3599     5.5024 H       
  82 H82           -7.0145   -16.0962     5.9242 H       
  83 H83           -6.3848   -15.5227     4.3612 H       
  84 H84            1.2750   -10.3062     6.0051 H       
  85 H85            1.0977    -8.5360     6.0605 H       
  86 H86            1.2499    -9.4629     7.5725 H       
  87 H87           -4.3631    -9.9162     4.6941 H       
  88 H88           -4.9158    -9.0478     6.1462 H       
  89 H89           -4.0155    -8.1804     4.8792 H       
@<TRIPOS>BOND
   1    1    2 1
   2    1   23 1
   3    1   27 1
   4    2    3 ar
   5    2    7 ar
   6    3    4 ar
   7    3   48 1
   8    4    5 ar
   9    4   49 1
  10    5    6 ar
  11    5    8 1
  12    6    7 ar
  13    6   50 1
  14    7   29 1
  15    8    9 1
  16    8   51 1
  17    9   10 ar
  18    9   14 ar
  19   10   11 ar
  20   11   12 ar
  21   11   15 1
  22   12   13 ar
  23   12   18 1
  24   13   14 ar
  25   13   52 1
  26   15   16 am
  27   15   19 1
  28   16   17 1
  29   16   21 2
  30   17   18 2
  31   17   22 1
  32   18   53 1
  33   19   20 1
  34   19   54 1
  35   19   55 1
  36   20   30 1
  37   20   31 1
  38   20   56 1
  39   22   32 2
  40   22   35 1
  41   23   24 1
  42   23   57 1
  43   23   58 1
  44   24   25 1
  45   24   59 1
  46   24   60 1
  47   25   26 1
  48   25   61 1
  49   26   27 1
  50   26   28 1
  51   26   62 1
  52   27   63 1
  53   27   64 1
  54   28   65 1
  55   28   66 1
  56   28   67 1
  57   30   31 1
  58   30   68 1
  59   30   69 1
  60   31   70 1
  61   31   71 1
  62   32   33 1
  63   32   47 1
  64   33   34 1
  65   33   36 am
  66   34   35 2
  67   35   46 1
  68   36   37 2
  69   36   38 1
  70   36   39 2
  71   38   40 1
  72   38   41 1
  73   38   72 1
  74   40   44 1
  75   40   73 1
  76   40   74 1
  77   41   42 1
  78   41   75 1
  79   41   76 1
  80   42   43 1
  81   42   77 1
  82   42   78 1
  83   43   44 1
  84   43   45 1
  85   44   79 1
  86   44   80 1
  87   45   81 1
  88   45   82 1
  89   45   83 1
  90   46   84 1
  91   46   85 1
  92   46   86 1
  93   47   87 1
  94   47   88 1
  95   47   89 1

#	End of record

