#	Name: ASD01915314
#	Creating user name:	WinNT
#	Creation time:	15. 06. 2019 20:05

#	Modifying user name:	WinNT
#	Modification time:	15. 06. 2019 20:05

#	Program:	/corina/corina34_cracker 3.40 0067  02.08.2006

@<TRIPOS>MOLECULE
ASD01915314
  47   50    0    0    0
SMALL
NO_CHARGES


@<TRIPOS>ATOM
   1 N1             0.0552     1.3619     0.2921 N.2     
   2 N2             0.0654    -0.0342     0.1372 N.pl3   
   3 N3             1.2523    -0.3612    -0.2471 N.2     
   4 N4             1.9780     0.6957    -0.3455 N.2     
   5 C5             1.2637     1.7686    -0.0188 C.2     
   6 C6             1.7530     3.1939    -0.0084 C.3     
   7 C7            -1.0103    -0.9065     0.3585 C.ar    
   8 C8            -0.8504    -2.2714     0.1630 C.ar    
   9 C9            -1.9116    -3.1282     0.3822 C.ar    
  10 C10           -3.1321    -2.6275     0.7958 C.ar    
  11 C11           -3.2945    -1.2681     0.9914 C.ar    
  12 C12           -2.2357    -0.4072     0.7790 C.ar    
  13 C13           -1.7389    -4.6102     0.1697 C.3     
  14 N14            2.7544     3.3631     1.0533 N.am    
  15 C15            3.4740     4.6405     1.1487 C.3     
  16 C16            4.1043     4.9542    -0.2119 C.3     
  17 C17            3.0199     4.9226    -1.2914 C.3     
  18 C18            2.4026     3.5238    -1.3560 C.3     
  19 C19            3.0079     2.3656     1.9235 C.2     
  20 O20            2.3360     1.3562     1.9013 O.2     
  21 C21            4.1262     2.5045     2.9240 C.3     
  22 C22            4.2857     1.2821     3.8434 C.3     
  23 C23            5.8051     1.4674     3.6953 C.3     
  24 C24            5.5109     2.1567     2.3525 C.3     
  25 H25            0.9143     3.8668     0.1698 H       
  26 H26            0.1027    -2.6631    -0.1605 H       
  27 H27           -3.9605    -3.2992     0.9662 H       
  28 H28           -4.2491    -0.8798     1.3146 H       
  29 H29           -2.3631     0.6544     0.9319 H       
  30 H30           -1.4085    -5.0744     1.0989 H       
  31 H31           -2.6897    -5.0465    -0.1364 H       
  32 H32           -0.9937    -4.7814    -0.6071 H       
  33 H33            2.7767     5.4333     1.4199 H       
  34 H34            4.2556     4.5642     1.9046 H       
  35 H35            4.5595     5.9441    -0.1824 H       
  36 H36            4.8666     4.2093    -0.4401 H       
  37 H37            2.2454     5.6505    -1.0495 H       
  38 H38            3.4614     5.1697    -2.2569 H       
  39 H39            3.1809     2.7923    -1.5734 H       
  40 H40            1.6467     3.4956    -2.1408 H       
  41 H41            4.0994     3.4533     3.4599 H       
  42 H42            3.9223     1.4482     4.8575 H       
  43 H43            3.9141     0.3554     3.4060 H       
  44 H44            6.2386     2.1328     4.4419 H       
  45 H45            6.3515     0.5297     3.5943 H       
  46 H46            5.4743     1.4691     1.5075 H       
  47 H47            6.1367     3.0288     2.1630 H       
@<TRIPOS>BOND
   1    1    2 1
   2    1    5 2
   3    2    3 1
   4    2    7 1
   5    3    4 2
   6    4    5 1
   7    5    6 1
   8    6   14 1
   9    6   18 1
  10    6   25 1
  11    7    8 ar
  12    7   12 ar
  13    8    9 ar
  14    8   26 1
  15    9   10 ar
  16    9   13 1
  17   10   11 ar
  18   10   27 1
  19   11   12 ar
  20   11   28 1
  21   12   29 1
  22   13   30 1
  23   13   31 1
  24   13   32 1
  25   14   15 1
  26   14   19 am
  27   15   16 1
  28   15   33 1
  29   15   34 1
  30   16   17 1
  31   16   35 1
  32   16   36 1
  33   17   18 1
  34   17   37 1
  35   17   38 1
  36   18   39 1
  37   18   40 1
  38   19   20 2
  39   19   21 1
  40   21   22 1
  41   21   24 1
  42   21   41 1
  43   22   23 1
  44   22   42 1
  45   22   43 1
  46   23   24 1
  47   23   44 1
  48   23   45 1
  49   24   46 1
  50   24   47 1

#	End of record

