#	Name: ASD01410706
#	Creating user name:	WinNT
#	Creation time:	15. 06. 2019 19:18

#	Modifying user name:	WinNT
#	Modification time:	15. 06. 2019 19:18

#	Program:	/corina/corina34_cracker 3.40 0067  02.08.2006

@<TRIPOS>MOLECULE
ASD01410706
  82   87    0    0    0
SMALL
NO_CHARGES


@<TRIPOS>ATOM
   1 N1            -0.0205     1.6631     0.0112 N.am    
   2 C2            -2.8623     2.4009    -1.9778 C.3     
   3 N3            -2.7349     0.8381    -5.1294 N.am    
   4 S4             0.0021    -0.0041     0.0020 S.o2    
   5 O5            -0.0722    -0.4114    -1.3530 O.2     
   6 N6             1.4834    -0.4897     0.5992 N.am    
   7 O7            -0.9694    -0.4081     0.9678 O.2     
   8 C8             2.5766    -0.4012    -0.1595 C.2     
   9 O9             3.5922    -0.7110     0.4733 O.2     
  10 C10            2.8800    -0.0640    -1.5225 C.ar    
  11 C11            4.0996     0.6346    -1.7008 C.ar    
  12 C12            4.5251     1.1169    -2.9021 C.ar    
  13 C13            3.6905     0.8868    -4.0039 C.ar    
  14 C14            2.5067     0.1211    -3.8683 C.ar    
  15 C15            2.1082    -0.4025    -2.6396 C.ar    
  16 C16            3.7607     1.3065    -5.3393 C.2     
  17 C17            2.6746     0.8541    -5.9972 C.2     
  18 N18            1.9171     0.1044    -5.1022 N.pl3   
  19 C19            4.8917     2.1447    -5.8890 C.3     
  20 C20            4.9587     3.4716    -5.1303 C.3     
  21 C21            6.2132     1.3926    -5.7188 C.3     
  22 C22            7.3583     2.2412    -6.2754 C.3     
  23 C23            7.4252     3.5681    -5.5166 C.3     
  24 C24            6.1037     4.3201    -5.6868 C.3     
  25 C25            2.2807     1.0941    -7.3960 C.ar    
  26 C26            0.9456     1.2778    -7.7833 C.ar    
  27 C27           -0.1662     1.2567    -6.8405 C.2     
  28 C28           -0.3511     0.5069    -5.7786 C.2     
  29 C29            0.6639    -0.5699    -5.4470 C.3     
  30 C30           -1.4354     0.6541    -4.8361 C.2     
  31 O31           -1.1423     0.5917    -3.6287 O.2     
  32 C32            3.2898     1.1009    -8.3659 C.ar    
  33 C33            2.9935     1.3142    -9.6931 C.ar    
  34 C34            1.6745     1.4918   -10.0896 C.ar    
  35 C35            0.6679     1.4718    -9.1486 C.ar    
  36 F36            1.3760     1.6671   -11.3901 F       
  37 C37           -3.6421     1.5418    -2.9687 C.3     
  38 C38           -3.3344     1.9876    -4.3903 C.3     
  39 C39           -2.3611     1.5314    -0.8163 C.3     
  40 C40           -1.3487     2.3155     0.0205 C.3     
  41 C41            1.2045     2.4616     0.0038 C.3     
  42 C42           -3.5161     0.0435    -6.0736 C.3     
  43 C43           -1.2078     2.2991    -7.1164 C.3     
  44 H44           -1.9991     2.8354    -2.4905 H       
  45 H45           -3.4942     3.1989    -1.5976 H       
  46 H46            1.5560    -0.8471     1.5166 H       
  47 H47            4.7279     0.7947    -0.8361 H       
  48 H48            5.4602     1.6484    -2.9957 H       
  49 H49            1.2656    -1.0770    -2.5774 H       
  50 H50            4.7183     2.3397    -6.9473 H       
  51 H51            4.0172     4.0074    -5.2515 H       
  52 H52            5.1321     3.2766    -4.0719 H       
  53 H53            6.3866     1.1977    -4.6605 H       
  54 H54            6.1655     0.4473    -6.2594 H       
  55 H55            8.2997     1.7054    -6.1541 H       
  56 H56            7.1848     2.4362    -7.3337 H       
  57 H57            7.5986     3.3731    -4.4583 H       
  58 H58            8.2409     4.1726    -5.9131 H       
  59 H59            5.9303     4.5151    -6.7451 H       
  60 H60            6.1514     5.2655    -5.1463 H       
  61 H61            0.8105    -1.1836    -6.3311 H       
  62 H62            0.3026    -1.1552    -4.6162 H       
  63 H63            4.3167     0.9154    -8.0907 H       
  64 H64            3.7889     1.3519   -10.4235 H       
  65 H65           -0.3476     1.6007    -9.4952 H       
  66 H66           -3.3667     0.4959    -2.8438 H       
  67 H67           -4.7099     1.6549    -2.7787 H       
  68 H68           -2.5963     2.7950    -4.3560 H       
  69 H69           -4.2348     2.3255    -4.8920 H       
  70 H70           -3.2062     1.2453    -0.1863 H       
  71 H71           -1.8945     0.6365    -1.2190 H       
  72 H72           -1.7057     2.3827     1.0451 H       
  73 H73           -1.2540     3.3238    -0.3895 H       
  74 H74            2.0699     1.7991    -0.0080 H       
  75 H75            1.2198     3.0952    -0.8830 H       
  76 H76            1.2368     3.0856     0.8969 H       
  77 H77           -2.8826    -0.7288    -6.5098 H       
  78 H78           -4.3512    -0.4235    -5.5516 H       
  79 H79           -3.8975     0.6899    -6.8640 H       
  80 H80           -0.9172     2.8805    -7.9913 H       
  81 H81           -2.1660     1.8146    -7.3040 H       
  82 H82           -1.2976     2.9601    -6.2543 H       
@<TRIPOS>BOND
   1    1    4 am
   2    1   41 1
   3    1   40 1
   4    2   37 1
   5    2   39 1
   6    2   44 1
   7    2   45 1
   8    3   30 am
   9    3   42 1
  10    3   38 1
  11    4    5 2
  12    4    6 am
  13    4    7 2
  14    6    8 am
  15    6   46 1
  16    8    9 2
  17    8   10 1
  18   10   11 ar
  19   10   15 ar
  20   11   12 ar
  21   11   47 1
  22   12   13 ar
  23   12   48 1
  24   13   14 ar
  25   13   16 1
  26   14   15 ar
  27   14   18 1
  28   15   49 1
  29   16   17 2
  30   16   19 1
  31   17   18 1
  32   17   25 1
  33   18   29 1
  34   19   20 1
  35   19   21 1
  36   19   50 1
  37   20   24 1
  38   20   51 1
  39   20   52 1
  40   21   22 1
  41   21   53 1
  42   21   54 1
  43   22   23 1
  44   22   55 1
  45   22   56 1
  46   23   24 1
  47   23   57 1
  48   23   58 1
  49   24   59 1
  50   24   60 1
  51   25   26 ar
  52   25   32 ar
  53   26   27 1
  54   26   35 ar
  55   27   28 2
  56   27   43 1
  57   28   29 1
  58   28   30 1
  59   29   61 1
  60   29   62 1
  61   30   31 2
  62   32   33 ar
  63   32   63 1
  64   33   34 ar
  65   33   64 1
  66   34   35 ar
  67   34   36 1
  68   35   65 1
  69   37   38 1
  70   37   66 1
  71   37   67 1
  72   38   68 1
  73   38   69 1
  74   39   40 1
  75   39   70 1
  76   39   71 1
  77   40   72 1
  78   40   73 1
  79   41   74 1
  80   41   75 1
  81   41   76 1
  82   42   77 1
  83   42   78 1
  84   42   79 1
  85   43   80 1
  86   43   81 1
  87   43   82 1

#	End of record

