#	Name: ASD01913922
#	Creating user name:	WinNT
#	Creation time:	15. 06. 2019 20:02

#	Modifying user name:	WinNT
#	Modification time:	15. 06. 2019 20:02

#	Program:	/corina/corina34_cracker 3.40 0067  02.08.2006

@<TRIPOS>MOLECULE
ASD01913922
  43   45    0    0    0
SMALL
NO_CHARGES


@<TRIPOS>ATOM
   1 C1            -0.0173     1.4278     0.0099 C.ar    
   2 C2             0.0021    -0.0041     0.0020 C.1     
   3 C3             0.0180    -1.1779    -0.0044 C.1     
   4 C4             0.0374    -2.6098    -0.0123 C.ar    
   5 C5            -1.1552    -3.3455    -0.0049 C.ar    
   6 C6             0.0738    -5.2913    -0.0280 C.ar    
   7 N7             1.2234    -4.6330    -0.0407 N.ar    
   8 C8             1.2495    -3.3127    -0.0336 C.ar    
   9 N9            -1.0934    -4.6646    -0.0130 N.ar    
  10 C10            1.1562     3.5252     0.0099 C.ar    
  11 C11           -1.2349     2.1130     0.0310 C.ar    
  12 C12           -0.0518     4.1989     0.0250 C.ar    
  13 N13            0.0926    -6.6794    -0.0361 N.am    
  14 C14            1.1812     2.1459     0.0023 C.ar    
  15 C15           -1.2455     3.4942     0.0385 C.ar    
  16 F16           -2.4212     4.1595     0.0532 F       
  17 C17            1.2760    -7.3018    -0.0565 C.2     
  18 O18            1.4006    -8.6370    -0.1103 O.3     
  19 C19            0.2276    -9.4278     0.2268 C.3     
  20 C20           -0.9784    -8.8309    -0.5113 C.3     
  21 C21           -1.1810    -7.3943    -0.0160 C.3     
  22 C22           -0.7114    -8.8290    -2.0178 C.3     
  23 C23            0.4377   -10.8776    -0.2147 C.3     
  24 C24           -0.0136    -9.3765     1.7368 C.3     
  25 O25            2.2858    -6.6269    -0.0252 O.2     
  26 H26           -2.1103    -2.8415     0.0077 H       
  27 H27            2.1905    -2.7828    -0.0443 H       
  28 H28            2.0824     4.0806    -0.0008 H       
  29 H29           -2.1650     1.5642     0.0412 H       
  30 H30           -0.0650     5.2788     0.0313 H       
  31 H31            2.1256     1.6221    -0.0091 H       
  32 H32           -1.8693    -9.4212    -0.2965 H       
  33 H33           -1.5757    -7.4138     0.9999 H       
  34 H34           -1.8889    -6.8829    -0.6682 H       
  35 H35           -0.5485    -9.8513    -2.3592 H       
  36 H36           -1.5699    -8.4046    -2.5384 H       
  37 H37            0.1743    -8.2299    -2.2291 H       
  38 H38            1.3093   -11.2897     0.2940 H       
  39 H39           -0.4436   -11.4663     0.0400 H       
  40 H40            0.5972   -10.9097    -1.2924 H       
  41 H41           -0.1744    -8.3432     2.0441 H       
  42 H42           -0.8933    -9.9704     1.9846 H       
  43 H43            0.8552    -9.7793     2.2574 H       
@<TRIPOS>BOND
   1    1    2 1
   2    1   14 ar
   3    1   11 ar
   4    2    3 3
   5    3    4 1
   6    4    5 ar
   7    4    8 ar
   8    5    9 ar
   9    5   26 1
  10    6    7 ar
  11    6   13 1
  12    6    9 ar
  13    7    8 ar
  14    8   27 1
  15   10   12 ar
  16   10   14 ar
  17   10   28 1
  18   11   15 ar
  19   11   29 1
  20   12   15 ar
  21   12   30 1
  22   13   17 am
  23   13   21 1
  24   14   31 1
  25   15   16 1
  26   17   18 1
  27   17   25 2
  28   18   19 1
  29   19   20 1
  30   19   23 1
  31   19   24 1
  32   20   21 1
  33   20   22 1
  34   20   32 1
  35   21   33 1
  36   21   34 1
  37   22   35 1
  38   22   36 1
  39   22   37 1
  40   23   38 1
  41   23   39 1
  42   23   40 1
  43   24   41 1
  44   24   42 1
  45   24   43 1

#	End of record

