#	Name: ASD00180021
#	Creating user name:	WinNT
#	Creation time:	15. 06. 2019 18:33

#	Modifying user name:	WinNT
#	Modification time:	15. 06. 2019 18:33

#	Program:	/corina/corina34_cracker 3.40 0067  02.08.2006

@<TRIPOS>MOLECULE
ASD00180021
  42   43    0    0    0
SMALL
NO_CHARGES


@<TRIPOS>ATOM
   1 N1             0.0167     1.1142    -0.1658 N.ar    
   2 C2             0.1779    -0.1863    -0.2826 C.ar    
   3 C3             1.4627    -0.7408    -0.2645 C.ar    
   4 N4             2.5243     0.0433    -0.1293 N.ar    
   5 C5             2.3671     1.3561    -0.0110 C.ar    
   6 C6             1.0772     1.9087    -0.0296 C.ar    
   7 C7             0.8959     3.3687     0.1010 C.2     
   8 N8            -0.3242     3.9078    -0.0369 N.2     
   9 O9             1.8550     4.0833     0.3342 O.2     
  10 C10           -0.5167     4.8995    -0.8923 C.2     
  11 N11            3.4719     2.1773     0.1306 N.pl3   
  12 N12            0.4968     5.2984    -1.7135 N.pl3   
  13 N13           -1.7287     5.5226    -0.9526 N.pl3   
  14 Cl14          -1.2074    -1.2177    -0.4593 Cl      
  15 N15            1.6263    -2.1105    -0.3875 N.pl3   
  16 C16            2.9707    -2.6923    -0.3687 C.3     
  17 C17            2.8711    -4.2115    -0.5207 C.3     
  18 C18            4.2752    -4.8190    -0.5011 C.3     
  19 C19            4.1771    -6.3154    -0.6508 C.ar    
  20 C20            3.9978    -9.0606    -0.9255 C.ar    
  21 C21            3.9703    -8.4886     0.3327 C.ar    
  22 C22            4.0602    -7.1160     0.4700 C.ar    
  23 C23            4.1985    -6.8869    -1.9093 C.ar    
  24 C24            4.1086    -8.2595    -2.0466 C.ar    
  25 H25            4.3554     1.7891     0.2290 H       
  26 H26            3.3629     3.1412     0.1316 H       
  27 H27            1.3336     4.8079    -1.7245 H       
  28 H28            0.3808     6.0725    -2.2864 H       
  29 H29           -2.4494     5.2390    -0.3687 H       
  30 H30           -1.8698     6.2493    -1.5794 H       
  31 H31            0.8507    -2.6846    -0.4861 H       
  32 H32            3.5555    -2.2823    -1.1920 H       
  33 H33            3.4570    -2.4529     0.5770 H       
  34 H34            2.2863    -4.6215     0.3027 H       
  35 H35            2.3848    -4.4509    -1.4664 H       
  36 H36            4.8601    -4.4090    -1.3244 H       
  37 H37            4.7615    -4.5796     0.4446 H       
  38 H38            3.9276   -10.1329    -1.0328 H       
  39 H39            3.8837    -9.1144     1.2086 H       
  40 H40            4.0394    -6.6691     1.4530 H       
  41 H41            4.2850    -6.2611    -2.7852 H       
  42 H42            4.1301    -8.7064    -3.0296 H       
@<TRIPOS>BOND
   1    1    2 ar
   2    1    6 ar
   3    2    3 ar
   4    2   14 1
   5    3    4 ar
   6    3   15 1
   7    4    5 ar
   8    5    6 ar
   9    5   11 1
  10    6    7 1
  11    7    8 1
  12    7    9 2
  13    8   10 2
  14   10   12 1
  15   10   13 1
  16   11   25 1
  17   11   26 1
  18   12   27 1
  19   12   28 1
  20   13   29 1
  21   13   30 1
  22   15   16 1
  23   15   31 1
  24   16   17 1
  25   16   32 1
  26   16   33 1
  27   17   18 1
  28   17   34 1
  29   17   35 1
  30   18   19 1
  31   18   36 1
  32   18   37 1
  33   19   23 ar
  34   19   22 ar
  35   20   21 ar
  36   20   24 ar
  37   20   38 1
  38   21   22 ar
  39   21   39 1
  40   22   40 1
  41   23   24 ar
  42   23   41 1
  43   24   42 1

#	End of record

