#	Name: ASD06020118
#	Creating user name:	WinNT
#	Creation time:	15. 06. 2019 21:04

#	Modifying user name:	WinNT
#	Modification time:	15. 06. 2019 21:04

#	Program:	/corina/corina34_cracker 3.40 0067  02.08.2006

@<TRIPOS>MOLECULE
ASD06020118
  35   38    0    0    0
SMALL
NO_CHARGES


@<TRIPOS>ATOM
   1 C1            -0.0187     1.5258     0.0104 C.3     
   2 C2             0.0021    -0.0041     0.0020 C.3     
   3 C3             1.3165     0.7789    -0.0063 C.3     
   4 C4            -0.4420     2.2229    -1.2568 C.2     
   5 O5            -0.7498     1.5723    -2.2330 O.2     
   6 N6            -0.4784     3.5693    -1.3053 N.am    
   7 C7            -0.8703     4.2147    -2.4785 C.ar    
   8 C8            -0.9067     5.6122    -2.5242 C.ar    
   9 C9            -1.3007     6.2546    -3.7042 C.ar    
  10 C10           -1.6463     5.4274    -4.8046 C.ar    
  11 C11           -1.5823     4.0743    -4.6721 C.ar    
  12 N12           -1.1995     3.5025    -3.5409 N.ar    
  13 S13           -0.5341     6.8424    -1.3219 S.3     
  14 C14           -0.9302     8.1067    -2.4790 C.2     
  15 N15           -1.2891     7.5843    -3.6060 N.2     
  16 F16           -2.0361     5.9790    -5.9746 F       
  17 C17           -0.8621     9.5567    -2.2030 C.ar    
  18 C18           -1.2011    10.4749    -3.2008 C.ar    
  19 C19           -1.1375    11.8269    -2.9432 C.ar    
  20 C20           -0.7337    12.2802    -1.6847 C.ar    
  21 C21           -0.3943    11.3626    -0.6871 C.ar    
  22 C22           -0.4641    10.0104    -0.9421 C.ar    
  23 C23           -0.6672    13.6855    -1.4173 C.1     
  24 N24           -0.6145    14.8003    -1.2052 N.1     
  25 Cl25          -0.0499     8.8702     0.2997 Cl      
  26 Cl26          -1.7018     9.9119    -4.7648 Cl      
  27 H27           -0.3072     2.0201     0.9381 H       
  28 H28           -0.2728    -0.5162     0.9241 H       
  29 H29           -0.2904    -0.5063    -0.9201 H       
  30 H30            1.8888     0.7918    -0.9339 H       
  31 H31            1.9064     0.7818     0.9103 H       
  32 H32           -0.2322     4.0896    -0.5246 H       
  33 H33           -1.8470     3.4506    -5.5131 H       
  34 H34           -1.3994    12.5364    -3.7142 H       
  35 H35           -0.0815    11.7132     0.2853 H       
@<TRIPOS>BOND
   1    1    2 1
   2    1    3 1
   3    1    4 1
   4    1   27 1
   5    2    3 1
   6    2   28 1
   7    2   29 1
   8    3   30 1
   9    3   31 1
  10    4    5 2
  11    4    6 am
  12    6    7 1
  13    6   32 1
  14    7    8 ar
  15    7   12 ar
  16    8    9 ar
  17    8   13 1
  18    9   10 ar
  19    9   15 1
  20   10   11 ar
  21   10   16 1
  22   11   12 ar
  23   11   33 1
  24   13   14 1
  25   14   15 2
  26   14   17 1
  27   17   18 ar
  28   17   22 ar
  29   18   19 ar
  30   18   26 1
  31   19   20 ar
  32   19   34 1
  33   20   21 ar
  34   20   23 1
  35   21   22 ar
  36   21   35 1
  37   22   25 1
  38   23   24 3

#	End of record

