#	Name: ASD00230021
#	Creating user name:	WinNT
#	Creation time:	15. 06. 2019 18:33

#	Modifying user name:	WinNT
#	Modification time:	15. 06. 2019 18:33

#	Program:	/corina/corina34_cracker 3.40 0067  02.08.2006

@<TRIPOS>MOLECULE
ASD00230021
  38   40    0    0    0
SMALL
NO_CHARGES


@<TRIPOS>ATOM
   1 N1            -0.0450     1.3536     0.0759 N.am    
   2 S2             1.4680    -0.4481    -0.1098 S.o     
   3 C3            -3.3520    -2.4753     0.0197 C.ar    
   4 N4            -4.4705    -3.3128     0.0279 N.pl3   
   5 C5            -2.7980    -2.0728    -1.1942 C.ar    
   6 O6             5.0800     3.3935    -0.0668 O.3     
   7 C7            -1.7063    -1.2550    -1.2137 C.ar    
   8 C8            -1.1371    -0.8158     0.0033 C.ar    
   9 C9            -1.7070    -1.2301     1.2287 C.ar    
  10 C10           -2.8019    -2.0438     1.2253 C.ar    
  11 C11           -0.0178     0.0222    -0.0050 C.2     
  12 C12            1.1612     2.0339     0.0542 C.ar    
  13 C13            2.2304     1.1453    -0.0541 C.ar    
  14 C14            3.5275     1.5829    -0.0951 C.ar    
  15 C15            3.7966     2.9459    -0.0276 C.ar    
  16 C16            2.7458     3.8455     0.0804 C.ar    
  17 C17            1.4418     3.4008     0.1209 C.ar    
  18 C18           -5.1348    -3.6600    -1.2308 C.3     
  19 C19           -4.9788    -3.8435     1.2952 C.3     
  20 C20           -1.3154     2.0760     0.1787 C.3     
  21 H21            1.7154    -0.9449     1.1153 H       
  22 H22           -3.2343    -2.4100    -2.1229 H       
  23 H23            5.4060     3.5754    -0.9588 H       
  24 H24           -1.2783    -0.9446    -2.1554 H       
  25 H25           -1.2797    -0.9002     2.1641 H       
  26 H26           -3.2416    -2.3580     2.1604 H       
  27 H27            4.3374     0.8733    -0.1789 H       
  28 H28            2.9516     4.9044     0.1330 H       
  29 H29            0.6335     4.1122     0.2047 H       
  30 H30           -4.6869    -4.5654    -1.6403 H       
  31 H31           -6.1955    -3.8307    -1.0467 H       
  32 H32           -5.0163    -2.8424    -1.9418 H       
  33 H33           -4.3064    -3.5584     2.1044 H       
  34 H34           -5.9716    -3.4367     1.4874 H       
  35 H35           -5.0366    -4.9304     1.2368 H       
  36 H36           -1.6270     2.1163     1.2224 H       
  37 H37           -1.1888     3.0895    -0.2020 H       
  38 H38           -2.0754     1.5598    -0.4078 H       
@<TRIPOS>BOND
   1    1   11 am
   2    1   12 1
   3    1   20 1
   4    2   11 2
   5    2   13 1
   6    2   21 1
   7    3    4 1
   8    3    5 ar
   9    3   10 ar
  10    4   18 1
  11    4   19 1
  12    5    7 ar
  13    5   22 1
  14    6   15 1
  15    6   23 1
  16    7    8 ar
  17    7   24 1
  18    8    9 ar
  19    8   11 1
  20    9   10 ar
  21    9   25 1
  22   10   26 1
  23   12   13 ar
  24   12   17 ar
  25   13   14 ar
  26   14   15 ar
  27   14   27 1
  28   15   16 ar
  29   16   17 ar
  30   16   28 1
  31   17   29 1
  32   18   30 1
  33   18   31 1
  34   18   32 1
  35   19   33 1
  36   19   34 1
  37   19   35 1
  38   20   36 1
  39   20   37 1
  40   20   38 1

#	End of record

