#	Name: ASD06710046
#	Creating user name:	WinNT
#	Creation time:	15. 06. 2019 21:08

#	Modifying user name:	WinNT
#	Modification time:	15. 06. 2019 21:08

#	Program:	/corina/corina34_cracker 3.40 0067  02.08.2006

@<TRIPOS>MOLECULE
ASD06710046
  57   59    0    0    0
SMALL
NO_CHARGES


@<TRIPOS>ATOM
   1 N1            -0.1455     1.3921    -0.3805 N.am    
   2 C2             0.0157     0.0619    -0.2360 C.2     
   3 C3            -1.2975    -0.4520     0.3198 C.3     
   4 N4            -2.1237     0.7622     0.4348 N.am    
   5 C5            -1.3636     1.7866     0.0074 C.2     
   6 C6            -3.4353     0.8359     0.8996 C.ar    
   7 C7            -3.6822     0.9484     2.2633 C.ar    
   8 C8            -4.4945     0.8024    -0.0032 C.ar    
   9 C9            -5.7916     0.8753     0.4503 C.ar    
  10 C10           -6.0468     0.9827     1.8206 C.ar    
  11 C11           -4.9796     1.0215     2.7267 C.ar    
  12 C12           -7.4353     1.0610     2.3100 C.2     
  13 O13           -7.6554     1.1545     3.5023 O.2     
  14 N14           -8.4607     1.0291     1.4359 N.am    
  15 C15           -9.8404     1.1069     1.9222 C.3     
  16 C16          -10.8037     1.0502     0.7349 C.3     
  17 F17           -5.2203     1.1248     4.0521 F       
  18 C18            0.8406     2.2542    -0.8699 C.ar    
  19 C19            1.7272     2.8643     0.0104 C.ar    
  20 C20            0.9357     2.4948    -2.2363 C.ar    
  21 C21            1.9061     3.3425    -2.7221 C.ar    
  22 C22            2.7959     3.9619    -1.8398 C.ar    
  23 C23            2.7002     3.7139    -0.4679 C.ar    
  24 O24            1.0051    -0.5885    -0.4970 O.2     
  25 C25           -1.9381    -1.4494    -0.6476 C.3     
  26 C26           -1.0870    -1.0919     1.6936 C.3     
  27 S27           -1.8988     3.4120    -0.0441 S.2     
  28 C28          -12.2446     1.1315     1.2427 C.3     
  29 C29          -13.2078     1.0748     0.0553 C.3     
  30 C30            3.8063     4.8441    -2.3410 C.1     
  31 N31            4.6080     5.5440    -2.7386 N.1     
  32 C32            3.6571     4.3791     0.4875 C.3     
  33 F33            3.3645     3.9778     1.7954 F       
  34 F34            4.9678     4.0087     0.1683 F       
  35 F35            3.5271     5.7684     0.3859 F       
  36 H36           -2.8577     0.9781     2.9603 H       
  37 H37           -4.2978     0.7194    -1.0619 H       
  38 H38           -6.6118     0.8499    -0.2518 H       
  39 H39           -8.2852     0.9545     0.4849 H       
  40 H40          -10.0379     0.2688     2.5906 H       
  41 H41           -9.9833     2.0432     2.4616 H       
  42 H42          -10.6062     1.8883     0.0665 H       
  43 H43          -10.6608     0.1139     0.1955 H       
  44 H44            1.6527     2.6721     1.0705 H       
  45 H45            0.2479     2.0159    -2.9174 H       
  46 H46            1.9798     3.5283    -3.7834 H       
  47 H47           -1.2757    -2.3050    -0.7787 H       
  48 H48           -2.8920    -1.7871    -0.2425 H       
  49 H49           -2.1029    -0.9665    -1.6108 H       
  50 H50           -0.6544    -0.3581     2.3737 H       
  51 H51           -2.0451    -1.4314     2.0870 H       
  52 H52           -0.4114    -1.9420     1.5987 H       
  53 H53          -12.4421     0.2934     1.9111 H       
  54 H54          -12.3875     2.0678     1.7821 H       
  55 H55          -13.0104     1.9129    -0.6130 H       
  56 H56          -13.0650     0.1385    -0.4840 H       
  57 H57          -14.2344     1.1327     0.4172 H       
@<TRIPOS>BOND
   1    1    2 am
   2    1   18 1
   3    1    5 am
   4    2    3 1
   5    2   24 2
   6    3    4 1
   7    3   25 1
   8    3   26 1
   9    4    5 am
  10    4    6 1
  11    5   27 2
  12    6    7 ar
  13    6    8 ar
  14    7   11 ar
  15    7   36 1
  16    8    9 ar
  17    8   37 1
  18    9   10 ar
  19    9   38 1
  20   10   11 ar
  21   10   12 1
  22   11   17 1
  23   12   13 2
  24   12   14 am
  25   14   15 1
  26   14   39 1
  27   15   16 1
  28   15   40 1
  29   15   41 1
  30   16   28 1
  31   16   42 1
  32   16   43 1
  33   18   19 ar
  34   18   20 ar
  35   19   23 ar
  36   19   44 1
  37   20   21 ar
  38   20   45 1
  39   21   22 ar
  40   21   46 1
  41   22   23 ar
  42   22   30 1
  43   23   32 1
  44   25   47 1
  45   25   48 1
  46   25   49 1
  47   26   50 1
  48   26   51 1
  49   26   52 1
  50   28   29 1
  51   28   53 1
  52   28   54 1
  53   29   55 1
  54   29   56 1
  55   29   57 1
  56   30   31 3
  57   32   33 1
  58   32   34 1
  59   32   35 1

#	End of record

