#	Name: ASD01917651
#	Creating user name:	WinNT
#	Creation time:	15. 06. 2019 20:09

#	Modifying user name:	WinNT
#	Modification time:	15. 06. 2019 20:09

#	Program:	/corina/corina34_cracker 3.40 0067  02.08.2006

@<TRIPOS>MOLECULE
ASD01917651
  38   40    0    0    0
SMALL
NO_CHARGES


@<TRIPOS>ATOM
   1 C1            -0.0292     1.3514     0.2999 C.ar    
   2 C2            -0.0147    -0.0283     0.4179 C.ar    
   3 C3            -1.2017    -0.7352     0.4978 C.ar    
   4 C4            -2.4088    -0.0695     0.4604 C.ar    
   5 C5            -2.4322     1.3232     0.3414 C.ar    
   6 C6            -1.2301     2.0316     0.2665 C.ar    
   7 Cl7            1.4659     2.2281     0.2011 Cl      
   8 C8            -3.6821     2.0208     0.3015 C.1     
   9 C9            -4.7068     2.5928     0.2688 C.1     
  10 C10           -5.9567     3.2905     0.2289 C.ar    
  11 C11           -5.9881     4.6873     0.1097 C.ar    
  12 C12           -7.2179     5.3152     0.0755 C.ar    
  13 C13           -8.3788     4.5452     0.1600 C.ar    
  14 N14           -8.3139     3.2229     0.2727 N.ar    
  15 C15           -7.1663     2.5867     0.3026 C.ar    
  16 C16           -9.6995     5.2104     0.1240 C.2     
  17 O17           -9.7713     6.4225     0.1800 O.2     
  18 N18          -10.8233     4.4724     0.0291 N.am    
  19 C19          -12.1509     5.0950     0.1524 C.3     
  20 C20          -13.0064     4.6493    -1.0390 C.3     
  21 O21          -12.9800     3.2228    -1.1300 O.3     
  22 C22          -11.6822     2.6759    -1.3755 C.3     
  23 C23          -10.7590     3.0214    -0.2069 C.3     
  24 H24            0.9276    -0.5552     0.4474 H       
  25 H25           -1.1826    -1.8111     0.5894 H       
  26 H26           -3.3341    -0.6230     0.5225 H       
  27 H27           -1.2405     3.1077     0.1748 H       
  28 H28           -5.0734     5.2580     0.0465 H       
  29 H29           -7.2803     6.3896    -0.0153 H       
  30 H30           -7.1539     1.5108     0.3948 H       
  31 H31          -12.6214     4.7752     1.0822 H       
  32 H32          -12.0496     6.1802     0.1460 H       
  33 H33          -14.0332     4.9860    -0.8962 H       
  34 H34          -12.6055     5.0800    -1.9565 H       
  35 H35          -11.7563     1.5929    -1.4747 H       
  36 H36          -11.2764     3.0995    -2.2942 H       
  37 H37           -9.7363     2.7323    -0.4491 H       
  38 H38          -11.0877     2.4944     0.6888 H       
@<TRIPOS>BOND
   1    1    2 ar
   2    1    7 1
   3    1    6 ar
   4    2    3 ar
   5    2   24 1
   6    3    4 ar
   7    3   25 1
   8    4    5 ar
   9    4   26 1
  10    5    6 ar
  11    5    8 1
  12    6   27 1
  13    8    9 3
  14    9   10 1
  15   10   11 ar
  16   10   15 ar
  17   11   12 ar
  18   11   28 1
  19   12   13 ar
  20   12   29 1
  21   13   14 ar
  22   13   16 1
  23   14   15 ar
  24   15   30 1
  25   16   17 2
  26   16   18 am
  27   18   19 1
  28   18   23 1
  29   19   20 1
  30   19   31 1
  31   19   32 1
  32   20   21 1
  33   20   33 1
  34   20   34 1
  35   21   22 1
  36   22   23 1
  37   22   35 1
  38   22   36 1
  39   23   37 1
  40   23   38 1

#	End of record

