#	Name: ASD01510078
#	Creating user name:	WinNT
#	Creation time:	15. 06. 2019 19:21

#	Modifying user name:	WinNT
#	Modification time:	15. 06. 2019 19:21

#	Program:	/corina/corina34_cracker 3.40 0067  02.08.2006

@<TRIPOS>MOLECULE
ASD01510078
  62   64    0    0    0
SMALL
NO_CHARGES


@<TRIPOS>ATOM
   1 C1            -0.0288     1.5055    -0.0123 C.3     
   2 C2            -0.0095    -0.0244    -0.0153 C.3     
   3 O3            -1.3505    -0.5178     0.0003 O.3     
   4 C4            -1.5112    -1.8645    -0.0001 C.ar    
   5 N5            -0.4538    -2.6691    -0.0147 N.ar    
   6 C6            -0.6020    -3.9851    -0.0148 C.ar    
   7 N7            -1.7982    -4.5529    -0.0010 N.ar    
   8 C8            -2.9028    -3.8144     0.0140 C.ar    
   9 C9            -2.7886    -2.4243     0.0204 C.ar    
  10 S10           -4.2226    -1.4007     0.0403 S.3     
  11 C11           -4.4544    -1.2324     1.7789 C.ar    
  12 N12           -3.6097    -1.8341     2.6039 N.ar    
  13 C13           -3.7539    -1.7284     3.9223 C.ar    
  14 N14           -2.8660    -2.3602     4.7788 N.pl3   
  15 C15           -4.8088    -0.9741     4.4303 C.ar    
  16 C16           -5.6746    -0.3576     3.5332 C.ar    
  17 N17           -5.4659    -0.5030     2.2277 N.ar    
  18 N18           -6.7419     0.4055     3.9954 N.am    
  19 C19           -7.5134     1.0835     3.1227 C.2     
  20 O20           -7.2226     1.1045     1.9456 O.2     
  21 C21           -8.7375     1.8153     3.6096 C.3     
  22 C22           -9.4288     2.4963     2.4267 C.3     
  23 O23           -4.1241    -4.4041     0.0276 O.3     
  24 C24           -4.1547    -5.8328     0.0250 C.3     
  25 C25           -5.6077    -6.3117     0.0416 C.3     
  26 N26            0.5263    -4.7904    -0.0302 N.3     
  27 C27            0.1580    -6.2131    -0.0277 C.3     
  28 C28            1.4253    -7.0656    -0.1253 C.3     
  29 N29            2.3116    -6.7520     1.0042 N.3     
  30 C30            2.6800    -5.3294     1.0018 C.3     
  31 C31            1.4126    -4.4768     1.0993 C.3     
  32 C32            3.5072    -7.6054     0.9879 C.3     
  33 H33            0.9941     1.8818    -0.0242 H       
  34 H34           -0.5581     1.8639    -0.8951 H       
  35 H35           -0.5362     1.8606     0.8847 H       
  36 H36            0.4979    -0.3796    -0.9123 H       
  37 H37            0.5198    -0.3828     0.8676 H       
  38 H38           -2.1334    -2.8837     4.4181 H       
  39 H39           -2.9772    -2.2789     5.7390 H       
  40 H40           -4.9514    -0.8706     5.4959 H       
  41 H41           -6.9309     0.4497     4.9458 H       
  42 H42           -9.4241     1.1068     4.0729 H       
  43 H43           -8.4438     2.5680     4.3413 H       
  44 H44          -10.3141     3.0257     2.7789 H       
  45 H45           -8.7421     3.2049     1.9635 H       
  46 H46           -9.7225     1.7437     1.6951 H       
  47 H47           -3.6597    -6.2052    -0.8719 H       
  48 H48           -3.6380    -6.2089     0.9079 H       
  49 H49           -6.1244    -5.9356    -0.8413 H       
  50 H50           -5.6311    -7.4015     0.0396 H       
  51 H51           -6.1028    -5.9394     0.9385 H       
  52 H52           -0.3698    -6.4504     0.8960 H       
  53 H53           -0.4880    -6.4229    -0.8802 H       
  54 H54            1.1566    -8.1215    -0.0944 H       
  55 H55            1.9388    -6.8479    -1.0618 H       
  56 H56            3.3259    -5.1195     1.8543 H       
  57 H57            3.2077    -5.0920     0.0781 H       
  58 H58            1.6814    -3.4209     1.0685 H       
  59 H59            0.8991    -4.6945     2.0358 H       
  60 H60            4.0549    -7.4457     0.0591 H       
  61 H61            4.1458    -7.3524     1.8343 H       
  62 H62            3.2082    -8.6512     1.0582 H       
@<TRIPOS>BOND
   1    1    2 1
   2    1   33 1
   3    1   34 1
   4    1   35 1
   5    2    3 1
   6    2   36 1
   7    2   37 1
   8    3    4 1
   9    4    5 ar
  10    4    9 ar
  11    5    6 ar
  12    6    7 ar
  13    6   26 1
  14    7    8 ar
  15    8    9 ar
  16    8   23 1
  17    9   10 1
  18   10   11 1
  19   11   12 ar
  20   11   17 ar
  21   12   13 ar
  22   13   14 1
  23   13   15 ar
  24   14   38 1
  25   14   39 1
  26   15   16 ar
  27   15   40 1
  28   16   17 ar
  29   16   18 1
  30   18   19 am
  31   18   41 1
  32   19   20 2
  33   19   21 1
  34   21   22 1
  35   21   42 1
  36   21   43 1
  37   22   44 1
  38   22   45 1
  39   22   46 1
  40   23   24 1
  41   24   25 1
  42   24   47 1
  43   24   48 1
  44   25   49 1
  45   25   50 1
  46   25   51 1
  47   26   27 1
  48   26   31 1
  49   27   28 1
  50   27   52 1
  51   27   53 1
  52   28   29 1
  53   28   54 1
  54   28   55 1
  55   29   30 1
  56   29   32 1
  57   30   31 1
  58   30   56 1
  59   30   57 1
  60   31   58 1
  61   31   59 1
  62   32   60 1
  63   32   61 1
  64   32   62 1

#	End of record

