#	Name: ASD01180023
#	Creating user name:	WinNT
#	Creation time:	15. 06. 2019 19:06

#	Modifying user name:	WinNT
#	Modification time:	15. 06. 2019 19:06

#	Program:	/corina/corina34_cracker 3.40 0067  02.08.2006

@<TRIPOS>MOLECULE
ASD01180023
  36   37    0    0    0
SMALL
NO_CHARGES


@<TRIPOS>ATOM
   1 N1             0.0246     1.3798    -0.0884 N.ar    
   2 C2            -0.0397     0.0723    -0.0175 C.ar    
   3 C3             1.1330    -0.6987     0.0701 C.ar    
   4 N4             2.3173    -0.1172     0.0827 N.ar    
   5 C5             2.4009     1.2174     0.0110 C.ar    
   6 C6             3.6471     1.8653     0.0218 C.ar    
   7 C7             3.7029     3.2245    -0.0529 C.ar    
   8 C8             2.5368     3.9857    -0.1403 C.ar    
   9 C9             1.3118     3.3899    -0.1532 C.ar    
  10 C10            1.2165     1.9904    -0.0777 C.ar    
  11 S11           -1.6103    -0.7264    -0.0314 S.o2    
  12 O12           -2.5038     0.2661    -0.5171 O.2     
  13 O13           -1.3860    -1.9280    -0.7560 O.2     
  14 C14           -1.9492    -1.0889     1.7134 C.3     
  15 Cl15           2.6484     5.7156    -0.2332 Cl      
  16 Cl16           5.2458     4.0202    -0.0386 Cl      
  17 N17            1.0440    -2.0809     0.1442 N.pl3   
  18 C18            2.2609    -2.8960     0.1109 C.3     
  19 C19            1.9976    -4.2339     0.8049 C.3     
  20 C20            2.6670    -3.1468    -1.3427 C.3     
  21 C21            1.7134    -3.9915     2.2886 C.3     
  22 H22            4.5575     1.2882     0.0894 H       
  23 H23            0.4172     3.9912    -0.2208 H       
  24 H24           -1.9709    -0.1582     2.2803 H       
  25 H25           -2.9135    -1.5896     1.7998 H       
  26 H26           -1.1667    -1.7368     2.1085 H       
  27 H27            0.1762    -2.5077     0.2182 H       
  28 H28            3.0643    -2.3707     0.6272 H       
  29 H29            1.1369    -4.7189     0.3445 H       
  30 H30            2.8734    -4.8747     0.7027 H       
  31 H31            1.8636    -3.6721    -1.8591 H       
  32 H32            2.8546    -2.1936    -1.8372 H       
  33 H33            3.5724    -3.7533    -1.3676 H       
  34 H34            2.5741    -3.5065     2.7490 H       
  35 H35            0.8376    -3.3507     2.3908 H       
  36 H36            1.5258    -4.9446     2.7831 H       
@<TRIPOS>BOND
   1    1    2 ar
   2    1   10 ar
   3    2    3 ar
   4    2   11 1
   5    3    4 ar
   6    3   17 1
   7    4    5 ar
   8    5    6 ar
   9    5   10 ar
  10    6    7 ar
  11    6   22 1
  12    7    8 ar
  13    7   16 1
  14    8    9 ar
  15    8   15 1
  16    9   10 ar
  17    9   23 1
  18   11   12 2
  19   11   13 2
  20   11   14 1
  21   14   24 1
  22   14   25 1
  23   14   26 1
  24   17   18 1
  25   17   27 1
  26   18   19 1
  27   18   20 1
  28   18   28 1
  29   19   21 1
  30   19   29 1
  31   19   30 1
  32   20   31 1
  33   20   32 1
  34   20   33 1
  35   21   34 1
  36   21   35 1
  37   21   36 1

#	End of record

