#	Name: ASD03091318
#	Creating user name:	WinNT
#	Creation time:	15. 06. 2019 20:30

#	Modifying user name:	WinNT
#	Modification time:	15. 06. 2019 20:30

#	Program:	/corina/corina34_cracker 3.40 0067  02.08.2006

@<TRIPOS>MOLECULE
ASD03091318
  44   46    0    0    0
SMALL
NO_CHARGES


@<TRIPOS>ATOM
   1 C1            -0.0167     1.3781     0.0096 C.ar    
   2 C2             0.0021    -0.0041     0.0020 C.ar    
   3 C3             1.2084    -0.6789    -0.0132 C.ar    
   4 C4             2.3960     0.0285    -0.0212 C.ar    
   5 C5             2.3773     1.4107    -0.0145 C.ar    
   6 C6             1.1710     2.0855     0.0021 C.ar    
   7 C7             3.6720     2.1819    -0.0223 C.3     
   8 C8             3.9214     3.1320    -1.1954 C.3     
   9 C9             3.5941     3.6953     0.1890 C.3     
  10 C10            2.8535     3.2249    -2.2546 C.2     
  11 N11            3.0209     4.0461    -3.3102 N.am    
  12 O12            1.8433     2.5608    -2.1573 O.2     
  13 C13            1.9828     4.1364    -4.3399 C.3     
  14 C14            2.6019     4.5821    -5.6396 C.ar    
  15 C15            3.5861     5.5532    -5.6380 C.ar    
  16 C16            2.1886     4.0153    -6.8311 C.ar    
  17 C17            2.7548     4.4218    -8.0237 C.ar    
  18 C18            3.7386     5.4000    -8.0253 C.ar    
  19 C19            4.1552     5.9635    -6.8280 C.ar    
  20 C20            0.9215     5.1497    -3.9066 C.3     
  21 O21            1.5049     6.4526    -3.8425 O.3     
  22 O22            4.2975     5.8014    -9.1973 O.3     
  23 C23            5.3044     6.8126    -9.1231 C.3     
  24 F24            6.3674     6.3555    -8.3369 F       
  25 F25            5.7682     7.1042   -10.4104 F       
  26 F26            4.7634     7.9682    -8.5495 F       
  27 H27           -0.9592     1.9054     0.0170 H       
  28 H28           -0.9258    -0.5567     0.0083 H       
  29 H29            1.2231    -1.7588    -0.0184 H       
  30 H30            3.3386    -0.4987    -0.0324 H       
  31 H31            1.1563     3.1654     0.0077 H       
  32 H32            4.5332     1.6590     0.3937 H       
  33 H33            4.9466     3.2343    -1.5509 H       
  34 H34            2.6065     4.1331     0.3336 H       
  35 H35            4.4041     4.1682     0.7442 H       
  36 H36            3.8288     4.5772    -3.3880 H       
  37 H37            1.5187     3.1594    -4.4747 H       
  38 H38            3.9101     5.9916    -4.7056 H       
  39 H39            1.4227     3.2538    -6.8293 H       
  40 H40            2.4322     3.9782    -8.9541 H       
  41 H41            4.9237     6.7223    -6.8263 H       
  42 H42            0.1052     5.1522    -4.6289 H       
  43 H43            0.5367     4.8752    -2.9244 H       
  44 H44            0.8880     7.1470    -3.5735 H       
@<TRIPOS>BOND
   1    1    2 ar
   2    1    6 ar
   3    1   27 1
   4    2    3 ar
   5    2   28 1
   6    3    4 ar
   7    3   29 1
   8    4    5 ar
   9    4   30 1
  10    5    6 ar
  11    5    7 1
  12    6   31 1
  13    7    8 1
  14    7    9 1
  15    7   32 1
  16    8    9 1
  17    8   10 1
  18    8   33 1
  19    9   34 1
  20    9   35 1
  21   10   11 am
  22   10   12 2
  23   11   13 1
  24   11   36 1
  25   13   14 1
  26   13   20 1
  27   13   37 1
  28   14   16 ar
  29   14   15 ar
  30   15   19 ar
  31   15   38 1
  32   16   17 ar
  33   16   39 1
  34   17   18 ar
  35   17   40 1
  36   18   19 ar
  37   18   22 1
  38   19   41 1
  39   20   21 1
  40   20   42 1
  41   20   43 1
  42   21   44 1
  43   22   23 1
  44   23   24 1
  45   23   25 1
  46   23   26 1

#	End of record

