#	Name: ASD01912086
#	Creating user name:	WinNT
#	Creation time:	15. 06. 2019 19:59

#	Modifying user name:	WinNT
#	Modification time:	15. 06. 2019 19:59

#	Program:	/corina/corina34_cracker 3.40 0067  02.08.2006

@<TRIPOS>MOLECULE
ASD01912086
  60   64    0    0    0
SMALL
NO_CHARGES


@<TRIPOS>ATOM
   1 C1            -0.0048     1.4156     0.0522 C.2     
   2 C2            -0.0091     0.0108     0.0265 C.2     
   3 N3             1.2382    -0.4056    -0.0382 N.2     
   4 N4             2.0784     0.7149    -0.0558 N.pl3   
   5 C5             1.2942     1.8290     0.0006 C.2     
   6 C6             1.7663     3.2316     0.0045 C.ar    
   7 C7             3.0187     3.5505    -0.5207 C.ar    
   8 C8             3.4533     4.8600    -0.5141 C.ar    
   9 C9             2.6498     5.8558     0.0120 C.ar    
  10 C10            1.4068     5.5460     0.5343 C.ar    
  11 C11            0.9585     4.2411     0.5283 C.ar    
  12 C12           -1.2138    -0.8556     0.0662 C.ar    
  13 C13           -1.0782    -2.2413     0.0343 C.ar    
  14 C14           -2.2049    -3.0450     0.0720 C.ar    
  15 C15           -3.4676    -2.4685     0.1416 C.ar    
  16 C16           -3.6021    -1.0912     0.1733 C.ar    
  17 C17           -2.4825    -0.2843     0.1413 C.ar    
  18 O18           -2.0761    -4.3981     0.0406 O.3     
  19 F19           -4.5662    -3.2540     0.1779 F       
  20 C20            3.5418     0.6936    -0.1223 C.3     
  21 C21            3.9777     0.5824    -1.5605 C.2     
  22 N22            5.2899     0.5452    -1.8660 N.am    
  23 O23            3.1478     0.5264    -2.4432 O.2     
  24 C24            5.7370     0.4369    -3.2630 C.3     
  25 C25            6.7652     1.5408    -3.5320 C.3     
  26 N26            7.8360     1.4631    -2.5293 N.3     
  27 C27            7.3183     1.7087    -1.1767 C.3     
  28 C28            6.3128     0.6179    -0.8117 C.3     
  29 C29            8.8645     2.3379    -2.8332 C.ar    
  30 N30            9.9181     2.4006    -2.0323 N.ar    
  31 C31           10.9182     3.2259    -2.2939 C.ar    
  32 C32           10.8540     4.0301    -3.4210 C.ar    
  33 C33            9.7373     3.9392    -4.2371 C.ar    
  34 N34            8.7746     3.0890    -3.9210 N.ar    
  35 C35           -0.7486    -4.9220    -0.0315 C.3     
  36 H36           -0.8745     2.0540     0.0997 H       
  37 H37            3.6469     2.7739    -0.9314 H       
  38 H38            4.4228     5.1081    -0.9201 H       
  39 H39            2.9946     6.8793     0.0152 H       
  40 H40            0.7842     6.3278     0.9436 H       
  41 H41           -0.0120     4.0004     0.9364 H       
  42 H42           -0.0963    -2.6879    -0.0201 H       
  43 H43           -4.5850    -0.6470     0.2274 H       
  44 H44           -2.5902     0.7900     0.1665 H       
  45 H45            3.9384     1.6134     0.3075 H       
  46 H46            3.9186    -0.1616     0.4388 H       
  47 H47            6.1957    -0.5384    -3.4261 H       
  48 H48            4.8844     0.5600    -3.9309 H       
  49 H49            7.1889     1.4085    -4.5275 H       
  50 H50            6.2786     2.5142    -3.4697 H       
  51 H51            8.1430     1.6983    -0.4641 H       
  52 H52            6.8239     2.6797    -1.1472 H       
  53 H53            5.8419     0.8581     0.1416 H       
  54 H54            6.8241    -0.3420    -0.7391 H       
  55 H55           11.7742     3.2728    -1.6371 H       
  56 H56           11.6564     4.7130    -3.6579 H       
  57 H57            9.6562     4.5522    -5.1226 H       
  58 H58           -0.1807    -4.5939     0.8392 H       
  59 H59           -0.7882    -6.0111    -0.0501 H       
  60 H60           -0.2641    -4.5605    -0.9385 H       
@<TRIPOS>BOND
   1    1    2 1
   2    1    5 2
   3    1   36 1
   4    2    3 2
   5    2   12 1
   6    3    4 1
   7    4    5 1
   8    4   20 1
   9    5    6 1
  10    6    7 ar
  11    6   11 ar
  12    7    8 ar
  13    7   37 1
  14    8    9 ar
  15    8   38 1
  16    9   10 ar
  17    9   39 1
  18   10   11 ar
  19   10   40 1
  20   11   41 1
  21   12   13 ar
  22   12   17 ar
  23   13   14 ar
  24   13   42 1
  25   14   15 ar
  26   14   18 1
  27   15   16 ar
  28   15   19 1
  29   16   17 ar
  30   16   43 1
  31   17   44 1
  32   18   35 1
  33   20   21 1
  34   20   45 1
  35   20   46 1
  36   21   22 am
  37   21   23 2
  38   22   24 1
  39   22   28 1
  40   24   25 1
  41   24   47 1
  42   24   48 1
  43   25   26 1
  44   25   49 1
  45   25   50 1
  46   26   27 1
  47   26   29 1
  48   27   28 1
  49   27   51 1
  50   27   52 1
  51   28   53 1
  52   28   54 1
  53   29   30 ar
  54   29   34 ar
  55   30   31 ar
  56   31   32 ar
  57   31   55 1
  58   32   33 ar
  59   32   56 1
  60   33   34 ar
  61   33   57 1
  62   35   58 1
  63   35   59 1
  64   35   60 1

#	End of record

