#	Name: ASD01813518
#	Creating user name:	WinNT
#	Creation time:	15. 06. 2019 19:30

#	Modifying user name:	WinNT
#	Modification time:	15. 06. 2019 19:30

#	Program:	/corina/corina34_cracker 3.40 0067  02.08.2006

@<TRIPOS>MOLECULE
ASD01813518
  48   52    0    0    0
SMALL
NO_CHARGES


@<TRIPOS>ATOM
   1 C1            -0.0168     1.3825    -0.0464 C.ar    
   2 C2             0.0020    -0.0038    -0.0535 C.ar    
   3 C3             1.1975    -0.6932    -0.0496 C.ar    
   4 C4             2.4040     0.0044    -0.0389 C.ar    
   5 C5             2.3834     1.4096    -0.0323 C.ar    
   6 C6             1.1657     2.0946    -0.0359 C.ar    
   7 N7             3.6050    -0.6734    -0.0339 N.pl3   
   8 C8             4.7898    -0.0496    -0.0228 C.2     
   9 C9             4.8962     1.3266    -0.0150 C.2     
  10 C10            3.6660     2.1351    -0.0211 C.2     
  11 O11            3.7066     3.3531    -0.0152 O.2     
  12 C12            6.2155     1.9737    -0.0019 C.2     
  13 O13            6.3065     3.3187     0.0056 O.3     
  14 O14            7.2249     1.2962     0.0023 O.2     
  15 C15            3.5837    -2.1382    -0.0406 C.3     
  16 C16            3.4403    -2.6321    -1.4571 C.ar    
  17 N17            2.2381    -2.7341    -1.9902 N.ar    
  18 C18            2.0583    -3.1601    -3.2237 C.ar    
  19 C19            3.1477    -3.5214    -4.0152 C.ar    
  20 C20            4.4355    -3.4242    -3.4780 C.ar    
  21 C21            4.5719    -2.9658    -2.1794 C.ar    
  22 C22            2.9446    -4.0009    -5.4022 C.ar    
  23 F23            1.1984    -2.0441    -0.0556 F       
  24 F24            1.1457     3.4455    -0.0300 F       
  25 C25            2.0062    -5.0257    -5.6736 C.ar    
  26 C26            1.8340    -5.4633    -7.0092 C.ar    
  27 C27            2.5911    -4.8792    -8.0375 C.ar    
  28 C28            3.4883    -3.8950    -7.7489 C.ar    
  29 C29            3.6660    -3.4475    -6.4448 C.ar    
  30 N30            1.2890    -5.5792    -4.6937 N.ar    
  31 C31            0.4185    -6.5292    -4.9385 C.ar    
  32 C32            0.1995    -7.0069    -6.2284 C.ar    
  33 C33            0.9002    -6.4826    -7.2772 C.ar    
  34 H34           -0.9606     1.9075    -0.0537 H       
  35 H35           -0.9294    -0.5504    -0.0617 H       
  36 H36            5.6921    -0.6430    -0.0194 H       
  37 H37            7.1957     3.6986     0.0142 H       
  38 H38            4.5134    -2.5171     0.3839 H       
  39 H39            2.7418    -2.4920     0.5545 H       
  40 H40            1.0582    -3.2304    -3.6252 H       
  41 H41            5.3017    -3.6958    -4.0632 H       
  42 H42            5.5508    -2.8773    -1.7318 H       
  43 H43            2.4625    -5.2103    -9.0574 H       
  44 H44            4.0663    -3.4520    -8.5464 H       
  45 H45            4.3832    -2.6659    -6.2418 H       
  46 H46           -0.1429    -6.9522    -4.1185 H       
  47 H47           -0.5237    -7.7906    -6.3992 H       
  48 H48            0.7431    -6.8406    -8.2839 H       
@<TRIPOS>BOND
   1    1    2 ar
   2    1    6 ar
   3    1   34 1
   4    2    3 ar
   5    2   35 1
   6    3    4 ar
   7    3   23 1
   8    4    5 ar
   9    4    7 1
  10    5    6 ar
  11    5   10 1
  12    6   24 1
  13    7    8 1
  14    7   15 1
  15    8    9 2
  16    8   36 1
  17    9   10 1
  18    9   12 1
  19   10   11 2
  20   12   13 1
  21   12   14 2
  22   13   37 1
  23   15   16 1
  24   15   38 1
  25   15   39 1
  26   16   17 ar
  27   16   21 ar
  28   17   18 ar
  29   18   19 ar
  30   18   40 1
  31   19   20 ar
  32   19   22 1
  33   20   21 ar
  34   20   41 1
  35   21   42 1
  36   22   25 ar
  37   22   29 ar
  38   25   26 ar
  39   25   30 ar
  40   26   27 ar
  41   26   33 ar
  42   27   28 ar
  43   27   43 1
  44   28   29 ar
  45   28   44 1
  46   29   45 1
  47   30   31 ar
  48   31   32 ar
  49   31   46 1
  50   32   33 ar
  51   32   47 1
  52   33   48 1

#	End of record

