#	Name: ASD08151063
#	Creating user name:	WinNT
#	Creation time:	15. 06. 2019 21:17

#	Modifying user name:	WinNT
#	Modification time:	15. 06. 2019 21:17

#	Program:	/corina/corina34_cracker 3.40 0067  02.08.2006

@<TRIPOS>MOLECULE
ASD08151063
  42   43    0    0    0
SMALL
NO_CHARGES


@<TRIPOS>ATOM
   1 C1            -0.0170     1.4047     0.0098 C.ar    
   2 C2             0.0021    -0.0041     0.0020 C.ar    
   3 C3             1.2242    -0.6865    -0.0133 C.ar    
   4 C4             2.4114     0.0108    -0.0205 C.ar    
   5 C5             2.4116     1.4086    -0.0125 C.ar    
   6 C6             1.1928     2.1133     0.0020 C.ar    
   7 C7            -1.3055     2.1318     0.0198 C.ar    
   8 C8            -2.1610     2.0258     1.1172 C.ar    
   9 C9            -3.3626     2.7079     1.1203 C.ar    
  10 C10           -3.7174     3.4953     0.0363 C.ar    
  11 C11           -2.8724     3.6030    -1.0533 C.ar    
  12 C12           -1.6674     2.9307    -1.0655 C.ar    
  13 C13           -1.2581    -0.7553     0.0105 C.2     
  14 O14           -1.2412    -1.9683     0.0038 O.2     
  15 F15           -4.1929     2.6067     2.1811 F       
  16 C16            3.6520     2.1241    -0.0191 C.1     
  17 C17            4.6689     2.7107    -0.0244 C.1     
  18 N18            1.1891     3.4803     0.0089 N.2     
  19 N19            2.3044     4.1283     0.0018 N.2     
  20 N20            2.3006     5.5293     0.0089 N.pl3   
  21 C21            1.0299     6.2583     0.0244 C.3     
  22 C22            0.6636     6.6139     1.4667 C.3     
  23 C23            3.5673     6.2653     0.0007 C.3     
  24 C24            3.9316     6.6375    -1.4379 C.3     
  25 Cl25           3.9179    -0.8516    -0.0389 Cl      
  26 H26            1.2360    -1.7664    -0.0192 H       
  27 H27           -1.8847     1.4120     1.9618 H       
  28 H28           -4.6577     4.0266     0.0423 H       
  29 H29           -3.1546     4.2181    -1.8950 H       
  30 H30           -1.0071     3.0198    -1.9154 H       
  31 H31           -2.2008    -0.2285     0.0227 H       
  32 H32            5.5784     3.2354    -0.0293 H       
  33 H33            1.1282     7.1722    -0.5614 H       
  34 H34            0.2473     5.6334    -0.4057 H       
  35 H35            0.5653     5.6999     2.0525 H       
  36 H36            1.4463     7.2388     1.8969 H       
  37 H37           -0.2818     7.1562     1.4783 H       
  38 H38            3.4641     7.1727     0.5957 H       
  39 H39            4.3533     5.6404     0.4246 H       
  40 H40            3.1456     7.2624    -1.8617 H       
  41 H41            4.8741     7.1851    -1.4439 H       
  42 H42            4.0348     5.7301    -2.0329 H       
@<TRIPOS>BOND
   1    1    2 ar
   2    1    6 ar
   3    1    7 1
   4    2    3 ar
   5    2   13 1
   6    3    4 ar
   7    3   26 1
   8    4    5 ar
   9    4   25 1
  10    5    6 ar
  11    5   16 1
  12    6   18 1
  13    7    8 ar
  14    7   12 ar
  15    8    9 ar
  16    8   27 1
  17    9   10 ar
  18    9   15 1
  19   10   11 ar
  20   10   28 1
  21   11   12 ar
  22   11   29 1
  23   12   30 1
  24   13   14 2
  25   13   31 1
  26   16   17 3
  27   17   32 1
  28   18   19 2
  29   19   20 1
  30   20   21 1
  31   20   23 1
  32   21   22 1
  33   21   33 1
  34   21   34 1
  35   22   35 1
  36   22   36 1
  37   22   37 1
  38   23   24 1
  39   23   38 1
  40   23   39 1
  41   24   40 1
  42   24   41 1
  43   24   42 1

#	End of record

