#	Name: ASD06020116
#	Creating user name:	WinNT
#	Creation time:	15. 06. 2019 21:04

#	Modifying user name:	WinNT
#	Modification time:	15. 06. 2019 21:04

#	Program:	/corina/corina34_cracker 3.40 0067  02.08.2006

@<TRIPOS>MOLECULE
ASD06020116
  32   34    0    0    0
SMALL
NO_CHARGES


@<TRIPOS>ATOM
   1 N1            -0.0162     1.3436     0.0094 N.am    
   2 C2             0.0021    -0.0041     0.0020 C.2     
   3 O3             1.0631    -0.5976    -0.0113 O.2     
   4 N4            -1.1558    -0.6938     0.0094 N.am    
   5 C5            -1.1360    -2.1586     0.0013 C.3     
   6 C6             1.1826     2.0576     0.0018 C.ar    
   7 C7             1.1587     3.4558     0.0096 C.ar    
   8 C8             2.3640     4.1670     0.0019 C.ar    
   9 C9             3.5620     3.4065    -0.0137 C.ar    
  10 C10            3.4930     2.0472    -0.0203 C.ar    
  11 N11            2.3329     1.4088    -0.0072 N.ar    
  12 S12           -0.1673     4.6131     0.0284 S.3     
  13 C13            0.9821     5.9447     0.0246 C.2     
  14 N14            2.1923     5.4900     0.0106 N.2     
  15 F15            4.7620     4.0270    -0.0223 F       
  16 C16            0.6169     7.3770     0.0358 C.ar    
  17 C17            1.6137     8.3552     0.0316 C.ar    
  18 C18            1.2651     9.6915     0.0421 C.ar    
  19 C19           -0.0675    10.0620     0.0573 C.ar    
  20 C20           -1.0602     9.0986     0.0616 C.ar    
  21 C21           -0.7265     7.7585     0.0449 C.ar    
  22 Cl22          -1.9739     6.5512     0.0425 Cl      
  23 Cl23           3.2868     7.8926     0.0136 Cl      
  24 H24           -0.8627     1.8171     0.0160 H       
  25 H25           -2.0023    -0.2203     0.0200 H       
  26 H26           -2.1585    -2.5359     0.0091 H       
  27 H27           -0.6258    -2.5101    -0.8955 H       
  28 H28           -0.6088    -2.5197     0.8844 H       
  29 H29            4.4084     1.4743    -0.0325 H       
  30 H30            2.0348    10.4491     0.0388 H       
  31 H31           -0.3343    11.1085     0.0663 H       
  32 H32           -2.0986     9.3950     0.0739 H       
@<TRIPOS>BOND
   1    1    2 am
   2    1    6 1
   3    1   24 1
   4    2    3 2
   5    2    4 am
   6    4    5 1
   7    4   25 1
   8    5   26 1
   9    5   27 1
  10    5   28 1
  11    6    7 ar
  12    6   11 ar
  13    7    8 ar
  14    7   12 1
  15    8    9 ar
  16    8   14 1
  17    9   10 ar
  18    9   15 1
  19   10   11 ar
  20   10   29 1
  21   12   13 1
  22   13   14 2
  23   13   16 1
  24   16   17 ar
  25   16   21 ar
  26   17   18 ar
  27   17   23 1
  28   18   19 ar
  29   18   30 1
  30   19   20 ar
  31   19   31 1
  32   20   21 ar
  33   20   32 1
  34   21   22 1

#	End of record

