#	Name: ASD01200129
#	Creating user name:	WinNT
#	Creation time:	15. 06. 2019 19:08

#	Modifying user name:	WinNT
#	Modification time:	15. 06. 2019 19:08

#	Program:	/corina/corina34_cracker 3.40 0067  02.08.2006

@<TRIPOS>MOLECULE
ASD01200129
  45   48    0    0    0
SMALL
NO_CHARGES


@<TRIPOS>ATOM
   1 C1            -0.0167     1.3792     0.0096 C.ar    
   2 C2             0.0021    -0.0041     0.0020 C.ar    
   3 C3             1.2087    -0.6842    -0.0132 C.ar    
   4 C4             2.3920     0.0166    -0.0208 C.ar    
   5 C5             2.3846     1.4137    -0.0132 C.ar    
   6 C6             1.1648     2.0919     0.0022 C.ar    
   7 C7             3.8409    -0.4021    -0.0369 C.3     
   8 N8             4.6266     0.8371    -0.0378 N.am    
   9 C9             3.7832     1.8837    -0.0241 C.2     
  10 O10            4.1240     3.0505    -0.0207 O.2     
  11 N11            4.1505    -1.1953     1.1602 N.3     
  12 C12            6.0892     0.9201    -0.0514 C.3     
  13 C13            6.5770     0.9561    -1.4768 C.ar    
  14 C14            4.9681    -2.3669     0.8185 C.3     
  15 C15            5.2649    -3.1542     2.0688 C.2     
  16 N16            6.0054    -4.2780     1.9975 N.am    
  17 O17            4.8373    -2.7765     3.1390 O.2     
  18 C18            6.2791    -5.0042     3.1507 C.2     
  19 C19            6.7331     2.1679    -2.1234 C.ar    
  20 C20            7.1806     2.2010    -3.4309 C.ar    
  21 C21            7.4725     1.0223    -4.0916 C.ar    
  22 C22            7.3173    -0.1894    -3.4446 C.ar    
  23 C23            6.8739    -0.2222    -2.1357 C.ar    
  24 N24            6.9787    -6.0947     3.1929 N.2     
  25 C25            7.1407    -6.6553     4.3768 C.2     
  26 C26            6.5499    -6.0076     5.3829 C.2     
  27 S27            5.7484    -4.5852     4.7210 S.3     
  28 H28           -0.9607     1.9038     0.0169 H       
  29 H29           -0.9267    -0.5552     0.0083 H       
  30 H30            1.2202    -1.7641    -0.0188 H       
  31 H31            1.1457     3.1718     0.0078 H       
  32 H32            4.0535    -0.9810    -0.9357 H       
  33 H33            4.6046    -0.6294     1.8614 H       
  34 H34            6.4065     1.8264     0.4643 H       
  35 H35            6.5072     0.0493     0.4538 H       
  36 H36            4.4249    -2.9959     0.1134 H       
  37 H37            5.9035    -2.0377     0.3659 H       
  38 H38            6.3474    -4.5801     1.1415 H       
  39 H39            6.5050     3.0887    -1.6073 H       
  40 H40            7.3018     3.1477    -3.9364 H       
  41 H41            7.8214     1.0482    -5.1134 H       
  42 H42            7.5450    -1.1102    -3.9609 H       
  43 H43            6.7527    -1.1689    -1.6302 H       
  44 H44            7.7057    -7.5645     4.5197 H       
  45 H45            6.5635    -6.3021     6.4218 H       
@<TRIPOS>BOND
   1    1    2 ar
   2    1    6 ar
   3    1   28 1
   4    2    3 ar
   5    2   29 1
   6    3    4 ar
   7    3   30 1
   8    4    5 ar
   9    4    7 1
  10    5    6 ar
  11    5    9 1
  12    6   31 1
  13    7    8 1
  14    7   11 1
  15    7   32 1
  16    8    9 am
  17    8   12 1
  18    9   10 2
  19   11   14 1
  20   11   33 1
  21   12   13 1
  22   12   34 1
  23   12   35 1
  24   13   19 ar
  25   13   23 ar
  26   14   15 1
  27   14   36 1
  28   14   37 1
  29   15   16 am
  30   15   17 2
  31   16   18 1
  32   16   38 1
  33   18   24 2
  34   18   27 1
  35   19   20 ar
  36   19   39 1
  37   20   21 ar
  38   20   40 1
  39   21   22 ar
  40   21   41 1
  41   22   23 ar
  42   22   42 1
  43   23   43 1
  44   24   25 1
  45   25   26 2
  46   25   44 1
  47   26   27 1
  48   26   45 1

#	End of record

