#	Name: ASD00460003
#	Creating user name:	WinNT
#	Creation time:	15. 06. 2019 18:36

#	Modifying user name:	WinNT
#	Modification time:	15. 06. 2019 18:36

#	Program:	/corina/corina34_cracker 3.40 0067  02.08.2006

@<TRIPOS>MOLECULE
ASD00460003
  48   50    0    0    0
SMALL
NO_CHARGES


@<TRIPOS>ATOM
   1 C1            -0.0167     1.3779     0.0096 C.ar    
   2 C2             0.0021    -0.0041     0.0020 C.ar    
   3 C3             1.2086    -0.6790    -0.0132 C.ar    
   4 C4             2.3961     0.0283    -0.0212 C.ar    
   5 C5             2.3773     1.4107    -0.0145 C.ar    
   6 C6             1.1711     2.0854     0.0021 C.ar    
   7 C7             3.6720     2.1819    -0.0223 C.3     
   8 C8             4.0974     2.4497    -1.4674 C.3     
   9 C9             5.4119     3.2327    -1.4752 C.3     
  10 N10            5.8204     3.4898    -2.8627 N.3     
  11 C11            7.0817     4.2414    -2.9095 C.3     
  12 C12            7.7793     3.9711    -4.2176 C.ar    
  13 C13            9.1739     4.1139    -4.3171 C.ar    
  14 C14            9.8122     3.8547    -5.5556 C.ar    
  15 C15            9.0383     3.4602    -6.6604 C.ar    
  16 C16            7.6899     3.3328    -6.5269 C.ar    
  17 C17            7.0629     3.5819    -5.3072 C.ar    
  18 C18            9.9479     4.5093    -3.2127 C.ar    
  19 C19           11.2962     4.6375    -3.3466 C.ar    
  20 C20           11.9238     4.3825    -4.5645 C.ar    
  21 C21           11.2067     3.9974    -5.6552 C.ar    
  22 H22            7.7219     3.9284    -2.0847 H       
  23 C23            6.7882     5.7381    -2.7877 C.3     
  24 C24            1.2291    -2.1858    -0.0205 C.3     
  25 F25           -0.0834    -2.6701    -0.0097 F       
  26 F26            1.8834    -2.6378    -1.1715 F       
  27 F27            1.9062    -2.6485     1.1130 F       
  28 H28           -0.9592     1.9051     0.0170 H       
  29 H29           -0.9258    -0.5567     0.0083 H       
  30 H30            3.3386    -0.4989    -0.0324 H       
  31 H31            1.1565     3.1653     0.0077 H       
  32 H32            3.5333     3.1300     0.4972 H       
  33 H33            4.4441     1.6008     0.4820 H       
  34 H34            4.2362     1.5016    -1.9869 H       
  35 H35            3.3254     3.0308    -1.9717 H       
  36 H36            5.2732     4.1808    -0.9557 H       
  37 H37            6.1840     2.6516    -0.9709 H       
  38 H38            5.8931     2.6288    -3.3837 H       
  39 H39            9.5110     3.2597    -7.6105 H       
  40 H40            7.0975     3.0295    -7.3774 H       
  41 H41            5.9913     3.4729    -5.2281 H       
  42 H42            9.4752     4.7107    -2.2627 H       
  43 H43           11.8886     4.9419    -2.4964 H       
  44 H44           12.9953     4.4921    -4.6440 H       
  45 H45           11.7066     3.8032    -6.5927 H       
  46 H46            6.2836     5.9336    -1.8416 H       
  47 H47            7.7241     6.2958    -2.8224 H       
  48 H48            6.1480     6.0511    -3.6125 H       
@<TRIPOS>BOND
   1    1    2 ar
   2    1    6 ar
   3    1   28 1
   4    2    3 ar
   5    2   29 1
   6    3    4 ar
   7    3   24 1
   8    4    5 ar
   9    4   30 1
  10    5    6 ar
  11    5    7 1
  12    6   31 1
  13    7    8 1
  14    7   32 1
  15    7   33 1
  16    8    9 1
  17    8   34 1
  18    8   35 1
  19    9   10 1
  20    9   36 1
  21    9   37 1
  22   10   11 1
  23   10   38 1
  24   11   12 1
  25   11   22 1
  26   11   23 1
  27   12   13 ar
  28   12   17 ar
  29   13   14 ar
  30   13   18 ar
  31   14   15 ar
  32   14   21 ar
  33   15   16 ar
  34   15   39 1
  35   16   17 ar
  36   16   40 1
  37   17   41 1
  38   18   19 ar
  39   18   42 1
  40   19   20 ar
  41   19   43 1
  42   20   21 ar
  43   20   44 1
  44   21   45 1
  45   23   46 1
  46   23   47 1
  47   23   48 1
  48   24   25 1
  49   24   26 1
  50   24   27 1

#	End of record

