#	Name: ASD01912516
#	Creating user name:	WinNT
#	Creation time:	15. 06. 2019 19:59

#	Modifying user name:	WinNT
#	Modification time:	15. 06. 2019 19:59

#	Program:	/corina/corina34_cracker 3.40 0067  02.08.2006

@<TRIPOS>MOLECULE
ASD01912516
  34   36    0    0    0
SMALL
NO_CHARGES


@<TRIPOS>ATOM
   1 C1            -0.0169     1.3930     0.0097 C.ar    
   2 C2             0.0021    -0.0041     0.0020 C.ar    
   3 N3             1.1562    -0.6575    -0.0093 N.ar    
   4 C4             2.3242    -0.0316    -0.0131 C.ar    
   5 C5             2.3738     1.3456    -0.0128 C.ar    
   6 C6             1.1850     2.0728     0.0019 C.ar    
   7 C7             3.5685    -0.8826    -0.0085 C.3     
   8 C8             4.7800    -0.0652    -0.4511 C.3     
   9 C9             4.8315     1.2185     0.3856 C.3     
  10 C10            3.6679     2.1143    -0.0351 C.3     
  11 O11            3.5749     3.2200     0.8654 O.3     
  12 C12           -1.2301    -0.7337     0.0068 C.1     
  13 C13           -2.2403    -1.3318     0.0107 C.1     
  14 C14           -3.4725    -2.0614     0.0155 C.ar    
  15 C15           -3.4611    -3.4588     0.0079 C.ar    
  16 C16           -4.6922    -1.3795     0.0337 C.ar    
  17 C17           -5.8749    -2.0889     0.0381 C.ar    
  18 C18           -5.8558    -3.4725     0.0247 C.ar    
  19 C19           -4.6518    -4.1547     0.0125 C.ar    
  20 H20           -0.9534     1.9307     0.0171 H       
  21 H21            1.2035     3.1527     0.0067 H       
  22 H22            3.7400    -1.2630     0.9985 H       
  23 H23            3.4324    -1.7218    -0.6907 H       
  24 H24            5.6901    -0.6433    -0.2915 H       
  25 H25            4.6844     0.1892    -1.5067 H       
  26 H26            4.7407     0.9712     1.4433 H       
  27 H27            5.7750     1.7347     0.2083 H       
  28 H28            3.8474     2.4869    -1.0436 H       
  29 H29            2.8566     3.8343     0.6611 H       
  30 H30           -2.5222    -3.9924    -0.0020 H       
  31 H31           -4.7085    -0.2997     0.0445 H       
  32 H32           -6.8182    -1.5633     0.0525 H       
  33 H33           -6.7851    -4.0228     0.0283 H       
  34 H34           -4.6446    -5.2346     0.0021 H       
@<TRIPOS>BOND
   1    1    2 ar
   2    1    6 ar
   3    1   20 1
   4    2    3 ar
   5    2   12 1
   6    3    4 ar
   7    4    5 ar
   8    4    7 1
   9    5    6 ar
  10    5   10 1
  11    6   21 1
  12    7    8 1
  13    7   22 1
  14    7   23 1
  15    8    9 1
  16    8   24 1
  17    8   25 1
  18    9   10 1
  19    9   26 1
  20    9   27 1
  21   10   11 1
  22   10   28 1
  23   11   29 1
  24   12   13 3
  25   13   14 1
  26   14   15 ar
  27   14   16 ar
  28   15   19 ar
  29   15   30 1
  30   16   17 ar
  31   16   31 1
  32   17   18 ar
  33   17   32 1
  34   18   19 ar
  35   18   33 1
  36   19   34 1

#	End of record

