#	Name: ASD03430996
#	Creating user name:	WinNT
#	Creation time:	15. 06. 2019 20:41

#	Modifying user name:	WinNT
#	Modification time:	15. 06. 2019 20:41

#	Program:	/corina/corina34_cracker 3.40 0067  02.08.2006

@<TRIPOS>MOLECULE
ASD03430996
  47   52    0    0    0
SMALL
NO_CHARGES


@<TRIPOS>ATOM
   1 O1            -0.0173     1.4275     0.0099 O.3     
   2 C2             0.0021    -0.0041     0.0020 C.3     
   3 C3             1.0291    -0.4757     1.0402 C.3     
   4 O4             2.3087     0.0542     0.6787 O.3     
   5 C5             2.3528     1.3722     0.3390 C.ar    
   6 C6             1.1903     2.0563     0.0017 C.ar    
   7 C7             3.5676     2.0339     0.3348 C.ar    
   8 C8             3.6427     3.3769    -0.0209 C.ar    
   9 C9             2.4732     4.0527    -0.3585 C.ar    
  10 C10            1.2583     3.3964    -0.3462 C.ar    
  11 O11            4.9305     3.8256     0.0122 O.3     
  12 C12            4.9690     1.5994     0.6697 C.3     
  13 C13            5.7261     2.9274     0.8090 C.3     
  14 N14            5.5916    -0.3907     1.6059 N.am    
  15 C15            5.0280     0.7892     1.9328 C.2     
  16 C16            5.5657     0.7243    -0.3923 C.ar    
  17 C17            5.7934     0.8852    -1.7408 C.ar    
  18 C18            6.3789    -0.1334    -2.4711 C.ar    
  19 C19            6.7342    -1.3137    -1.8438 C.ar    
  20 C20            6.5072    -1.4802    -0.4937 C.ar    
  21 C21            5.9183    -0.4601     0.2495 C.ar    
  22 O22            4.6435     1.1297     3.0315 O.2     
  23 C23            5.8335    -1.4742     2.5618 C.3     
  24 C24            4.6314    -2.3819     2.6069 C.ar    
  25 C25            4.6051    -3.5204     1.8234 C.ar    
  26 C26            3.4948    -4.3489     1.8727 C.ar    
  27 C27            2.4475    -3.9997     2.7120 C.ar    
  28 C28            2.5448    -2.8458     3.4660 C.ar    
  29 N29            3.6191    -2.0838     3.3975 N.ar    
  30 Cl30           2.5428     5.7308    -0.7977 Cl      
  31 H31           -0.9851    -0.3866     0.2613 H       
  32 H32            0.2878    -0.3625    -0.9869 H       
  33 H33            0.7465    -0.1119     2.0281 H       
  34 H34            1.0709    -1.5649     1.0472 H       
  35 H35            0.3568     3.9297    -0.6092 H       
  36 H36            6.7349     2.8421     0.4051 H       
  37 H37            5.7508     3.2516     1.8494 H       
  38 H38            5.5150     1.8076    -2.2286 H       
  39 H39            6.5578    -0.0074    -3.5287 H       
  40 H40            7.1913    -2.1089    -2.4140 H       
  41 H41            6.7873    -2.4047    -0.0109 H       
  42 H42            6.7083    -2.0451     2.2502 H       
  43 H43            6.0082    -1.0531     3.5518 H       
  44 H44            5.4390    -3.7612     1.1807 H       
  45 H45            3.4463    -5.2447     1.2715 H       
  46 H46            1.5668    -4.6216     2.7753 H       
  47 H47            1.7336    -2.5670     4.1221 H       
@<TRIPOS>BOND
   1    1    2 1
   2    1    6 1
   3    2    3 1
   4    2   31 1
   5    2   32 1
   6    3    4 1
   7    3   33 1
   8    3   34 1
   9    4    5 1
  10    5    6 ar
  11    5    7 ar
  12    6   10 ar
  13    7    8 ar
  14    7   12 1
  15    8    9 ar
  16    8   11 1
  17    9   10 ar
  18    9   30 1
  19   10   35 1
  20   11   13 1
  21   12   13 1
  22   12   15 1
  23   12   16 1
  24   13   36 1
  25   13   37 1
  26   14   15 am
  27   14   21 1
  28   14   23 1
  29   15   22 2
  30   16   17 ar
  31   16   21 ar
  32   17   18 ar
  33   17   38 1
  34   18   19 ar
  35   18   39 1
  36   19   20 ar
  37   19   40 1
  38   20   21 ar
  39   20   41 1
  40   23   24 1
  41   23   42 1
  42   23   43 1
  43   24   25 ar
  44   24   29 ar
  45   25   26 ar
  46   25   44 1
  47   26   27 ar
  48   26   45 1
  49   27   28 ar
  50   27   46 1
  51   28   29 ar
  52   28   47 1

#	End of record

