#	Name: ASD01840276
#	Creating user name:	WinNT
#	Creation time:	15. 06. 2019 19:37

#	Modifying user name:	WinNT
#	Modification time:	15. 06. 2019 19:37

#	Program:	/corina/corina34_cracker 3.40 0067  02.08.2006

@<TRIPOS>MOLECULE
ASD01840276
  40   42    0    0    0
SMALL
NO_CHARGES


@<TRIPOS>ATOM
   1 C1            -0.0173     1.4248     0.0099 C.3     
   2 O2             0.0021    -0.0041     0.0020 O.3     
   3 C3            -1.2008    -0.6377     0.0101 C.ar    
   4 C4            -2.3742     0.1001     0.0195 C.ar    
   5 C5            -3.5961    -0.5461     0.0272 C.ar    
   6 C6            -3.6497    -1.9273     0.0256 C.ar    
   7 C7            -4.9838    -2.6281     0.0340 C.3     
   8 N8            -5.4259    -2.8532    -1.3444 N.am    
   9 C9            -6.6007    -3.4691    -1.5833 C.2     
  10 O10           -7.2938    -3.8380    -0.6544 O.2     
  11 C11           -7.0448    -3.6953    -2.9680 C.2     
  12 C12           -8.1925    -4.2904    -3.3104 C.2     
  13 C13           -8.4237    -4.4060    -4.6872 C.ar    
  14 C14           -9.5189    -4.9731    -5.3837 C.ar    
  15 C15          -10.6806    -5.5786    -4.6388 C.3     
  16 C16           -9.4930    -4.9556    -6.7497 C.ar    
  17 C17          -10.6399    -5.5489    -7.5267 C.3     
  18 N18           -8.4699    -4.4220    -7.3952 N.ar    
  19 N19           -7.4667    -3.9023    -6.7900 N.ar    
  20 C20           -7.3845    -3.8636    -5.4601 C.ar    
  21 S21           -6.1440    -3.2140    -4.3954 S.3     
  22 C22           -2.4814    -2.6673     0.0158 C.ar    
  23 C23           -1.2562    -2.0261     0.0032 C.ar    
  24 F24           -0.1147    -2.7486    -0.0112 F       
  25 H25            1.0053     1.8021     0.0021 H       
  26 H26           -0.5445     1.7859    -0.8732 H       
  27 H27           -0.5275     1.7763     0.9067 H       
  28 H28           -2.3339     1.1793     0.0211 H       
  29 H29           -4.5102     0.0290     0.0349 H       
  30 H30           -4.8880    -3.5857     0.5458 H       
  31 H31           -5.7157    -2.0099     0.5540 H       
  32 H32           -4.8731    -2.5590    -2.0852 H       
  33 H33           -8.8934    -4.6574    -2.5752 H       
  34 H34          -11.4345    -4.8127    -4.4569 H       
  35 H35          -11.1150    -6.3818    -5.2341 H       
  36 H36          -10.3327    -5.9793    -3.6868 H       
  37 H37          -11.3900    -4.7799    -7.7114 H       
  38 H38          -10.2732    -5.9347    -8.4780 H       
  39 H39          -11.0859    -6.3612    -6.9529 H       
  40 H40           -2.5260    -3.7463     0.0142 H       
@<TRIPOS>BOND
   1    1    2 1
   2    1   25 1
   3    1   26 1
   4    1   27 1
   5    2    3 1
   6    3   23 ar
   7    3    4 ar
   8    4    5 ar
   9    4   28 1
  10    5    6 ar
  11    5   29 1
  12    6    7 1
  13    6   22 ar
  14    7    8 1
  15    7   30 1
  16    7   31 1
  17    8    9 am
  18    8   32 1
  19    9   10 2
  20    9   11 1
  21   11   21 1
  22   11   12 2
  23   12   13 1
  24   12   33 1
  25   13   20 ar
  26   13   14 ar
  27   14   15 1
  28   14   16 ar
  29   15   34 1
  30   15   35 1
  31   15   36 1
  32   16   17 1
  33   16   18 ar
  34   17   37 1
  35   17   38 1
  36   17   39 1
  37   18   19 ar
  38   19   20 ar
  39   20   21 1
  40   22   23 ar
  41   22   40 1
  42   23   24 1

#	End of record

