#	Name: ASD01870479
#	Creating user name:	WinNT
#	Creation time:	15. 06. 2019 19:39

#	Modifying user name:	WinNT
#	Modification time:	15. 06. 2019 19:39

#	Program:	/corina/corina34_cracker 3.40 0067  02.08.2006

@<TRIPOS>MOLECULE
ASD01870479
  40   43    0    0    0
SMALL
NO_CHARGES


@<TRIPOS>ATOM
   1 C1            -0.0304     1.3965    -0.2318 C.ar    
   2 C2            -0.0274     0.0162    -0.1044 C.ar    
   3 C3             1.1516    -0.6624     0.1405 C.ar    
   4 C4             2.3476     0.0280     0.2621 C.ar    
   5 C5             2.3599     1.4079     0.1371 C.ar    
   6 C6             1.1574     2.0999    -0.1126 C.ar    
   7 C7             3.4145     2.4413     0.2053 C.2     
   8 N8             2.8483     3.6453     0.0070 N.am    
   9 C9             1.5222     3.5303    -0.1877 C.2     
  10 O10            0.7533     4.4482    -0.3911 O.2     
  11 O11            4.5946     2.2376     0.4074 O.2     
  12 C12            3.5487     4.8614     0.0040 C.ar    
  13 C13            4.0787     5.3543    -1.1806 C.ar    
  14 C14            4.7678     6.5504    -1.1840 C.ar    
  15 C15            4.9317     7.2613    -0.0019 C.ar    
  16 C16            4.4018     6.7689     1.1835 C.ar    
  17 C17            3.7069     5.5748     1.1856 C.ar    
  18 Cl18           3.0375     4.9625     2.6657 Cl      
  19 N19            5.6312     8.4736    -0.0055 N.am    
  20 C20            6.4037     8.8090     1.0467 C.2     
  21 C21            7.2189    10.0330     1.0003 C.2     
  22 O22            6.4270     8.0998     2.0347 O.2     
  23 C23            8.0578    10.5106     1.9924 C.2     
  24 C24            8.6031    11.6898     1.4797 C.2     
  25 N25            8.1105    11.8719     0.2811 N.2     
  26 N26            7.3041    10.9227    -0.0327 N.pl3   
  27 C27            8.3254     9.8904     3.3396 C.3     
  28 H28           -0.9540     1.9211    -0.4275 H       
  29 H29           -0.9529    -0.5329    -0.1968 H       
  30 H30            1.1410    -1.7379     0.2381 H       
  31 H31            3.2657    -0.5074     0.4538 H       
  32 H32            3.9522     4.8015    -2.0998 H       
  33 H33            5.1799     6.9334    -2.1059 H       
  34 H34            4.5291     7.3215     2.1027 H       
  35 H35            5.5600     9.0724    -0.7654 H       
  36 H36            9.3062    12.3368     1.9833 H       
  37 H37            6.8270    10.8498    -0.8741 H       
  38 H38            9.1695     9.2051     3.2629 H       
  39 H39            8.5578    10.6741     4.0606 H       
  40 H40            7.4422     9.3434     3.6696 H       
@<TRIPOS>BOND
   1    1    2 ar
   2    1    6 ar
   3    1   28 1
   4    2    3 ar
   5    2   29 1
   6    3    4 ar
   7    3   30 1
   8    4    5 ar
   9    4   31 1
  10    5    7 1
  11    5    6 ar
  12    6    9 1
  13    7    8 am
  14    7   11 2
  15    8    9 am
  16    8   12 1
  17    9   10 2
  18   12   13 ar
  19   12   17 ar
  20   13   14 ar
  21   13   32 1
  22   14   15 ar
  23   14   33 1
  24   15   16 ar
  25   15   19 1
  26   16   17 ar
  27   16   34 1
  28   17   18 1
  29   19   20 am
  30   19   35 1
  31   20   21 1
  32   20   22 2
  33   21   23 2
  34   21   26 1
  35   23   24 1
  36   23   27 1
  37   24   25 2
  38   24   36 1
  39   25   26 1
  40   26   37 1
  41   27   38 1
  42   27   39 1
  43   27   40 1

#	End of record

