#	Name: ASD02198834
#	Creating user name:	WinNT
#	Creation time:	15. 06. 2019 20:20

#	Modifying user name:	WinNT
#	Modification time:	15. 06. 2019 20:20

#	Program:	/corina/corina34_cracker 3.40 0067  02.08.2006

@<TRIPOS>MOLECULE
ASD02198834
  47   51    0    0    0
SMALL
NO_CHARGES


@<TRIPOS>ATOM
   1 F1             2.2528    -1.7112     2.4722 F       
   2 C2            -0.0433     1.5018    -0.1150 C.2     
   3 C3            -0.0730     0.1621     0.0976 C.2     
   4 N4             1.0712    -0.5395     0.2604 N.pl3   
   5 N5             2.2357    -0.0047     0.2263 N.2     
   6 C6             2.4072     1.2848     0.0277 C.2     
   7 C7             1.2215     2.1358    -0.1604 C.2     
   8 C8             0.9796    -1.9187     0.4774 C.ar    
   9 C9             1.5803    -2.4888     1.5958 C.ar    
  10 C10            1.4885    -3.8513     1.8090 C.ar    
  11 C11            0.7973    -4.6498     0.9073 C.ar    
  12 C12            0.1983    -4.0798    -0.2093 C.ar    
  13 C13            0.2842    -2.7189    -0.4205 C.ar    
  14 C14            3.7642     1.8671    -0.0050 C.2     
  15 N15            4.3062     2.6068    -1.0182 N.pl3   
  16 N16            5.6082     2.9582    -0.6406 N.2     
  17 C17            5.8520     2.4588     0.5448 C.2     
  18 C18            4.7198     1.7718     0.9828 C.2     
  19 C19            3.6731     2.9514    -2.2192 C.ar    
  20 C20            3.8072     4.2344    -2.7330 C.ar    
  21 C21            3.1819     4.5719    -3.9176 C.ar    
  22 C22            2.4228     3.6339    -4.5922 C.ar    
  23 C23            2.2869     2.3539    -4.0831 C.ar    
  24 C24            2.9149     2.0089    -2.9013 C.ar    
  25 O25            1.3244     3.3390    -0.3483 O.2     
  26 N26            0.7044    -6.0295     1.1232 N.am    
  27 C27            0.0058    -6.9865     0.2516 C.3     
  28 C28            0.2174    -8.3427     0.9518 C.3     
  29 O29            1.0048    -8.0113     2.1321 O.3     
  30 C30            1.2422    -6.6948     2.1546 C.2     
  31 Cl31           1.3328     1.1790    -4.9334 Cl      
  32 O32            1.8799    -6.1510     3.0344 O.2     
  33 H33           -0.9547     2.0654    -0.2495 H       
  34 H34           -1.0229    -0.3504     0.1375 H       
  35 H35            1.9545    -4.2949     2.6765 H       
  36 H36           -0.3387    -4.7017    -0.9102 H       
  37 H37           -0.1821    -2.2768    -1.2886 H       
  38 H38            6.7757     2.5646     1.0944 H       
  39 H39            4.6138     1.2528     1.9240 H       
  40 H40            4.3996     4.9681    -2.2066 H       
  41 H41            3.2858     5.5699    -4.3170 H       
  42 H42            1.9347     3.9004    -5.5180 H       
  43 H43            2.8091     1.0101    -2.5043 H       
  44 H44           -1.0560    -6.7471     0.1936 H       
  45 H45            0.4522    -6.9952    -0.7428 H       
  46 H46           -0.7397    -8.7771     1.2405 H       
  47 H47            0.7681    -9.0252     0.3044 H       
@<TRIPOS>BOND
   1    1    9 1
   2    2    3 2
   3    2    7 1
   4    2   33 1
   5    3    4 1
   6    3   34 1
   7    4    5 1
   8    4    8 1
   9    5    6 2
  10    6    7 1
  11    6   14 1
  12    7   25 2
  13    8    9 ar
  14    8   13 ar
  15    9   10 ar
  16   10   11 ar
  17   10   35 1
  18   11   12 ar
  19   11   26 1
  20   12   13 ar
  21   12   36 1
  22   13   37 1
  23   14   15 1
  24   14   18 2
  25   15   16 1
  26   15   19 1
  27   16   17 2
  28   17   18 1
  29   17   38 1
  30   18   39 1
  31   19   20 ar
  32   19   24 ar
  33   20   21 ar
  34   20   40 1
  35   21   22 ar
  36   21   41 1
  37   22   23 ar
  38   22   42 1
  39   23   24 ar
  40   23   31 1
  41   24   43 1
  42   26   27 1
  43   26   30 am
  44   27   28 1
  45   27   44 1
  46   27   45 1
  47   28   29 1
  48   28   46 1
  49   28   47 1
  50   29   30 1
  51   30   32 2

#	End of record

