#	Name: ASD00311355
#	Creating user name:	WinNT
#	Creation time:	15. 06. 2019 18:34

#	Modifying user name:	WinNT
#	Modification time:	15. 06. 2019 18:34

#	Program:	/corina/corina34_cracker 3.40 0067  02.08.2006

@<TRIPOS>MOLECULE
ASD00311355
  40   43    0    0    0
SMALL
NO_CHARGES


@<TRIPOS>ATOM
   1 C1            -0.0167     1.3778     0.0096 C.2     
   2 C2             0.0021    -0.0041     0.0020 C.2     
   3 C3             1.2589    -0.6767    -0.0131 C.2     
   4 C4             2.4316     0.0673    -0.0199 C.2     
   5 C5             2.3574     1.4753    -0.0117 C.2     
   6 N6             1.1648     2.0904     0.0022 N.am    
   7 C7            -1.3431    -0.5750     0.0118 C.2     
   8 C8            -2.3224     0.3256     0.0260 C.2     
   9 S9            -1.6794     1.9560     0.0358 S.3     
  10 O10            3.3822     2.1374    -0.0171 O.2     
  11 C11            3.7477    -0.6119    -0.0352 C.ar    
  12 C12            4.5939    -0.4744    -1.1354 C.ar    
  13 C13            5.8187    -1.1097    -1.1437 C.ar    
  14 C14            6.2081    -1.8817    -0.0637 C.ar    
  15 C15            5.3732    -2.0218     1.0305 C.ar    
  16 C16            4.1484    -1.3869     1.0530 C.ar    
  17 C17           -1.5955    -2.0355     0.0059 C.ar    
  18 C18           -2.4693    -2.5976     0.9348 C.ar    
  19 C19           -2.7011    -3.9628     0.9236 C.ar    
  20 C20           -2.0636    -4.7679    -0.0109 C.ar    
  21 C21           -1.1965    -4.2113    -0.9323 C.ar    
  22 C22           -0.9640    -2.8506    -0.9328 C.ar    
  23 C23           -2.3175    -6.2533    -0.0204 C.3     
  24 O24           -3.5524    -4.5147     1.8278 O.3     
  25 O25            1.3089    -2.0291    -0.0204 O.3     
  26 H26            1.1326     3.0598     0.0073 H       
  27 H27           -3.3749     0.0838     0.0341 H       
  28 H28            4.2909     0.1277    -1.9792 H       
  29 H29            6.4747    -1.0043    -1.9952 H       
  30 H30            7.1676    -2.3772    -0.0750 H       
  31 H31            5.6827    -2.6258     1.8706 H       
  32 H32            3.4993    -1.4934     1.9097 H       
  33 H33           -2.9639    -1.9703     1.6616 H       
  34 H34           -0.7027    -4.8422    -1.6566 H       
  35 H35           -0.2896    -2.4180    -1.6571 H       
  36 H36           -3.1608    -6.4737    -0.6749 H       
  37 H37           -1.4301    -6.7713    -0.3843 H       
  38 H38           -2.5452    -6.5895     0.9912 H       
  39 H39           -4.4712    -4.5557     1.5289 H       
  40 H40            2.2062    -2.3895    -0.0307 H       
@<TRIPOS>BOND
   1    1    2 2
   2    1    6 1
   3    1    9 1
   4    2    3 1
   5    2    7 1
   6    3    4 2
   7    3   25 1
   8    4    5 1
   9    4   11 1
  10    5    6 am
  11    5   10 2
  12    6   26 1
  13    7    8 2
  14    7   17 1
  15    8    9 1
  16    8   27 1
  17   11   12 ar
  18   11   16 ar
  19   12   13 ar
  20   12   28 1
  21   13   14 ar
  22   13   29 1
  23   14   15 ar
  24   14   30 1
  25   15   16 ar
  26   15   31 1
  27   16   32 1
  28   17   18 ar
  29   17   22 ar
  30   18   19 ar
  31   18   33 1
  32   19   20 ar
  33   19   24 1
  34   20   21 ar
  35   20   23 1
  36   21   22 ar
  37   21   34 1
  38   22   35 1
  39   23   36 1
  40   23   37 1
  41   23   38 1
  42   24   39 1
  43   25   40 1

#	End of record

