#	Name: ASD04370075
#	Creating user name:	WinNT
#	Creation time:	15. 06. 2019 20:49

#	Modifying user name:	WinNT
#	Modification time:	15. 06. 2019 20:49

#	Program:	/corina/corina34_cracker 3.40 0067  02.08.2006

@<TRIPOS>MOLECULE
ASD04370075
  57   57    0    0    0
SMALL
NO_CHARGES


@<TRIPOS>ATOM
   1 C1            -0.6617    -0.3500    -1.3103 C.2     
   2 C2             0.0144     0.0234    -0.0163 C.3     
   3 C3             1.4090    -0.6042     0.0301 C.3     
   4 C4             1.2809    -2.1274     0.0953 C.3     
   5 O5            -0.0474    -0.9469    -2.1625 O.2     
   6 O6            -1.9479    -0.0243    -1.5139 O.3     
   7 N7             2.1218    -0.1229     1.2161 N.am    
   8 C8             2.8503     1.0092     1.1513 C.2     
   9 C9             3.6735     1.4443     2.3361 C.3     
  10 C10            4.3974     2.7502     2.0022 C.3     
  11 C11            5.2333     3.1920     3.2052 C.3     
  12 C12            5.9572     4.4979     2.8713 C.3     
  13 C13            6.7930     4.9397     4.0742 C.3     
  14 C14            7.5169     6.2456     3.7403 C.3     
  15 C15            8.3527     6.6874     4.9433 C.3     
  16 O16            2.8432     1.6777     0.1394 O.2     
  17 C17            9.0658     7.9737     4.6144 C.ar    
  18 C18            8.4606     9.1874     4.8821 C.ar    
  19 C19            9.1147    10.3672     4.5803 C.ar    
  20 C20           10.3740    10.3334     4.0113 C.ar    
  21 C21           10.9795     9.1197     3.7444 C.ar    
  22 C22           10.3273     7.9399     4.0501 C.ar    
  23 N23            2.6130    -2.7242     0.2603 N.3     
  24 C24            2.5136    -4.1582     0.5634 C.3     
  25 C25            3.4441    -2.4939    -0.9289 C.3     
  26 H26            0.1017     1.1080     0.0483 H       
  27 H27           -0.5775    -0.3440     0.8221 H       
  28 H28            1.9634    -0.3241    -0.8656 H       
  29 H29            0.6518    -2.4033     0.9416 H       
  30 H30            0.8303    -2.4939    -0.8271 H       
  31 H31           -2.3382    -0.2850    -2.3594 H       
  32 H32            2.0695    -0.6190     2.0480 H       
  33 H33            3.0204     1.6003     3.1948 H       
  34 H34            4.4064     0.6728     2.5724 H       
  35 H35            5.0505     2.5943     1.1436 H       
  36 H36            3.6646     3.5217     1.7659 H       
  37 H37            4.5802     3.3479     4.0638 H       
  38 H38            5.9661     2.4205     3.4415 H       
  39 H39            6.6103     4.3420     2.0126 H       
  40 H40            5.2243     5.2694     2.6350 H       
  41 H41            6.1399     5.0956     4.9329 H       
  42 H42            7.5258     4.1682     4.3105 H       
  43 H43            8.1700     6.0897     2.8817 H       
  44 H44            6.7841     7.0171     3.5040 H       
  45 H45            7.6996     6.8433     5.8019 H       
  46 H46            9.0856     5.9159     5.1795 H       
  47 H47            7.4767     9.2138     5.3267 H       
  48 H48            8.6416    11.3154     4.7889 H       
  49 H49           10.8847    11.2552     3.7749 H       
  50 H50           11.9633     9.0933     3.2995 H       
  51 H51           10.8018     6.9917     3.8450 H       
  52 H52            2.0011    -4.6674    -0.2528 H       
  53 H53            3.5139    -4.5750     0.6807 H       
  54 H54            1.9519    -4.2961     1.4873 H       
  55 H55            3.5588    -1.4220    -1.0899 H       
  56 H56            4.4246    -2.9460    -0.7800 H       
  57 H57            2.9653    -2.9429    -1.7992 H       
@<TRIPOS>BOND
   1    1    2 1
   2    1    5 2
   3    1    6 1
   4    2    3 1
   5    2   26 1
   6    2   27 1
   7    3    4 1
   8    3    7 1
   9    3   28 1
  10    4   23 1
  11    4   29 1
  12    4   30 1
  13    6   31 1
  14    7    8 am
  15    7   32 1
  16    8    9 1
  17    8   16 2
  18    9   10 1
  19    9   33 1
  20    9   34 1
  21   10   11 1
  22   10   35 1
  23   10   36 1
  24   11   12 1
  25   11   37 1
  26   11   38 1
  27   12   13 1
  28   12   39 1
  29   12   40 1
  30   13   14 1
  31   13   41 1
  32   13   42 1
  33   14   15 1
  34   14   43 1
  35   14   44 1
  36   15   17 1
  37   15   45 1
  38   15   46 1
  39   17   18 ar
  40   17   22 ar
  41   18   19 ar
  42   18   47 1
  43   19   20 ar
  44   19   48 1
  45   20   21 ar
  46   20   49 1
  47   21   22 ar
  48   21   50 1
  49   22   51 1
  50   23   24 1
  51   23   25 1
  52   24   52 1
  53   24   53 1
  54   24   54 1
  55   25   55 1
  56   25   56 1
  57   25   57 1

#	End of record

