#	Name: ASD00844270
#	Creating user name:	WinNT
#	Creation time:	15. 06. 2019 18:49

#	Modifying user name:	WinNT
#	Modification time:	15. 06. 2019 18:49

#	Program:	/corina/corina34_cracker 3.40 0067  02.08.2006

@<TRIPOS>MOLECULE
ASD00844270
  93   98    0    0    0
SMALL
NO_CHARGES


@<TRIPOS>ATOM
   1 C1            -0.0050     1.3863     0.0370 C.ar    
   2 C2             0.0094    -0.0006     0.0190 C.ar    
   3 C3             1.2194    -0.6793    -0.0011 C.ar    
   4 C4             2.4062     0.0272    -0.0031 C.ar    
   5 C5             2.3892     1.4099     0.0153 C.ar    
   6 C6             1.1849     2.0884     0.0349 C.ar    
   7 C7             1.2387    -2.1861    -0.0202 C.3     
   8 C8             0.4942    -2.7111    -1.2292 C.2     
   9 N9             2.6176    -2.6808    -0.0115 N.am    
  10 C10            3.4640    -2.3347    -1.0016 C.2     
  11 N11            4.7595    -2.7012    -0.9396 N.am    
  12 O12            3.0588    -1.6918    -1.9507 O.2     
  13 C13            5.2900    -3.3772     0.2522 C.3     
  14 C14            6.5163    -2.6065     0.7513 C.3     
  15 C15            7.5242    -2.4641    -0.3915 C.3     
  16 C16            6.8900    -1.6727    -1.5377 C.3     
  17 C17            5.6666    -2.4379    -2.0650 C.3     
  18 C18            8.7653    -1.7249     0.1126 C.3     
  19 C19            9.4020    -2.5163     1.2584 C.3     
  20 C20           10.6762    -1.8038     1.7177 C.3     
  21 N21           11.6129    -1.6990     0.5916 N.3     
  22 C22           11.0414    -0.9030    -0.5021 C.3     
  23 C23            9.7781    -1.5885    -1.0276 C.3     
  24 C24           12.9014    -1.1449     1.0284 C.3     
  25 O25            0.7743    -2.5076    -2.3916 O.2     
  26 N26           -0.5344    -3.4451    -0.7734 N.am    
  27 C27            0.4661    -2.7409     1.1550 C.ar    
  28 C28           -0.5817    -3.4845     0.6173 C.ar    
  29 C29            0.6301    -2.6293     2.5124 C.ar    
  30 C30           -0.2651    -3.2697     3.3767 C.ar    
  31 C31           -1.3208    -4.0189     2.8433 C.ar    
  32 C32           -1.4741    -4.1245     1.4775 C.ar    
  33 F33           -2.1905    -4.6409     3.6692 F       
  34 C34           -0.9907    -5.8296    -2.0697 C.ar    
  35 C35            0.1888    -5.9848    -2.7838 C.ar    
  36 C36           -1.6667    -6.9398    -1.6001 C.ar    
  37 C37           -1.1700    -8.2064    -1.8400 C.ar    
  38 C38            0.0094    -8.3670    -2.5539 C.ar    
  39 C39            0.6890    -7.2551    -3.0263 C.ar    
  40 O40            0.4972    -9.6132    -2.7900 O.3     
  41 O41            0.8528    -4.8928    -3.2457 O.3     
  42 C42            2.0603    -5.1274    -3.9730 C.3     
  43 C43           -0.2554   -10.7129    -2.2740 C.3     
  44 O44           -1.1597    -0.6935     0.0216 O.3     
  45 C45           -2.3669     0.0709     0.0432 C.3     
  46 C46           -3.5695    -0.8749     0.0428 C.3     
  47 F47           -3.5396    -1.6668    -1.1101 F       
  48 F48           -3.5173    -1.6962     1.1742 F       
  49 C49           -0.1025    -3.1598     4.7952 C.1     
  50 N50            0.0265    -3.0727     5.9204 N.1     
  51 S51           -1.6232    -4.2155    -1.7549 S.o2    
  52 O52           -2.8042    -4.3906    -0.9843 O.2     
  53 O53           -1.6010    -3.5265    -2.9974 O.2     
  54 H54           -0.9456     1.9169     0.0482 H       
  55 H55            3.3484    -0.5006    -0.0188 H       
  56 H56            3.3183     1.9605     0.0143 H       
  57 H57            1.1742     3.1683     0.0492 H       
  58 H58            2.9215    -3.2575     0.7069 H       
  59 H59            4.5280    -3.3957     1.0314 H       
  60 H60            5.5785    -4.3966    -0.0040 H       
  61 H61            6.2104    -1.6173     1.0920 H       
  62 H62            6.9764    -3.1499     1.5766 H       
  63 H63            7.8109    -3.4533    -0.7483 H       
  64 H64            6.5806    -0.6924    -1.1754 H       
  65 H65            7.6161    -1.5516    -2.3416 H       
  66 H66            5.9884    -3.3794    -2.5099 H       
  67 H67            5.1529    -1.8344    -2.8133 H       
  68 H68            8.4802    -0.7347     0.4682 H       
  69 H69            8.7007    -2.5801     2.0904 H       
  70 H70            9.6505    -3.5199     0.9134 H       
  71 H71           10.4251    -0.8053     2.0754 H       
  72 H72           11.1397    -2.3724     2.5239 H       
  73 H73           10.7886     0.0913    -0.1340 H       
  74 H74           11.7701    -0.8172    -1.3081 H       
  75 H75           10.0325    -2.5776    -1.4086 H       
  76 H76            9.3455    -0.9895    -1.8289 H       
  77 H77           13.3379    -1.7947     1.7868 H       
  78 H78           13.5762    -1.0780     0.1750 H       
  79 H79           12.7460    -0.1507     1.4475 H       
  80 H80            1.4482    -2.0491     2.9130 H       
  81 H81           -2.2901    -4.7038     1.0714 H       
  82 H82           -2.5845    -6.8169    -1.0444 H       
  83 H83           -1.6997    -9.0724    -1.4714 H       
  84 H84            1.6067    -7.3779    -3.5823 H       
  85 H85            2.4885    -4.1743    -4.2834 H       
  86 H86            2.7710    -5.6550    -3.3369 H       
  87 H87            1.8425    -5.7318    -4.8536 H       
  88 H88           -0.3274   -10.6271    -1.1898 H       
  89 H89           -1.2559   -10.7033    -2.7065 H       
  90 H90            0.2430   -11.6473    -2.5322 H       
  91 H91           -2.3902     0.6879     0.9415 H       
  92 H92           -2.4076     0.7108    -0.8382 H       
  93 H93           -4.4903    -0.2919     0.0593 H       
@<TRIPOS>BOND
   1    1    2 ar
   2    1    6 ar
   3    1   54 1
   4    2    3 ar
   5    2   44 1
   6    3    4 ar
   7    3    7 1
   8    4    5 ar
   9    4   55 1
  10    5    6 ar
  11    5   56 1
  12    6   57 1
  13    7    8 1
  14    7    9 1
  15    7   27 1
  16    8   25 2
  17    8   26 am
  18    9   10 am
  19    9   58 1
  20   10   11 am
  21   10   12 2
  22   11   13 1
  23   11   17 1
  24   13   14 1
  25   13   59 1
  26   13   60 1
  27   14   15 1
  28   14   61 1
  29   14   62 1
  30   15   16 1
  31   15   18 1
  32   15   63 1
  33   16   17 1
  34   16   64 1
  35   16   65 1
  36   17   66 1
  37   17   67 1
  38   18   19 1
  39   18   23 1
  40   18   68 1
  41   19   20 1
  42   19   69 1
  43   19   70 1
  44   20   21 1
  45   20   71 1
  46   20   72 1
  47   21   22 1
  48   21   24 1
  49   22   23 1
  50   22   73 1
  51   22   74 1
  52   23   75 1
  53   23   76 1
  54   24   77 1
  55   24   78 1
  56   24   79 1
  57   26   51 am
  58   26   28 1
  59   27   28 ar
  60   27   29 ar
  61   28   32 ar
  62   29   30 ar
  63   29   80 1
  64   30   31 ar
  65   30   49 1
  66   31   32 ar
  67   31   33 1
  68   32   81 1
  69   34   35 ar
  70   34   36 ar
  71   34   51 1
  72   35   41 1
  73   35   39 ar
  74   36   37 ar
  75   36   82 1
  76   37   38 ar
  77   37   83 1
  78   38   39 ar
  79   38   40 1
  80   39   84 1
  81   40   43 1
  82   41   42 1
  83   42   85 1
  84   42   86 1
  85   42   87 1
  86   43   88 1
  87   43   89 1
  88   43   90 1
  89   44   45 1
  90   45   46 1
  91   45   91 1
  92   45   92 1
  93   46   47 1
  94   46   48 1
  95   46   93 1
  96   49   50 3
  97   51   52 2
  98   51   53 2

#	End of record

