#	Name: ASD01230389
#	Creating user name:	WinNT
#	Creation time:	15. 06. 2019 19:14

#	Modifying user name:	WinNT
#	Modification time:	15. 06. 2019 19:14

#	Program:	/corina/corina34_cracker 3.40 0067  02.08.2006

@<TRIPOS>MOLECULE
ASD01230389
  17   17    0    0    0
SMALL
NO_CHARGES


@<TRIPOS>ATOM
   1 N1            -0.0165     1.3646     0.0095 N.pl3   
   2 N2            -2.7052    -2.2121    -1.4221 N.3     
   3 N3             2.0475     0.7351    -0.0135 N.2     
   4 C4            -1.1956    -0.9188     0.0081 C.3     
   5 C5             0.0021    -0.0041     0.0020 C.2     
   6 C6            -1.5378    -1.3205    -1.4280 C.3     
   7 C7             1.2963    -0.3761    -0.0123 C.2     
   8 C8             1.2679     1.7816    -0.0005 C.2     
   9 H9            -0.9680    -1.8115     0.5907 H       
  10 H10           -2.0456    -0.4015     0.4530 H       
  11 H11           -0.6877    -1.8378    -1.8729 H       
  12 H12           -1.7653    -0.4278    -2.0106 H       
  13 H13           -0.8050     1.9295     0.0165 H       
  14 H14            1.6647    -1.3913    -0.0213 H       
  15 H15            1.5957     2.8106     0.0022 H       
  16 H16           -3.4886    -1.7790    -0.9565 H       
  17 H17           -2.9514    -2.4918    -2.3598 H       
@<TRIPOS>BOND
   1    1    5 1
   2    1    8 1
   3    1   13 1
   4    2    6 1
   5    2   16 1
   6    2   17 1
   7    3    7 1
   8    3    8 2
   9    4    5 1
  10    4    6 1
  11    4    9 1
  12    4   10 1
  13    5    7 2
  14    6   11 1
  15    6   12 1
  16    7   14 1
  17    8   15 1

#	End of record

