#	Name: ASD04590481
#	Creating user name:	WinNT
#	Creation time:	15. 06. 2019 20:50

#	Modifying user name:	WinNT
#	Modification time:	15. 06. 2019 20:50

#	Program:	/corina/corina34_cracker 3.40 0067  02.08.2006

@<TRIPOS>MOLECULE
ASD04590481
  54   58    0    0    0
SMALL
NO_CHARGES


@<TRIPOS>ATOM
   1 C1             0.5834     1.6771     2.0371 C.ar    
   2 C2             1.2889     0.7989     2.8470 C.ar    
   3 C3             2.4958    -0.0051     0.9344 C.ar    
   4 C4             1.7777     0.8871     0.1185 C.ar    
   5 C5             0.8240     1.7236     0.6798 C.ar    
   6 N6             3.3471    -0.6875     0.1298 N.2     
   7 C7             3.2035    -0.2814    -1.1086 C.2     
   8 N8             2.2436     0.6929    -1.1682 N.pl3   
   9 C9             3.9632    -0.7979    -2.2658 C.2     
  10 C10            4.9567    -1.8030    -2.2262 C.2     
  11 C11            5.4079    -1.9885    -3.4905 C.2     
  12 N12            4.7299    -1.1365    -4.3040 N.pl3   
  13 N13            3.8296    -0.4064    -3.5180 N.2     
  14 N14            5.3981    -2.4868    -1.0804 N.am    
  15 C15            6.3576    -3.4275    -1.1848 C.2     
  16 O16            6.8415    -3.6846    -2.2705 O.2     
  17 C17            2.2389    -0.0388     2.3086 C.ar    
  18 N18            6.7809    -4.0833    -0.0861 N.am    
  19 C19            7.7031    -5.1323    -0.2075 C.ar    
  20 C20            1.0131     0.7622     4.3281 C.3     
  21 N21           -0.0462    -0.2172     4.6048 N.3     
  22 C22            9.0660    -4.8757    -0.1172 C.ar    
  23 C23            9.9729    -5.9134    -0.2376 C.ar    
  24 C24            9.5250    -7.2045    -0.4476 C.ar    
  25 C25            8.1699    -7.4637    -0.5385 C.ar    
  26 C26            7.2566    -6.4322    -0.4129 C.ar    
  27 F27            5.9327    -6.6864    -0.5019 F       
  28 F28            9.5046    -3.6144     0.0876 F       
  29 C29           -0.1793    -0.4552     6.0495 C.3     
  30 C30            0.2019    -1.4777     3.8900 C.3     
  31 C31           -0.9532    -2.4460     4.1582 C.3     
  32 O32           -1.0875    -2.6409     5.5686 O.3     
  33 C33           -1.3306    -1.4338     6.2960 C.3     
  34 H34           -0.1626     2.3258     2.4720 H       
  35 H35            0.2708     2.4095     0.0553 H       
  36 H36            1.9462     1.1600    -1.9646 H       
  37 H37            6.1709    -2.6887    -3.7971 H       
  38 H38            4.8470    -1.0513    -5.2631 H       
  39 H39            5.0121    -2.2818    -0.2144 H       
  40 H40            2.7845    -0.7196     2.9453 H       
  41 H41            6.4475    -3.8295     0.7887 H       
  42 H42            1.9206     0.4759     4.8597 H       
  43 H43            0.6921     1.7488     4.6624 H       
  44 H44           11.0322    -5.7147    -0.1678 H       
  45 H45           10.2354    -8.0126    -0.5411 H       
  46 H46            7.8237    -8.4734    -0.7029 H       
  47 H47            0.7477    -0.8791     6.4355 H       
  48 H48           -0.3880     0.4873     6.5558 H       
  49 H49            0.2716    -1.2816     2.8200 H       
  50 H50            1.1350    -1.9179     4.2415 H       
  51 H51           -1.8777    -2.0293     3.7586 H       
  52 H52           -0.7461    -3.4018     3.6768 H       
  53 H53           -1.3965    -1.6575     7.3608 H       
  54 H54           -2.2661    -0.9876     5.9586 H       
@<TRIPOS>BOND
   1    1    2 ar
   2    1    5 ar
   3    1   34 1
   4    2   17 ar
   5    2   20 1
   6    3    4 ar
   7    3    6 1
   8    3   17 ar
   9    4    5 ar
  10    4    8 1
  11    5   35 1
  12    6    7 2
  13    7    8 1
  14    7    9 1
  15    8   36 1
  16    9   10 1
  17    9   13 2
  18   10   11 2
  19   10   14 1
  20   11   12 1
  21   11   37 1
  22   12   13 1
  23   12   38 1
  24   14   15 am
  25   14   39 1
  26   15   16 2
  27   15   18 am
  28   17   40 1
  29   18   19 1
  30   18   41 1
  31   19   22 ar
  32   19   26 ar
  33   20   21 1
  34   20   42 1
  35   20   43 1
  36   21   29 1
  37   21   30 1
  38   22   23 ar
  39   22   28 1
  40   23   24 ar
  41   23   44 1
  42   24   25 ar
  43   24   45 1
  44   25   26 ar
  45   25   46 1
  46   26   27 1
  47   29   33 1
  48   29   47 1
  49   29   48 1
  50   30   31 1
  51   30   49 1
  52   30   50 1
  53   31   32 1
  54   31   51 1
  55   31   52 1
  56   32   33 1
  57   33   53 1
  58   33   54 1

#	End of record

