#	Name: ASD01150251
#	Creating user name:	WinNT
#	Creation time:	15. 06. 2019 19:03

#	Modifying user name:	WinNT
#	Modification time:	15. 06. 2019 19:03

#	Program:	/corina/corina34_cracker 3.40 0067  02.08.2006

@<TRIPOS>MOLECULE
ASD01150251
  45   47    0    0    0
SMALL
NO_CHARGES


@<TRIPOS>ATOM
   1 C1            -0.0168     1.3887     0.0097 C.ar    
   2 C2             0.0021    -0.0041     0.0020 C.ar    
   3 C3            -1.1555    -0.7221     0.0092 C.ar    
   4 C4            -2.3913    -0.0548     0.0245 C.ar    
   5 C5            -2.4070     1.3613     0.0323 C.ar    
   6 C6            -1.1984     2.0701     0.0303 C.ar    
   7 N7            -3.5410    -0.7424     0.0313 N.ar    
   8 C8            -4.7058    -0.1476     0.0452 C.ar    
   9 C9            -4.8193     1.2523     0.0534 C.ar    
  10 C10           -3.6534     2.0355     0.0479 C.ar    
  11 C11           -3.7240     3.5112     0.0560 C.ar    
  12 C12           -6.1460     1.8919     0.0676 C.2     
  13 C13           -5.9582    -0.9859     0.0520 C.3     
  14 C14           -3.2386     4.2302     1.1507 C.ar    
  15 C15           -3.3071     5.6070     1.1529 C.ar    
  16 C16           -3.8570     6.2781     0.0714 C.ar    
  17 C17           -4.3403     5.5695    -1.0179 C.ar    
  18 C18           -4.2713     4.1928    -1.0335 C.ar    
  19 F19           -3.9224     7.6275     0.0793 F       
  20 O20           -6.6847     2.1502     1.1259 O.2     
  21 O21           -6.7626     2.1906    -1.0930 O.3     
  22 C22           -8.0681     2.8198    -1.0030 C.3     
  23 C23           -7.9442     4.1460    -0.2501 C.3     
  24 C24           -8.6065     3.0811    -2.4111 C.3     
  25 C25           -9.0292     1.8954    -0.2529 C.3     
  26 Br26           1.6141     2.3458    -0.0008 Br      
  27 H27            0.9493    -0.5228    -0.0102 H       
  28 H28           -1.1230    -1.8016     0.0027 H       
  29 H29           -1.2022     3.1501     0.0365 H       
  30 H30           -6.2508    -1.1936     1.0813 H       
  31 H31           -6.7598    -0.4455    -0.4516 H       
  32 H32           -5.7699    -1.9247    -0.4687 H       
  33 H33           -2.8108     3.7085     1.9940 H       
  34 H34           -2.9321     6.1640     1.9988 H       
  35 H35           -4.7676     6.0973    -1.8576 H       
  36 H36           -4.6480     3.6418    -1.8825 H       
  37 H37           -7.2595     4.8046    -0.7845 H       
  38 H38           -8.9243     4.6183    -0.1826 H       
  39 H39           -7.5607     3.9598     0.7530 H       
  40 H40           -8.6947     2.1363    -2.9475 H       
  41 H41           -9.5865     3.5535    -2.3435 H       
  42 H42           -7.9218     3.7397    -2.9455 H       
  43 H43           -8.6457     1.7092     0.7502 H       
  44 H44          -10.0092     2.3677    -0.1854 H       
  45 H45           -9.1175     0.9506    -0.7893 H       
@<TRIPOS>BOND
   1    1    2 ar
   2    1   26 1
   3    1    6 ar
   4    2    3 ar
   5    2   27 1
   6    3    4 ar
   7    3   28 1
   8    4    5 ar
   9    4    7 ar
  10    5    6 ar
  11    5   10 ar
  12    6   29 1
  13    7    8 ar
  14    8    9 ar
  15    8   13 1
  16    9   10 ar
  17    9   12 1
  18   10   11 1
  19   11   14 ar
  20   11   18 ar
  21   12   20 2
  22   12   21 1
  23   13   30 1
  24   13   31 1
  25   13   32 1
  26   14   15 ar
  27   14   33 1
  28   15   16 ar
  29   15   34 1
  30   16   17 ar
  31   16   19 1
  32   17   18 ar
  33   17   35 1
  34   18   36 1
  35   21   22 1
  36   22   23 1
  37   22   24 1
  38   22   25 1
  39   23   37 1
  40   23   38 1
  41   23   39 1
  42   24   40 1
  43   24   41 1
  44   24   42 1
  45   25   43 1
  46   25   44 1
  47   25   45 1

#	End of record

