#	Name: ASD03091594
#	Creating user name:	WinNT
#	Creation time:	15. 06. 2019 20:31

#	Modifying user name:	WinNT
#	Modification time:	15. 06. 2019 20:31

#	Program:	/corina/corina34_cracker 3.40 0067  02.08.2006

@<TRIPOS>MOLECULE
ASD03091594
  38   41    0    0    0
SMALL
NO_CHARGES


@<TRIPOS>ATOM
   1 C1            -0.0170     1.4020     0.0098 C.ar    
   2 C2             0.0021    -0.0041     0.0020 C.ar    
   3 C3             1.2254    -0.6684    -0.0132 C.ar    
   4 C4             2.4013     0.0525    -0.0205 C.ar    
   5 C5             2.3817     1.4428    -0.0124 C.ar    
   6 C6             1.1822     2.1203     0.0022 C.ar    
   7 O7            -1.2774    -0.4289     0.0119 O.3     
   8 C8            -2.1304     0.6164     0.0257 C.2     
   9 C9            -1.4297     1.7798     0.0311 C.2     
  10 C10           -3.5965     0.5118     0.0387 C.2     
  11 O11           -4.2781     1.5194     0.0502 O.2     
  12 N12           -4.1856    -0.7004     0.0379 N.am    
  13 N13           -6.8777    -1.9578     1.8259 N.3     
  14 C14           -6.1544    -0.7232     1.4934 C.3     
  15 C15           -5.6469    -0.8046     0.0508 C.3     
  16 C16           -6.0714    -2.1515    -0.5479 C.3     
  17 C17           -7.6012    -2.2499    -0.4950 C.3     
  18 C18           -8.0545    -2.1290     0.9627 C.3     
  19 C19           -5.9915    -3.1271     1.7449 C.3     
  20 C20           -5.4788    -3.2767     0.3098 C.3     
  21 F21            1.2608    -2.0189    -0.0203 F       
  22 F22            3.5437     2.1320    -0.0189 F       
  23 H23            3.3473    -0.4685    -0.0323 H       
  24 H24            1.1685     3.2002     0.0081 H       
  25 H25           -1.8339     2.7812     0.0420 H       
  26 H26           -3.6421    -1.5038     0.0287 H       
  27 H27           -6.8251     0.1300     1.5953 H       
  28 H28           -5.3084    -0.6038     2.1703 H       
  29 H29           -6.0781     0.0075    -0.5345 H       
  30 H30           -5.7263    -2.2288    -1.5789 H       
  31 H31           -8.0397    -1.4428    -1.0819 H       
  32 H32           -7.9195    -3.2114    -0.8978 H       
  33 H33           -8.5902    -3.0328     1.2531 H       
  34 H34           -8.7120    -1.2662     1.0687 H       
  35 H35           -5.1470    -2.9909     2.4204 H       
  36 H36           -6.5441    -4.0227     2.0289 H       
  37 H37           -5.7885    -4.2423    -0.0899 H       
  38 H38           -4.3910    -3.2079     0.3016 H       
@<TRIPOS>BOND
   1    1    2 ar
   2    1    6 ar
   3    1    9 1
   4    2    3 ar
   5    2    7 1
   6    3    4 ar
   7    3   21 1
   8    4    5 ar
   9    4   23 1
  10    5    6 ar
  11    5   22 1
  12    6   24 1
  13    7    8 1
  14    8    9 2
  15    8   10 1
  16    9   25 1
  17   10   11 2
  18   10   12 am
  19   12   15 1
  20   12   26 1
  21   13   14 1
  22   13   18 1
  23   13   19 1
  24   14   15 1
  25   14   27 1
  26   14   28 1
  27   15   16 1
  28   15   29 1
  29   16   17 1
  30   16   20 1
  31   16   30 1
  32   17   18 1
  33   17   31 1
  34   17   32 1
  35   18   33 1
  36   18   34 1
  37   19   20 1
  38   19   35 1
  39   19   36 1
  40   20   37 1
  41   20   38 1

#	End of record

