#	Name: ASD03320059
#	Creating user name:	WinNT
#	Creation time:	15. 06. 2019 20:36

#	Modifying user name:	WinNT
#	Modification time:	15. 06. 2019 20:36

#	Program:	/corina/corina34_cracker 3.40 0067  02.08.2006

@<TRIPOS>MOLECULE
ASD03320059
  54   57    0    0    0
SMALL
NO_CHARGES


@<TRIPOS>ATOM
   1 N1            -0.1495     1.3696     0.0735 N.3     
   2 C2             0.0853    -0.0770    -0.0884 C.3     
   3 C3             1.6112    -0.3011    -0.0360 C.3     
   4 C4             2.1230     0.9533     0.7197 C.3     
   5 C5             1.1583     2.0477     0.1988 C.3     
   6 O6             1.9224    -1.4912     0.6914 O.3     
   7 P7             2.7143    -2.7337     0.0425 P.3     
   8 C8            -0.8706     1.8769    -0.9915 C.ar    
   9 C9            -1.1971     3.2442    -1.0220 C.ar    
  10 C10           -1.9235     3.7402    -2.1009 C.ar    
  11 C11           -2.2987     2.8479    -3.1141 C.ar    
  12 C12           -1.9341     1.5042    -3.0071 C.ar    
  13 N13           -1.2417     1.0706    -1.9746 N.ar    
  14 N14           -0.7789     3.8468     1.4063 N.pl3   
  15 N15           -0.3054     4.9719     2.0934 N.2     
  16 C16           -0.0277     5.9061     1.2199 C.2     
  17 C17           -0.3106     5.4199    -0.0567 C.2     
  18 C18           -0.7756     4.1416     0.0755 C.2     
  19 C19           -3.0699     3.3221    -4.2792 C.2     
  20 N20           -3.4264     2.4566    -5.2489 N.am    
  21 O21           -3.3838     4.4938    -4.3645 O.2     
  22 C22           -4.2408     2.8846    -6.3047 C.ar    
  23 C23           -4.1052     4.1712    -6.8092 C.ar    
  24 C24           -4.9083     4.5924    -7.8505 C.ar    
  25 C25           -5.8504     3.7305    -8.3927 C.ar    
  26 C26           -5.9868     2.4452    -7.8890 C.ar    
  27 C27           -5.1805     2.0207    -6.8515 C.ar    
  28 O28           -6.6408     4.1459    -9.4182 O.3     
  29 C29           -7.5892     3.2064    -9.9279 C.3     
  30 F30           -6.9161     2.0770   -10.4059 F       
  31 F31           -8.4668     2.8285    -8.9061 F       
  32 Cl32          -8.5223     3.9636   -11.2721 Cl      
  33 O33            2.7730    -3.9448     1.1016 O.3     
  34 O34            2.0120    -3.1817    -1.1808 O.2     
  35 O35            4.2116    -2.2777    -0.3348 O.3     
  36 H36           -0.3979    -0.6240     0.7211 H       
  37 H37           -0.3057    -0.4108    -1.0496 H       
  38 H38            2.0294    -0.3425    -1.0418 H       
  39 H39            2.0244     0.8269     1.7978 H       
  40 H40            3.1539     1.1797     0.4473 H       
  41 H41            1.4899     2.4149    -0.7724 H       
  42 H42            1.0935     2.8680     0.9137 H       
  43 H43           -2.1912     4.7851    -2.1554 H       
  44 H44           -2.2206     0.8115    -3.7846 H       
  45 H45           -1.0555     3.0072     1.8055 H       
  46 H46            0.3558     6.8894     1.4491 H       
  47 H47           -0.1852     5.9583    -0.9846 H       
  48 H48           -3.1189     1.5372    -5.2155 H       
  49 H49           -3.3720     4.8424    -6.3869 H       
  50 H50           -4.8031     5.5931    -8.2427 H       
  51 H51           -6.7207     1.7749    -8.3114 H       
  52 H52           -5.2835     1.0184    -6.4626 H       
  53 H53            3.2368    -4.7289     0.7773 H       
  54 H54            4.7315    -1.9712     0.4207 H       
@<TRIPOS>BOND
   1    1    2 1
   2    1    5 1
   3    1    8 1
   4    2    3 1
   5    2   36 1
   6    2   37 1
   7    3    4 1
   8    3    6 1
   9    3   38 1
  10    4    5 1
  11    4   39 1
  12    4   40 1
  13    5   41 1
  14    5   42 1
  15    6    7 1
  16    7   33 1
  17    7   34 2
  18    7   35 1
  19    8    9 ar
  20    8   13 ar
  21    9   10 ar
  22    9   18 1
  23   10   11 ar
  24   10   43 1
  25   11   12 ar
  26   11   19 1
  27   12   13 ar
  28   12   44 1
  29   14   15 1
  30   14   18 1
  31   14   45 1
  32   15   16 2
  33   16   17 1
  34   16   46 1
  35   17   18 2
  36   17   47 1
  37   19   20 am
  38   19   21 2
  39   20   22 1
  40   20   48 1
  41   22   23 ar
  42   22   27 ar
  43   23   24 ar
  44   23   49 1
  45   24   25 ar
  46   24   50 1
  47   25   26 ar
  48   25   28 1
  49   26   27 ar
  50   26   51 1
  51   27   52 1
  52   28   29 1
  53   29   30 1
  54   29   31 1
  55   29   32 1
  56   33   53 1
  57   35   54 1

#	End of record

