#	Name: ASD01916211
#	Creating user name:	WinNT
#	Creation time:	15. 06. 2019 20:06

#	Modifying user name:	WinNT
#	Modification time:	15. 06. 2019 20:06

#	Program:	/corina/corina34_cracker 3.40 0067  02.08.2006

@<TRIPOS>MOLECULE
ASD01916211
  37   39    0    0    0
SMALL
NO_CHARGES


@<TRIPOS>ATOM
   1 C1            -0.4093     1.7392     0.1051 C.ar    
   2 C2            -0.5416     0.3889     0.3739 C.ar    
   3 N3             0.5017    -0.3407     0.7076 N.ar    
   4 C4             1.7195     0.1812     0.8005 C.ar    
   5 C5             1.9325     1.5320     0.5448 C.ar    
   6 C6             0.8484     2.3306     0.1897 C.ar    
   7 C7            -1.9005    -0.2563     0.2837 C.3     
   8 O8             1.0139     3.6529    -0.0683 O.3     
   9 C9             2.2655     4.1717     0.0367 C.ar    
  10 C10            3.1958     3.9754    -0.9742 C.ar    
  11 N11            4.4109     4.4768    -0.8775 N.ar    
  12 C12            4.7913     5.1788     0.1720 C.ar    
  13 C13            3.9206     5.4167     1.2204 C.ar    
  14 C14            2.6305     4.9119     1.1564 C.ar    
  15 C15            2.8612    -0.6829     1.1803 C.2     
  16 N16            2.6617    -1.9922     1.4299 N.am    
  17 O17            3.9777    -0.2111     1.2670 O.2     
  18 C18            3.7481    -2.8264     1.6838 C.ar    
  19 C19            3.5476    -4.1948     1.8250 C.ar    
  20 C20            4.6357    -5.0121     2.0767 C.ar    
  21 C21            5.8916    -4.4300     2.1787 C.ar    
  22 C22            6.0176    -3.0629     2.0273 C.ar    
  23 N23            4.9629    -2.3094     1.7830 N.ar    
  24 Cl24           4.4346     6.3421     2.5964 Cl      
  25 H25           -1.2716     2.3276    -0.1718 H       
  26 H26            2.9233     1.9549     0.6211 H       
  27 H27           -2.0610    -0.6255    -0.7292 H       
  28 H28           -1.9553    -1.0877     0.9865 H       
  29 H29           -2.6682     0.4777     0.5288 H       
  30 H30            2.9212     3.4053    -1.8495 H       
  31 H31            5.7959     5.5730     0.2137 H       
  32 H32            1.9279     5.0859     1.9578 H       
  33 H33            1.7616    -2.3537     1.4326 H       
  34 H34            2.5561    -4.6143     1.7399 H       
  35 H35            4.5105    -6.0787     2.1914 H       
  36 H36            6.7613    -5.0396     2.3748 H       
  37 H37            6.9928    -2.6055     2.1062 H       
@<TRIPOS>BOND
   1    1    2 ar
   2    1    6 ar
   3    1   25 1
   4    2    3 ar
   5    2    7 1
   6    3    4 ar
   7    4    5 ar
   8    4   15 1
   9    5    6 ar
  10    5   26 1
  11    6    8 1
  12    7   27 1
  13    7   28 1
  14    7   29 1
  15    8    9 1
  16    9   10 ar
  17    9   14 ar
  18   10   11 ar
  19   10   30 1
  20   11   12 ar
  21   12   13 ar
  22   12   31 1
  23   13   24 1
  24   13   14 ar
  25   14   32 1
  26   15   16 am
  27   15   17 2
  28   16   18 1
  29   16   33 1
  30   18   19 ar
  31   18   23 ar
  32   19   20 ar
  33   19   34 1
  34   20   21 ar
  35   20   35 1
  36   21   22 ar
  37   21   36 1
  38   22   23 ar
  39   22   37 1

#	End of record

