#	Name: ASD01209419
#	Creating user name:	WinNT
#	Creation time:	15. 06. 2019 19:11

#	Modifying user name:	WinNT
#	Modification time:	15. 06. 2019 19:11

#	Program:	/corina/corina34_cracker 3.40 0067  02.08.2006

@<TRIPOS>MOLECULE
ASD01209419
  27   27    0    0    0
SMALL
NO_CHARGES


@<TRIPOS>ATOM
   1 C1            -0.0144     1.2088     0.0087 C.2     
   2 O2             0.0021    -0.0041     0.0020 O.2     
   3 Si3            1.5905     2.1648    -0.0015 Si      
   4 C4             3.0227     0.9735    -0.0216 C.3     
   5 C5             1.6601     3.2452    -1.5176 C.3     
   6 C6             1.6891     3.2289     1.5245 C.3     
   7 C7            -1.3267     3.3242     0.0264 C.ar    
   8 C8            -1.2954     1.9254     0.0187 C.ar    
   9 C9            -2.5097     1.2165     0.0201 C.ar    
  10 C10           -3.6790     1.9262     0.0291 C.ar    
  11 C11           -3.6341     3.3199     0.0365 C.ar    
  12 N12           -2.4752     3.9660     0.0349 N.ar    
  13 N13           -4.8154     4.0396     0.0451 N.pl3   
  14 H14            2.9650     0.3509    -0.9144 H       
  15 H15            3.9592     1.5313    -0.0275 H       
  16 H16            2.9820     0.3414     0.8655 H       
  17 H17            0.8221     3.9422    -1.5058 H       
  18 H18            2.5965     3.8030    -1.5235 H       
  19 H19            1.6024     2.6226    -2.4104 H       
  20 H20            1.6484     2.5967     2.4115 H       
  21 H21            2.6256     3.7867     1.5185 H       
  22 H22            0.8512     3.9258     1.5362 H       
  23 H23           -0.4013     3.8812     0.0299 H       
  24 H24           -2.5190     0.1366     0.0139 H       
  25 H25           -4.6286     1.4117     0.0300 H       
  26 H26           -5.6667     3.5746     0.0459 H       
  27 H27           -4.7925     5.0093     0.0502 H       
@<TRIPOS>BOND
   1    1    2 2
   2    1    3 1
   3    1    8 1
   4    3    4 1
   5    3    5 1
   6    3    6 1
   7    4   14 1
   8    4   15 1
   9    4   16 1
  10    5   17 1
  11    5   18 1
  12    5   19 1
  13    6   20 1
  14    6   21 1
  15    6   22 1
  16    7    8 ar
  17    7   12 ar
  18    7   23 1
  19    8    9 ar
  20    9   10 ar
  21    9   24 1
  22   10   11 ar
  23   10   25 1
  24   11   12 ar
  25   11   13 1
  26   13   26 1
  27   13   27 1

#	End of record

