#	Name: ASD01900870
#	Creating user name:	WinNT
#	Creation time:	15. 06. 2019 19:52

#	Modifying user name:	WinNT
#	Modification time:	15. 06. 2019 19:52

#	Program:	/corina/corina34_cracker 3.40 0067  02.08.2006

@<TRIPOS>MOLECULE
ASD01900870
  57   61    0    0    0
SMALL
NO_CHARGES


@<TRIPOS>ATOM
   1 C1             0.1366     1.4483     0.7144 C.ar    
   2 C2             0.1149     0.0698     0.6716 C.ar    
   3 C3             1.2469    -0.6404     0.3035 C.ar    
   4 C4             2.4160     0.0207    -0.0208 C.ar    
   5 C5             2.4555     1.4042     0.0193 C.ar    
   6 C6             1.3062     2.1281     0.3831 C.ar    
   7 N7             3.6129     2.1126    -0.2833 N.pl3   
   8 C8             3.4897     3.4700    -0.8265 C.3     
   9 N9             2.4651     4.2175    -0.0962 N.am    
  10 C10            1.3806     3.5993     0.4125 C.2     
  11 C11            2.6144     5.5990     0.0781 C.ar    
  12 C12            1.8889     6.4812    -0.7116 C.ar    
  13 C13            2.0366     7.8433    -0.5391 C.ar    
  14 C14            2.9096     8.3304     0.4227 C.ar    
  15 C15            3.6347     7.4496     1.2120 C.ar    
  16 C16            3.4838     6.0873     1.0446 C.ar    
  17 O17            3.0549     9.6717     0.5916 O.3     
  18 O18            0.4712     4.2500     0.8906 O.2     
  19 C19            3.8855    10.1034     1.6713 C.3     
  20 C20            4.8346     4.1912    -0.6969 C.3     
  21 C21            3.1048     3.3902    -2.3065 C.3     
  22 C22            3.0420     4.8045    -2.8879 C.3     
  23 N23            4.3496     5.4557    -2.7380 N.3     
  24 C24            4.7217     5.5830    -1.3233 C.3     
  25 N25            4.3648     6.6720    -3.3596 N.pl3   
  26 C26            5.3388     6.9531    -4.3205 C.ar    
  27 C27            5.4217     8.2233    -4.8768 C.ar    
  28 C28            6.3862     8.4979    -5.8262 C.ar    
  29 C29            7.2689     7.5102    -6.2233 C.ar    
  30 C30            7.1891     6.2447    -5.6715 C.ar    
  31 C31            6.2304     5.9648    -4.7177 C.ar    
  32 H32           -0.7490     1.9972     0.9987 H       
  33 H33           -0.7908    -0.4602     0.9272 H       
  34 H34            1.2149    -1.7194     0.2703 H       
  35 H35            3.2951    -0.5391    -0.3039 H       
  36 H36            4.4863     1.7167    -0.1376 H       
  37 H37            1.2095     6.1021    -1.4606 H       
  38 H38            1.4727     8.5295    -1.1535 H       
  39 H39            4.3142     7.8296     1.9606 H       
  40 H40            4.0448     5.4017     1.6624 H       
  41 H41            4.8720     9.6500     1.5745 H       
  42 H42            3.9804    11.1890     1.6451 H       
  43 H43            3.4377     9.8005     2.6178 H       
  44 H44            5.0967     4.2862     0.3568 H       
  45 H45            5.6053     3.6202    -1.2147 H       
  46 H46            3.8516     2.8076    -2.8460 H       
  47 H47            2.1297     2.9129    -2.4039 H       
  48 H48            2.7819     4.7513    -3.9451 H       
  49 H49            2.2856     5.3823    -2.3567 H       
  50 H50            3.9590     6.1572    -0.7974 H       
  51 H51            5.6805     6.0955    -1.2447 H       
  52 H52            3.6993     7.3405    -3.1337 H       
  53 H53            4.7324     8.9950    -4.5674 H       
  54 H54            6.4510     9.4851    -6.2594 H       
  55 H55            8.0220     7.7276    -6.9662 H       
  56 H56            7.8800     5.4756    -5.9838 H       
  57 H57            6.1715     4.9775    -4.2839 H       
@<TRIPOS>BOND
   1    1    2 ar
   2    1    6 ar
   3    1   32 1
   4    2    3 ar
   5    2   33 1
   6    3    4 ar
   7    3   34 1
   8    4    5 ar
   9    4   35 1
  10    5    7 1
  11    5    6 ar
  12    6   10 1
  13    7    8 1
  14    7   36 1
  15    8    9 1
  16    8   21 1
  17    8   20 1
  18    9   10 am
  19    9   11 1
  20   10   18 2
  21   11   12 ar
  22   11   16 ar
  23   12   13 ar
  24   12   37 1
  25   13   14 ar
  26   13   38 1
  27   14   15 ar
  28   14   17 1
  29   15   16 ar
  30   15   39 1
  31   16   40 1
  32   17   19 1
  33   19   41 1
  34   19   42 1
  35   19   43 1
  36   20   24 1
  37   20   44 1
  38   20   45 1
  39   21   22 1
  40   21   46 1
  41   21   47 1
  42   22   23 1
  43   22   48 1
  44   22   49 1
  45   23   24 1
  46   23   25 1
  47   24   50 1
  48   24   51 1
  49   25   26 1
  50   25   52 1
  51   26   27 ar
  52   26   31 ar
  53   27   28 ar
  54   27   53 1
  55   28   29 ar
  56   28   54 1
  57   29   30 ar
  58   29   55 1
  59   30   31 ar
  60   30   56 1
  61   31   57 1

#	End of record

