#	Name: ASD01918070
#	Creating user name:	WinNT
#	Creation time:	15. 06. 2019 20:10

#	Modifying user name:	WinNT
#	Modification time:	15. 06. 2019 20:10

#	Program:	/corina/corina34_cracker 3.40 0067  02.08.2006

@<TRIPOS>MOLECULE
ASD01918070
  47   49    0    0    0
SMALL
NO_CHARGES


@<TRIPOS>ATOM
   1 C1            -0.0229     1.4979     0.0323 C.3     
   2 C2            -0.0030    -0.0078     0.0104 C.2     
   3 C3             1.0839    -0.7502    -0.3152 C.2     
   4 C4             2.4195    -0.1741    -0.7032 C.3     
   5 C5             2.2210     1.3042    -1.0630 C.3     
   6 C6             1.4269     1.9996     0.0455 C.3     
   7 N7             0.7092    -2.0370    -0.2161 N.pl3   
   8 N8            -0.5299    -2.0648     0.1452 N.2     
   9 N9            -0.9807    -0.8643     0.2876 N.2     
  10 C10            1.5578    -3.2033    -0.4730 C.3     
  11 C11            1.4446     3.4891    -0.1831 C.2     
  12 N12            1.9232     4.3985     0.6314 N.2     
  13 C13            1.7238     5.5773     0.0153 C.2     
  14 N14            1.1447     5.3292    -1.1213 N.2     
  15 O15            0.9806     4.1351    -1.2571 O.3     
  16 C16            2.1018     6.9362     0.5458 C.3     
  17 C17            2.8289    -3.1055     0.3729 C.3     
  18 C18            0.7970    -4.4786    -0.1046 C.3     
  19 C19            1.9336    -3.2440    -1.9556 C.3     
  20 C20            3.5212     7.2838     0.0925 C.3     
  21 C21            3.8591     8.7121     0.5246 C.3     
  22 C22            4.5134     6.3097     0.7309 C.3     
  23 H23           -0.5328     1.8714    -0.8557 H       
  24 H24           -0.5399     1.8454     0.9268 H       
  25 H25            3.1129    -0.2586     0.1335 H       
  26 H26            2.8152    -0.7119    -1.5647 H       
  27 H27            3.1931     1.7855    -1.1700 H       
  28 H28            1.6737     1.3789    -2.0027 H       
  29 H29            1.8798     1.7755     1.0112 H       
  30 H30            1.4053     7.6823     0.1633 H       
  31 H31            2.0607     6.9254     1.6350 H       
  32 H32            2.5611    -3.0765     1.4291 H       
  33 H33            3.4602    -3.9732     0.1818 H       
  34 H34            3.3709    -2.1969     0.1105 H       
  35 H35           -0.1086    -4.5483    -0.7073 H       
  36 H36            1.4283    -5.3464    -0.2958 H       
  37 H37            0.5292    -4.4497     0.9516 H       
  38 H38            2.3990    -2.2998    -2.2384 H       
  39 H39            2.6337    -4.0609    -2.1307 H       
  40 H40            1.0360    -3.4002    -2.5538 H       
  41 H41            3.5848     7.2079    -0.9930 H       
  42 H42            3.7955     8.7880     1.6101 H       
  43 H43            4.8703     8.9598     0.2016 H       
  44 H44            3.1522     9.4061     0.0698 H       
  45 H45            4.4498     6.3856     1.8163 H       
  46 H46            4.2727     5.2921     0.4230 H       
  47 H47            5.5246     6.5574     0.4079 H       
@<TRIPOS>BOND
   1    1    2 1
   2    1    6 1
   3    1   23 1
   4    1   24 1
   5    2    9 1
   6    2    3 2
   7    3    4 1
   8    3    7 1
   9    4    5 1
  10    4   25 1
  11    4   26 1
  12    5    6 1
  13    5   27 1
  14    5   28 1
  15    6   11 1
  16    6   29 1
  17    7    8 1
  18    7   10 1
  19    8    9 2
  20   10   17 1
  21   10   18 1
  22   10   19 1
  23   11   12 2
  24   11   15 1
  25   12   13 1
  26   13   14 2
  27   13   16 1
  28   14   15 1
  29   16   20 1
  30   16   30 1
  31   16   31 1
  32   17   32 1
  33   17   33 1
  34   17   34 1
  35   18   35 1
  36   18   36 1
  37   18   37 1
  38   19   38 1
  39   19   39 1
  40   19   40 1
  41   20   21 1
  42   20   22 1
  43   20   41 1
  44   21   42 1
  45   21   43 1
  46   21   44 1
  47   22   45 1
  48   22   46 1
  49   22   47 1

#	End of record

