#	Name: ASD01812597
#	Creating user name:	WinNT
#	Creation time:	15. 06. 2019 19:28

#	Modifying user name:	WinNT
#	Modification time:	15. 06. 2019 19:28

#	Program:	/corina/corina34_cracker 3.40 0067  02.08.2006

@<TRIPOS>MOLECULE
ASD01812597
  45   49    0    0    0
SMALL
NO_CHARGES


@<TRIPOS>ATOM
   1 C1            -0.0178     1.4608     0.0101 C.3     
   2 N2             0.0021    -0.0041     0.0020 N.pl3   
   3 C3             0.0073    -0.7668    -1.0996 C.2     
   4 C4             0.0272    -2.0911    -0.6990 C.ar    
   5 C5             0.0409    -3.3295    -1.3713 C.ar    
   6 C6             0.0601    -4.4956    -0.6383 C.ar    
   7 C7             0.0658    -4.4746     0.7688 C.ar    
   8 C8             0.0533    -3.3127     1.4628 C.ar    
   9 C9             0.0338    -2.0804     0.7725 C.ar    
  10 N10            0.0244    -0.8130     1.1436 N.2     
  11 C11            0.0745    -5.7991    -1.3460 C.ar    
  12 C12            0.0744    -5.8381    -2.7390 C.ar    
  13 C13            0.0878    -7.0553    -3.3943 C.ar    
  14 F14            0.0881    -7.0942    -4.7448 F       
  15 C15            0.1014    -8.2349    -2.6685 C.ar    
  16 C16            0.1165    -9.5592    -3.3876 C.3     
  17 N17            1.5025    -9.9725    -3.6207 N.am    
  18 C18            2.3063    -9.6398    -4.8020 C.3     
  19 C19            3.6561   -10.2820    -4.5910 C.ar    
  20 N20            4.7549   -10.3168    -5.3111 N.ar    
  21 C21            5.8328   -10.9610    -4.9026 C.ar    
  22 C22            5.8492   -11.6302    -3.6922 C.ar    
  23 C23            4.7159   -11.6231    -2.8969 C.ar    
  24 C24            3.5906   -10.9319    -3.3565 C.ar    
  25 C25            2.2496   -10.7144    -2.7847 C.2     
  26 O26            1.8727   -11.1458    -1.7126 O.2     
  27 C27            0.1016    -8.2010    -1.2838 C.ar    
  28 F28            0.1149    -9.3547    -0.5809 F       
  29 C29            0.0940    -6.9884    -0.6199 C.ar    
  30 H30            1.0048     1.8381     0.0023 H       
  31 H31           -0.5450     1.8219    -0.8730 H       
  32 H32           -0.5280     1.8123     0.9069 H       
  33 H33           -0.0027    -0.4111    -2.1193 H       
  34 H34            0.0360    -3.3640    -2.4507 H       
  35 H35            0.0803    -5.4098     1.3089 H       
  36 H36            0.0584    -3.3277     2.5427 H       
  37 H37            0.0635    -4.9188    -3.3057 H       
  38 H38           -0.3887   -10.3090    -2.7787 H       
  39 H39           -0.3986    -9.4598    -4.3430 H       
  40 H40            1.8367   -10.0419    -5.6998 H       
  41 H41            2.4155    -8.5587    -4.8882 H       
  42 H42            6.7161   -10.9656    -5.5240 H       
  43 H43            6.7376   -12.1536    -3.3707 H       
  44 H44            4.7014   -12.1377    -1.9475 H       
  45 H45            0.0987    -6.9628     0.4598 H       
@<TRIPOS>BOND
   1    1    2 1
   2    1   30 1
   3    1   31 1
   4    1   32 1
   5    2   10 1
   6    2    3 1
   7    3    4 2
   8    3   33 1
   9    4    9 ar
  10    4    5 ar
  11    5    6 ar
  12    5   34 1
  13    6    7 ar
  14    6   11 1
  15    7    8 ar
  16    7   35 1
  17    8    9 ar
  18    8   36 1
  19    9   10 2
  20   11   29 ar
  21   11   12 ar
  22   12   13 ar
  23   12   37 1
  24   13   14 1
  25   13   15 ar
  26   15   16 1
  27   15   27 ar
  28   16   17 1
  29   16   38 1
  30   16   39 1
  31   17   25 am
  32   17   18 1
  33   18   19 1
  34   18   40 1
  35   18   41 1
  36   19   24 ar
  37   19   20 ar
  38   20   21 ar
  39   21   22 ar
  40   21   42 1
  41   22   23 ar
  42   22   43 1
  43   23   24 ar
  44   23   44 1
  45   24   25 1
  46   25   26 2
  47   27   28 1
  48   27   29 ar
  49   29   45 1

#	End of record

