#	Name: ASD01815796
#	Creating user name:	WinNT
#	Creation time:	15. 06. 2019 19:34

#	Modifying user name:	WinNT
#	Modification time:	15. 06. 2019 19:34

#	Program:	/corina/corina34_cracker 3.40 0067  02.08.2006

@<TRIPOS>MOLECULE
ASD01815796
  50   54    0    0    0
SMALL
NO_CHARGES


@<TRIPOS>ATOM
   1 C1             0.2917     1.6775     0.0545 C.ar    
   2 C2             0.1951     0.2898     0.0396 C.ar    
   3 C3             1.3121    -0.4909     0.0126 C.ar    
   4 C4             2.5808     0.1086    -0.0004 C.ar    
   5 C5             2.6752     1.5216     0.0149 C.ar    
   6 C6             1.5091     2.2933     0.0425 C.ar    
   7 C7             3.7544    -0.6735    -0.0287 C.ar    
   8 C8             4.9801    -0.0974    -0.0418 C.ar    
   9 C9             5.1291     1.2982    -0.0276 C.ar    
  10 C10            3.9995     2.1362     0.0012 C.ar    
  11 C11            6.4529     1.9338    -0.0426 C.2     
  12 N12            6.4955     3.2863    -0.0281 N.am    
  13 C13            5.3491     4.0109    -0.0003 C.2     
  14 N14            4.1662     3.4693     0.0129 N.2     
  15 C15            7.7895     3.9731    -0.0420 C.3     
  16 C16            7.8829     4.8649    -1.2839 C.3     
  17 C17            7.9201     4.8453     1.2104 C.3     
  18 C18            9.2398     5.6189     1.1486 C.3     
  19 O19            9.2749     6.4038    -0.0451 O.3     
  20 C20            9.2040     5.6377    -1.2494 C.3     
  21 O21            7.9070     4.0156     2.3737 O.3     
  22 O22            7.4732     1.2692    -0.0667 O.2     
  23 C23            3.6424    -2.1763    -0.0442 C.3     
  24 C24            3.5367    -2.6867     1.3698 C.ar    
  25 C25            2.3076    -3.0346     1.9087 C.ar    
  26 C26            2.2484    -3.4995     3.2087 C.ar    
  27 N27            3.3425    -3.6145     3.9360 N.ar    
  28 C28            4.5300    -3.2936     3.4586 C.ar    
  29 C29            4.6682    -2.8253     2.1616 C.ar    
  30 Cl30           5.9349    -3.4663     4.4637 Cl      
  31 F31            5.8866    -2.4987     1.6779 F       
  32 H32           -0.6080     2.2747     0.0714 H       
  33 H33           -0.7793    -0.1758     0.0499 H       
  34 H34            1.2210    -1.5670     0.0017 H       
  35 H35            1.5721     3.3714     0.0540 H       
  36 H36            5.8596    -0.7238    -0.0631 H       
  37 H37            5.4218     5.0884     0.0113 H       
  38 H38            8.5929     3.2367    -0.0605 H       
  39 H39            7.8464     4.2459    -2.1804 H       
  40 H40            7.0499     5.5677    -1.2912 H       
  41 H41            7.0878     5.5478     1.2535 H       
  42 H42            9.3183     6.2736     2.0165 H       
  43 H43           10.0732     4.9164     1.1464 H       
  44 H44           10.0370     4.9354    -1.2830 H       
  45 H45            9.2568     6.3059    -2.1089 H       
  46 H46            7.9862     4.5028     3.2053 H       
  47 H47            2.7537    -2.4687    -0.6034 H       
  48 H48            4.5267    -2.6016    -0.5189 H       
  49 H49            1.4071    -2.9430     1.3197 H       
  50 H50            1.2940    -3.7719     3.6346 H       
@<TRIPOS>BOND
   1    1    2 ar
   2    1    6 ar
   3    1   32 1
   4    2    3 ar
   5    2   33 1
   6    3    4 ar
   7    3   34 1
   8    4    5 ar
   9    4    7 ar
  10    5    6 ar
  11    5   10 ar
  12    6   35 1
  13    7    8 ar
  14    7   23 1
  15    8    9 ar
  16    8   36 1
  17    9   10 ar
  18    9   11 1
  19   10   14 1
  20   11   12 am
  21   11   22 2
  22   12   13 1
  23   12   15 1
  24   13   14 2
  25   13   37 1
  26   15   16 1
  27   15   17 1
  28   15   38 1
  29   16   20 1
  30   16   39 1
  31   16   40 1
  32   17   18 1
  33   17   21 1
  34   17   41 1
  35   18   19 1
  36   18   42 1
  37   18   43 1
  38   19   20 1
  39   20   44 1
  40   20   45 1
  41   21   46 1
  42   23   24 1
  43   23   47 1
  44   23   48 1
  45   24   25 ar
  46   24   29 ar
  47   25   26 ar
  48   25   49 1
  49   26   27 ar
  50   26   50 1
  51   27   28 ar
  52   28   29 ar
  53   28   30 1
  54   29   31 1

#	End of record

