#	Name: ASD03731349
#	Creating user name:	WinNT
#	Creation time:	15. 06. 2019 20:45

#	Modifying user name:	WinNT
#	Modification time:	15. 06. 2019 20:45

#	Program:	/corina/corina34_cracker 3.40 0067  02.08.2006

@<TRIPOS>MOLECULE
ASD03731349
  57   63    0    0    0
SMALL
NO_CHARGES


@<TRIPOS>ATOM
   1 C1            -0.0177     1.4744     0.0021 C.2     
   2 C2             0.0031    -0.0034    -0.0052 C.ar    
   3 C3             1.2199    -0.6873    -0.0288 C.ar    
   4 C4             1.2322    -2.0667    -0.0350 C.ar    
   5 C5             0.0422    -2.7724    -0.0183 C.ar    
   6 C6            -1.1673    -2.1007     0.0048 C.ar    
   7 C7            -1.1938    -0.7215     0.0174 C.ar    
   8 O8             1.0261     2.0970    -0.0126 O.2     
   9 N9            -1.1942     2.1317     0.0193 N.am    
  10 C10           -0.1044     5.5078     0.4365 C.ar    
  11 N11           -0.0889     4.1945     0.3298 N.ar    
  12 C12           -1.2148     3.5165     0.1318 C.ar    
  13 C13           -2.4179     4.2174     0.0383 C.ar    
  14 C14           -2.3859     5.5937     0.1562 C.ar    
  15 N15           -1.2233     6.1987     0.3528 N.ar    
  16 C16            0.0634    -4.2792    -0.0256 C.3     
  17 O17           -2.0100    -1.5289     6.2853 O.3     
  18 C18           -2.2272    -1.6131     7.7062 C.3     
  19 O19           -2.7233    -2.9510     7.8980 O.3     
  20 C20           -2.2047    -3.6844     6.8694 C.ar    
  21 C21           -1.7671    -2.8094     5.8776 C.ar    
  22 C22           -2.0673    -5.0500     6.6966 C.ar    
  23 C23           -1.4951    -5.5598     5.5350 C.ar    
  24 C24           -1.0694    -4.6761     4.5479 C.ar    
  25 C25           -1.1993    -3.3138     4.7198 C.ar    
  26 O26           -1.2539    -6.8536     5.1772 O.3     
  27 C27           -0.5310    -5.5178     3.4220 C.3     
  28 C28           -1.0526    -6.9229     3.7524 C.3     
  29 N29            0.0935    -4.7739     1.3530 N.am    
  30 C30           -1.0091    -5.0443     2.0797 C.2     
  31 C31            0.9666    -5.4802     3.3468 C.ar    
  32 C32            1.9719    -5.7903     4.2353 C.ar    
  33 C33            3.2961    -5.6484     3.8605 C.ar    
  34 C34            3.6075    -5.1937     2.5920 C.ar    
  35 C35            2.6041    -4.8808     1.6988 C.ar    
  36 C36            1.2683    -5.0211     2.0673 C.ar    
  37 O37           -2.1615    -4.9283     1.7197 O.2     
  38 H38            2.1495    -0.1377    -0.0426 H       
  39 H39            2.1729    -2.5971    -0.0533 H       
  40 H40           -2.0926    -2.6575     0.0170 H       
  41 H41           -2.1384    -0.1985     0.0403 H       
  42 H42           -2.0266     1.6381    -0.0468 H       
  43 H43            0.8253     6.0320     0.6017 H       
  44 H44           -3.3506     3.6972    -0.1227 H       
  45 H45           -3.2972     6.1694     0.0887 H       
  46 H46           -0.8299    -4.6527    -0.5262 H       
  47 H47            0.9497    -4.6275    -0.5561 H       
  48 H48           -1.2910    -1.4707     8.2458 H       
  49 H49           -2.9689    -0.8804     8.0242 H       
  50 H50           -2.4065    -5.7251     7.4684 H       
  51 H51           -0.8576    -2.6387     3.9491 H       
  52 H52           -0.3095    -7.6803     3.5028 H       
  53 H53           -1.9934    -7.1175     3.2375 H       
  54 H54            1.7265    -6.1450     5.2254 H       
  55 H55            4.0848    -5.8923     4.5568 H       
  56 H56            4.6412    -5.0828     2.2995 H       
  57 H57            2.8551    -4.5259     0.7102 H       
@<TRIPOS>BOND
   1    1    2 1
   2    1    8 2
   3    1    9 am
   4    2    3 ar
   5    2    7 ar
   6    3    4 ar
   7    3   38 1
   8    4    5 ar
   9    4   39 1
  10    5    6 ar
  11    5   16 1
  12    6    7 ar
  13    6   40 1
  14    7   41 1
  15    9   12 1
  16    9   42 1
  17   10   11 ar
  18   10   15 ar
  19   10   43 1
  20   11   12 ar
  21   12   13 ar
  22   13   14 ar
  23   13   44 1
  24   14   15 ar
  25   14   45 1
  26   16   29 1
  27   16   46 1
  28   16   47 1
  29   17   18 1
  30   17   21 1
  31   18   19 1
  32   18   48 1
  33   18   49 1
  34   19   20 1
  35   20   21 ar
  36   20   22 ar
  37   21   25 ar
  38   22   23 ar
  39   22   50 1
  40   23   24 ar
  41   23   26 1
  42   24   25 ar
  43   24   27 1
  44   25   51 1
  45   26   28 1
  46   27   28 1
  47   27   30 1
  48   27   31 1
  49   28   52 1
  50   28   53 1
  51   29   30 am
  52   29   36 1
  53   30   37 2
  54   31   32 ar
  55   31   36 ar
  56   32   33 ar
  57   32   54 1
  58   33   34 ar
  59   33   55 1
  60   34   35 ar
  61   34   56 1
  62   35   36 ar
  63   35   57 1

#	End of record

