#	Name: ASD00071066
#	Creating user name:	WinNT
#	Creation time:	15. 06. 2019 18:30

#	Modifying user name:	WinNT
#	Modification time:	15. 06. 2019 18:30

#	Program:	/corina/corina34_cracker 3.40 0067  02.08.2006

@<TRIPOS>MOLECULE
ASD00071066
  47   49    0    0    0
SMALL
NO_CHARGES


@<TRIPOS>ATOM
   1 N1             1.8356     1.2423    -1.2028 N.ar    
   2 C2             1.6405    -0.0602    -1.1904 C.ar    
   3 C3             1.3735    -0.7510     0.0007 C.ar    
   4 C4             1.3121    -0.0719     1.1798 C.ar    
   5 C5             1.5224     1.3224     1.1598 C.ar    
   6 C6             1.4737     2.0829     2.3378 C.ar    
   7 C7             1.6823     3.4281     2.2805 C.ar    
   8 C8             1.9430     4.0591     1.0669 C.ar    
   9 C9             1.9969     3.3511    -0.0951 C.ar    
  10 C10            1.7874     1.9620    -0.0758 C.ar    
  11 N11            1.6999    -0.7651    -2.3832 N.pl3   
  12 C12            1.1546    -2.2418    -0.0241 C.3     
  13 C13            1.0229    -2.7537     1.3872 C.ar    
  14 C14           -0.2301    -2.8632     1.9720 C.ar    
  15 C15           -0.3483    -3.3347     3.2714 C.ar    
  16 C16            0.7813    -3.6945     3.9811 C.ar    
  17 C17            2.0297    -3.5848     3.3984 C.ar    
  18 C18            2.1511    -3.1202     2.0990 C.ar    
  19 F19            3.3718    -3.0194     1.5290 F       
  20 O20           -1.3404    -2.5087     1.2733 O.3     
  21 C21           -2.5975    -2.6478     1.9385 C.3     
  22 C22           -3.7223    -2.2036     1.0013 C.3     
  23 N23           -3.7889    -3.1140    -0.1497 N.3     
  24 C24           -4.1945    -4.4625     0.2685 C.3     
  25 C25           -4.6909    -2.5899    -1.1840 C.3     
  26 H26            1.1073    -0.5879     2.1062 H       
  27 H27            1.2716     1.6047     3.2848 H       
  28 H28            1.6446     4.0125     3.1879 H       
  29 H29            2.1048     5.1267     1.0469 H       
  30 H30            2.1995     3.8557    -1.0282 H       
  31 H31            1.8012    -0.2901    -3.2228 H       
  32 H32            1.6402    -1.7333    -2.3779 H       
  33 H33            0.2433    -2.4660    -0.5784 H       
  34 H34            2.0028    -2.7256    -0.5084 H       
  35 H35           -1.3232    -3.4203     3.7282 H       
  36 H36            0.6887    -4.0615     4.9926 H       
  37 H37            2.9114    -3.8658     3.9552 H       
  38 H38           -2.7476    -3.6908     2.2174 H       
  39 H39           -2.6049    -2.0273     2.8346 H       
  40 H40           -4.6714    -2.2251     1.5369 H       
  41 H41           -3.5252    -1.1901     0.6519 H       
  42 H42           -5.1782    -4.4175     0.7359 H       
  43 H43           -4.2358    -5.1161    -0.6028 H       
  44 H44           -3.4705    -4.8546     0.9828 H       
  45 H45           -4.3278    -1.6206    -1.5256 H       
  46 H46           -4.7217    -3.2832    -2.0245 H       
  47 H47           -5.6926    -2.4771    -0.7692 H       
@<TRIPOS>BOND
   1    1    2 ar
   2    1   10 ar
   3    2    3 ar
   4    2   11 1
   5    3    4 ar
   6    3   12 1
   7    4    5 ar
   8    4   26 1
   9    5    6 ar
  10    5   10 ar
  11    6    7 ar
  12    6   27 1
  13    7    8 ar
  14    7   28 1
  15    8    9 ar
  16    8   29 1
  17    9   10 ar
  18    9   30 1
  19   11   31 1
  20   11   32 1
  21   12   13 1
  22   12   33 1
  23   12   34 1
  24   13   14 ar
  25   13   18 ar
  26   14   15 ar
  27   14   20 1
  28   15   16 ar
  29   15   35 1
  30   16   17 ar
  31   16   36 1
  32   17   18 ar
  33   17   37 1
  34   18   19 1
  35   20   21 1
  36   21   22 1
  37   21   38 1
  38   21   39 1
  39   22   23 1
  40   22   40 1
  41   22   41 1
  42   23   24 1
  43   23   25 1
  44   24   42 1
  45   24   43 1
  46   24   44 1
  47   25   45 1
  48   25   46 1
  49   25   47 1

#	End of record

