#	Name: ASD01900585
#	Creating user name:	WinNT
#	Creation time:	15. 06. 2019 19:52

#	Modifying user name:	WinNT
#	Modification time:	15. 06. 2019 19:52

#	Program:	/corina/corina34_cracker 3.40 0067  02.08.2006

@<TRIPOS>MOLECULE
ASD01900585
  27   28    0    0    0
SMALL
NO_CHARGES


@<TRIPOS>ATOM
   1 N1             0.2964     1.6016     0.8285 N.am    
   2 C2             0.5037     0.2826     1.2439 C.ar    
   3 C3             1.8360    -1.3487     2.3912 C.ar    
   4 C4             1.6338    -0.0451     1.9816 C.ar    
   5 C5            -0.4232    -0.7013     0.9245 C.ar    
   6 C6            -0.2154    -2.0038     1.3370 C.ar    
   7 C7             0.9147    -2.3275     2.0681 C.ar    
   8 Cl8           -1.3728    -3.2349     0.9387 Cl      
   9 C9             1.3399     2.3528     0.4244 C.2     
  10 C10            1.1141     3.7267    -0.0678 C.ar    
  11 O11            2.4673     1.8992     0.4650 O.2     
  12 C12            2.1824     4.4600    -0.6010 C.ar    
  13 C13            1.9470     5.7567    -1.0605 C.ar    
  14 C14            0.6647     6.2642    -0.9695 C.ar    
  15 C15           -0.3443     5.4786    -0.4291 C.ar    
  16 N16           -0.1024     4.2584    -0.0074 N.ar    
  17 N17            3.4539     3.9061    -0.6707 N.pl3   
  18 H18           -0.5990     1.9748     0.8274 H       
  19 H19            2.7148    -1.6037     2.9648 H       
  20 H20            2.3542     0.7187     2.2346 H       
  21 H21           -1.3052    -0.4488     0.3547 H       
  22 H22            1.0754    -3.3460     2.3892 H       
  23 H23            2.7479     6.3496    -1.4769 H       
  24 H24            0.4493     7.2643    -1.3158 H       
  25 H25           -1.3460     5.8760    -0.3581 H       
  26 H26            3.5644     2.9425    -0.6603 H       
  27 H27            4.2316     4.4828    -0.7297 H       
@<TRIPOS>BOND
   1    1    2 1
   2    1    9 am
   3    1   18 1
   4    2    5 ar
   5    2    4 ar
   6    3    4 ar
   7    3    7 ar
   8    3   19 1
   9    4   20 1
  10    5    6 ar
  11    5   21 1
  12    6    7 ar
  13    6    8 1
  14    7   22 1
  15    9   10 1
  16    9   11 2
  17   10   12 ar
  18   10   16 ar
  19   12   13 ar
  20   12   17 1
  21   13   14 ar
  22   13   23 1
  23   14   15 ar
  24   14   24 1
  25   15   16 ar
  26   15   25 1
  27   17   26 1
  28   17   27 1

#	End of record

