#	Name: ASD05450002
#	Creating user name:	WinNT
#	Creation time:	15. 06. 2019 21:00

#	Modifying user name:	WinNT
#	Modification time:	15. 06. 2019 21:00

#	Program:	/corina/corina34_cracker 3.40 0067  02.08.2006

@<TRIPOS>MOLECULE
ASD05450002
  68   67    0    0    0
SMALL
NO_CHARGES


@<TRIPOS>ATOM
   1 C1             2.0445     2.9641     4.4279 C.2     
   2 C2             1.5550     1.5407     4.3560 C.3     
   3 C3             1.0917     1.0992     5.7203 C.2     
   4 C4            -0.1010     0.5786     5.8703 C.2     
   5 C5             3.3016     3.2378     4.1808 C.2     
   6 C6             4.2996     2.1195     4.0249 C.3     
   7 C7             4.8494     2.1287     2.6218 C.2     
   8 C8            -0.9353     0.2454     4.6603 C.3     
   9 C9            -2.1278     1.1651     4.6037 C.2     
  10 C10            6.1430     2.1942     2.4256 C.2     
  11 C11           -2.3804     1.8437     3.5121 C.2     
  12 C12            7.0895     2.0603     3.5906 C.3     
  13 C13           -1.6049     1.5592     2.2516 C.3     
  14 C14            8.1354     0.9884     3.2773 C.3     
  15 C15            9.0964     0.8524     4.4600 C.3     
  16 C16           10.1266    -0.2033     4.1514 C.2     
  17 C17           -2.5793     1.3169     1.0971 C.3     
  18 C18           -1.7919     1.0281    -0.1826 C.3     
  19 C19           -2.7663     0.7858    -1.3371 C.3     
  20 C20           -1.9789     0.4969    -2.6168 C.3     
  21 C21           -1.4138    -1.2048     4.7543 C.3     
  22 O22           11.0789    -0.4952     5.0513 O.3     
  23 O23           10.0953    -0.7871     3.0940 O.2     
  24 C24           12.0378    -1.5227     4.6865 C.3     
  25 C25           13.2310    -0.8783     3.9781 C.3     
  26 C26           12.5207    -2.2406     5.9484 C.3     
  27 O27           13.2442    -1.3232     6.7710 O.3     
  28 O28           13.9220    -0.0232     4.8911 O.3     
  29 H29            1.3580     3.7592     4.6789 H       
  30 H30            0.7251     1.4770     3.6522 H       
  31 H31            2.3660     0.8940     4.0209 H       
  32 H32            1.7429     1.2121     6.5745 H       
  33 H33           -0.4864     0.3881     6.8610 H       
  34 H34            3.6226     4.2648     4.0887 H       
  35 H35            5.1146     2.2582     4.7354 H       
  36 H36            3.8090     1.1652     4.2166 H       
  37 H37            4.1770     2.0813     1.7781 H       
  38 H38           -0.3355     0.3725     3.7592 H       
  39 H39           -2.7742     1.2647     5.4632 H       
  40 H40            6.5311     2.3442     1.4290 H       
  41 H41           -3.1444     2.6071     3.5153 H       
  42 H42            7.5877     3.0139     3.7655 H       
  43 H43            6.5309     1.7734     4.4815 H       
  44 H44           -0.9680     2.4120     2.0166 H       
  45 H45           -0.9869     0.6733     2.3974 H       
  46 H46            7.6373     0.0348     3.1024 H       
  47 H47            8.6940     1.2753     2.3863 H       
  48 H48            9.5946     1.8060     4.6349 H       
  49 H49            8.5378     0.5655     5.3509 H       
  50 H50           -3.2162     0.4642     1.3321 H       
  51 H51           -3.1973     2.2028     0.9513 H       
  52 H52           -1.1550     1.8808    -0.4176 H       
  53 H53           -1.1739     0.1422    -0.0368 H       
  54 H54           -3.4032    -0.0670    -1.1021 H       
  55 H55           -3.3843     1.6717    -1.4829 H       
  56 H56           -1.3420     1.3497    -2.8518 H       
  57 H57           -1.3609    -0.3890    -2.4710 H       
  58 H58           -2.6731     0.3243    -3.4393 H       
  59 H59           -2.0137    -1.3318     5.6555 H       
  60 H60           -2.0172    -1.4458     3.8792 H       
  61 H61           -0.5512    -1.8700     4.7952 H       
  62 H62           11.5635    -2.2416     4.0184 H       
  63 H63           13.9081    -1.6565     3.6259 H       
  64 H64           12.8770    -0.2932     3.1293 H       
  65 H65           11.6619    -2.6236     6.4996 H       
  66 H66           13.1716    -3.0689     5.6685 H       
  67 H67           13.5810    -1.7108     7.5904 H       
  68 H68           14.6919     0.4199     4.5090 H       
@<TRIPOS>BOND
   1    1    2 1
   2    1    5 2
   3    1   29 1
   4    2    3 1
   5    2   30 1
   6    2   31 1
   7    3    4 2
   8    3   32 1
   9    4    8 1
  10    4   33 1
  11    5    6 1
  12    5   34 1
  13    6    7 1
  14    6   35 1
  15    6   36 1
  16    7   10 2
  17    7   37 1
  18    8    9 1
  19    8   21 1
  20    8   38 1
  21    9   11 2
  22    9   39 1
  23   10   12 1
  24   10   40 1
  25   11   13 1
  26   11   41 1
  27   12   14 1
  28   12   42 1
  29   12   43 1
  30   13   17 1
  31   13   44 1
  32   13   45 1
  33   14   15 1
  34   14   46 1
  35   14   47 1
  36   15   16 1
  37   15   48 1
  38   15   49 1
  39   16   22 1
  40   16   23 2
  41   17   18 1
  42   17   50 1
  43   17   51 1
  44   18   19 1
  45   18   52 1
  46   18   53 1
  47   19   20 1
  48   19   54 1
  49   19   55 1
  50   20   56 1
  51   20   57 1
  52   20   58 1
  53   21   59 1
  54   21   60 1
  55   21   61 1
  56   22   24 1
  57   24   25 1
  58   24   26 1
  59   24   62 1
  60   25   28 1
  61   25   63 1
  62   25   64 1
  63   26   27 1
  64   26   65 1
  65   26   66 1
  66   27   67 1
  67   28   68 1

#	End of record

