#	Name: ASD00131005
#	Creating user name:	WinNT
#	Creation time:	15. 06. 2019 18:31

#	Modifying user name:	WinNT
#	Modification time:	15. 06. 2019 18:31

#	Program:	/corina/corina34_cracker 3.40 0067  02.08.2006

@<TRIPOS>MOLECULE
ASD00131005
  63   66    0    0    0
SMALL
NO_CHARGES


@<TRIPOS>ATOM
   1 N1             1.5197     1.3073    -1.2749 N.am    
   2 C2             1.6107    -0.0322    -1.2177 C.2     
   3 C3             1.3864    -0.7468     0.0382 C.2     
   4 C4             1.0744    -0.0169     1.1876 C.2     
   5 C5             0.9855     1.4431     1.0805 C.ar    
   6 C6             0.6755     2.2219     2.2014 C.ar    
   7 C7             0.5965     3.5803     2.0840 C.ar    
   8 C8             0.8213     4.1957     0.8603 C.ar    
   9 C9             1.1278     3.4486    -0.2561 C.ar    
  10 C10            1.2136     2.0620    -0.1613 C.ar    
  11 C11            1.4873    -2.2106     0.0902 C.2     
  12 O12            2.5799    -2.7459     0.0788 O.2     
  13 N13            0.3696    -2.9613     0.1507 N.am    
  14 O14            1.8834    -0.6596    -2.2256 O.2     
  15 C15            1.7575     1.9844    -2.5521 C.3     
  16 C16            3.1742     1.6725    -3.0386 C.3     
  17 C17            0.7432     1.4928    -3.5867 C.3     
  18 O18            0.8598    -0.6389     2.3656 O.3     
  19 N19           -0.5520    -7.0513    -0.2677 N.3     
  20 C20           -0.7241    -6.4710     1.0702 C.3     
  21 C21           -0.8104    -4.9471     0.9596 C.3     
  22 C22            0.4708    -4.4139     0.3125 C.3     
  23 C23            0.6519    -5.0701    -1.0590 C.3     
  24 C24            0.6958    -6.5905    -0.8898 C.3     
  25 C25           -0.6039    -8.5184    -0.2159 C.3     
  26 C26           -0.6723    -9.0769    -1.6387 C.3     
  27 C27           -0.7255   -10.5820    -1.5856 C.ar    
  28 C28           -1.9456   -11.2286    -1.5210 C.ar    
  29 C29           -1.9944   -12.6092    -1.4722 C.ar    
  30 C30           -0.8232   -13.3433    -1.4885 C.ar    
  31 C31            0.3969   -12.6967    -1.5540 C.ar    
  32 C32            0.4455   -11.3162    -1.6072 C.ar    
  33 H33            0.4990     1.7499     3.1566 H       
  34 H34            0.3568     4.1801     2.9495 H       
  35 H35            0.7550     5.2709     0.7824 H       
  36 H36            1.3005     3.9377    -1.2035 H       
  37 H37           -0.5017    -2.5399     0.0872 H       
  38 H38            1.6479     3.0606    -2.4187 H       
  39 H39            3.2838     0.5963    -3.1720 H       
  40 H40            3.3512     2.1763    -3.9889 H       
  41 H41            3.8968     2.0228    -2.3016 H       
  42 H42           -0.2661     1.7150    -3.2401 H       
  43 H43            0.9202     1.9966    -4.5369 H       
  44 H44            0.8528     0.4166    -3.7201 H       
  45 H45            0.8665    -1.6041     2.3077 H       
  46 H46           -1.6409    -6.8552     1.5175 H       
  47 H47            0.1263    -6.7422     1.6958 H       
  48 H48           -1.6688    -4.6749     0.3454 H       
  49 H49           -0.9225    -4.5158     1.9543 H       
  50 H50            1.3251    -4.6511     0.9466 H       
  51 H51           -0.1835    -4.7998    -1.7049 H       
  52 H52            1.5846    -4.7266    -1.5065 H       
  53 H53            1.5396    -6.8610    -0.2551 H       
  54 H54            0.8103    -7.0614    -1.8662 H       
  55 H55            0.2900    -8.8963     0.2802 H       
  56 H56           -1.4877    -8.8313     0.3400 H       
  57 H57           -1.5662    -8.6990    -2.1348 H       
  58 H58            0.2116    -8.7640    -2.1947 H       
  59 H59           -2.8607   -10.6551    -1.5083 H       
  60 H60           -2.9477   -13.1143    -1.4210 H       
  61 H61           -0.8613   -14.4219    -1.4497 H       
  62 H62            1.3119   -13.2702    -1.5664 H       
  63 H63            1.3986   -10.8112    -1.6621 H       
@<TRIPOS>BOND
   1    1    2 am
   2    1   10 1
   3    1   15 1
   4    2    3 1
   5    2   14 2
   6    3    4 2
   7    3   11 1
   8    4    5 1
   9    4   18 1
  10    5    6 ar
  11    5   10 ar
  12    6    7 ar
  13    6   33 1
  14    7    8 ar
  15    7   34 1
  16    8    9 ar
  17    8   35 1
  18    9   10 ar
  19    9   36 1
  20   11   12 2
  21   11   13 am
  22   13   22 1
  23   13   37 1
  24   15   16 1
  25   15   17 1
  26   15   38 1
  27   16   39 1
  28   16   40 1
  29   16   41 1
  30   17   42 1
  31   17   43 1
  32   17   44 1
  33   18   45 1
  34   19   20 1
  35   19   24 1
  36   19   25 1
  37   20   21 1
  38   20   46 1
  39   20   47 1
  40   21   22 1
  41   21   48 1
  42   21   49 1
  43   22   23 1
  44   22   50 1
  45   23   24 1
  46   23   51 1
  47   23   52 1
  48   24   53 1
  49   24   54 1
  50   25   26 1
  51   25   55 1
  52   25   56 1
  53   26   27 1
  54   26   57 1
  55   26   58 1
  56   27   28 ar
  57   27   32 ar
  58   28   29 ar
  59   28   59 1
  60   29   30 ar
  61   29   60 1
  62   30   31 ar
  63   30   61 1
  64   31   32 ar
  65   31   62 1
  66   32   63 1

#	End of record

