#	Name: ASD01910495
#	Creating user name:	WinNT
#	Creation time:	15. 06. 2019 19:55

#	Modifying user name:	WinNT
#	Modification time:	15. 06. 2019 19:55

#	Program:	/corina/corina34_cracker 3.40 0067  02.08.2006

@<TRIPOS>MOLECULE
ASD01910495
  43   46    0    0    0
SMALL
NO_CHARGES


@<TRIPOS>ATOM
   1 C1            -0.8522     1.9271     1.0557 C.2     
   2 C2            -0.8687     0.4951     0.6907 C.2     
   3 N3            -1.8831    -0.3765     0.9001 N.2     
   4 C4            -1.4661    -1.5224     0.4232 C.2     
   5 O5            -0.2335    -1.3261    -0.0554 O.3     
   6 N6             0.0934    -0.1683     0.0986 N.2     
   7 C7            -2.2323    -2.8201     0.4157 C.3     
   8 C8            -2.4163    -3.2964    -1.0270 C.3     
   9 C9            -3.2226    -4.5971    -1.0377 C.3     
  10 C10           -2.4548    -5.6755    -0.2668 C.3     
  11 N11           -2.1470    -5.1674     1.0771 N.am    
  12 C12           -1.4533    -3.8784     1.2032 C.3     
  13 C13           -2.4944    -5.8704     2.1732 C.2     
  14 C14           -3.2649    -7.1231     2.0338 C.ar    
  15 O15           -2.1736    -5.4737     3.2767 O.2     
  16 C16           -2.8384    -8.1130     1.1459 C.ar    
  17 C17           -3.5608    -9.2801     1.0201 C.ar    
  18 C18           -4.7090    -9.4723     1.7732 C.ar    
  19 C19           -5.1372    -8.4925     2.6560 C.ar    
  20 C20           -4.4191    -7.3240     2.7938 C.ar    
  21 F21           -5.4134   -10.6181     1.6461 F       
  22 C22            0.1644     2.7911     0.8434 C.2     
  23 N23           -0.0705     4.0136     1.2620 N.2     
  24 C24           -1.2165     4.2410     1.8135 C.2     
  25 S25           -2.1579     2.8142     1.8387 S.3     
  26 C26           -1.6627     5.5759     2.3521 C.3     
  27 H27           -3.2086    -2.6688     0.8762 H       
  28 H28           -2.9489    -2.5343    -1.5959 H       
  29 H29           -1.4399    -3.4706    -1.4792 H       
  30 H30           -4.1896    -4.4296    -0.5634 H       
  31 H31           -3.3733    -4.9233    -2.0668 H       
  32 H32           -3.0676    -6.5734    -0.1864 H       
  33 H33           -1.5278    -5.9089    -0.7904 H       
  34 H34           -0.4446    -3.9652     0.7994 H       
  35 H35           -1.4053    -3.5905     2.2534 H       
  36 H36           -1.9444    -7.9641     0.5586 H       
  37 H37           -3.2321   -10.0462     0.3334 H       
  38 H38           -6.0325    -8.6471     3.2399 H       
  39 H39           -4.7533    -6.5617     3.4819 H       
  40 H40            1.0911     2.5013     0.3705 H       
  41 H41           -2.1652     6.1362     1.5636 H       
  42 H42           -2.3509     5.4208     3.1829 H       
  43 H43           -0.7945     6.1362     2.6991 H       
@<TRIPOS>BOND
   1    1    2 1
   2    1   22 2
   3    1   25 1
   4    2    3 1
   5    2    6 2
   6    3    4 2
   7    4    5 1
   8    4    7 1
   9    5    6 1
  10    7    8 1
  11    7   12 1
  12    7   27 1
  13    8    9 1
  14    8   28 1
  15    8   29 1
  16    9   10 1
  17    9   30 1
  18    9   31 1
  19   10   11 1
  20   10   32 1
  21   10   33 1
  22   11   12 1
  23   11   13 am
  24   12   34 1
  25   12   35 1
  26   13   14 1
  27   13   15 2
  28   14   16 ar
  29   14   20 ar
  30   16   17 ar
  31   16   36 1
  32   17   18 ar
  33   17   37 1
  34   18   19 ar
  35   18   21 1
  36   19   20 ar
  37   19   38 1
  38   20   39 1
  39   22   23 1
  40   22   40 1
  41   23   24 2
  42   24   25 1
  43   24   26 1
  44   26   41 1
  45   26   42 1
  46   26   43 1

#	End of record

