#	Name: ASD02198859
#	Creating user name:	WinNT
#	Creation time:	15. 06. 2019 20:20

#	Modifying user name:	WinNT
#	Modification time:	15. 06. 2019 20:20

#	Program:	/corina/corina34_cracker 3.40 0067  02.08.2006

@<TRIPOS>MOLECULE
ASD02198859
  59   63    0    0    0
SMALL
NO_CHARGES


@<TRIPOS>ATOM
   1 C1            -0.0436     1.5035    -0.1143 C.2     
   2 C2            -0.0738     0.1638     0.0984 C.2     
   3 N3             1.0704    -0.5382     0.2607 N.pl3   
   4 N4             2.2350    -0.0039     0.2265 N.2     
   5 C5             2.4069     1.2856     0.0280 C.2     
   6 C6             1.2214     2.1371    -0.1600 C.2     
   7 C7             0.9785    -1.9166     0.4773 C.ar    
   8 C8             1.5808    -2.4877     1.5982 C.ar    
   9 C9             1.4893    -3.8519     1.8116 C.ar    
  10 C10            0.7956    -4.6512     0.9062 C.ar    
  11 C11            0.1951    -4.0760    -0.2127 C.ar    
  12 C12            0.2824    -2.7157    -0.4210 C.ar    
  13 C13            3.7640     1.8675    -0.0049 C.2     
  14 N14            4.3059     2.6073    -1.0182 N.pl3   
  15 N15            5.6078     2.9589    -0.6405 N.2     
  16 C16            5.8517     2.4596     0.5449 C.2     
  17 C17            4.7198     1.7718     0.9826 C.2     
  18 C18            3.6729     2.9517    -2.2192 C.ar    
  19 C19            2.9107     2.0101    -2.8983 C.ar    
  20 C20            2.2863     2.3499    -4.0831 C.ar    
  21 C21            2.4187     3.6262    -4.5956 C.ar    
  22 C22            3.1796     4.5712    -3.9213 C.ar    
  23 C23            3.8020     4.2361    -2.7293 C.ar    
  24 O24            1.3247     3.3402    -0.3480 O.2     
  25 C25            0.6962    -6.1149     1.1323 C.2     
  26 C26            1.2497    -6.8299     2.2125 C.2     
  27 N27            0.9485    -8.0923     2.0606 N.2     
  28 N28            0.1973    -8.2326     0.8875 N.pl3   
  29 C29            0.0470    -7.0119     0.3347 C.2     
  30 C30           -0.3382    -9.4881     0.3554 C.3     
  31 F31           -0.6097   -10.3641     1.4119 F       
  32 F32           -1.5177    -9.2298    -0.3511 F       
  33 C33            7.1402     2.6081     1.3122 C.3     
  34 O34            3.3097     5.8259    -4.4270 O.3     
  35 C35            2.6360     6.1030    -5.6564 C.3     
  36 F36            1.2611     5.9056    -5.4895 F       
  37 F37            2.8746     7.4298    -6.0302 F       
  38 F38            3.1127     5.2447    -6.6531 F       
  39 O39            2.2574    -1.7052     2.4797 O.3     
  40 C40            2.8491    -2.3577     3.6050 C.3     
  41 H41           -0.9548     2.0673    -0.2488 H       
  42 H42           -1.0238    -0.3484     0.1389 H       
  43 H43            1.9553    -4.2961     2.6787 H       
  44 H44           -0.3428    -4.6959    -0.9148 H       
  45 H45           -0.1838    -2.2720    -1.2883 H       
  46 H46            4.6142     1.2522     1.9235 H       
  47 H47            2.8062     1.0116    -2.5002 H       
  48 H48            1.6940     1.6163    -4.6098 H       
  49 H49            1.9297     3.8887    -5.5221 H       
  50 H50            4.3942     4.9702    -2.2031 H       
  51 H51            1.8230    -6.4081     3.0247 H       
  52 H52           -0.4849    -6.7859    -0.5777 H       
  53 H53            0.3940    -9.9410    -0.3131 H       
  54 H54            7.0924     3.5027     1.9330 H       
  55 H55            7.2887     1.7337     1.9458 H       
  56 H56            7.9716     2.6953     0.6127 H       
  57 H57            3.5695    -3.0985     3.2580 H       
  58 H58            3.3569    -1.6205     4.2268 H       
  59 H59            2.0722    -2.8519     4.1883 H       
@<TRIPOS>BOND
   1    1    2 2
   2    1    6 1
   3    1   41 1
   4    2    3 1
   5    2   42 1
   6    3    4 1
   7    3    7 1
   8    4    5 2
   9    5    6 1
  10    5   13 1
  11    6   24 2
  12    7    8 ar
  13    7   12 ar
  14    8    9 ar
  15    8   39 1
  16    9   10 ar
  17    9   43 1
  18   10   11 ar
  19   10   25 1
  20   11   12 ar
  21   11   44 1
  22   12   45 1
  23   13   14 1
  24   13   17 2
  25   14   15 1
  26   14   18 1
  27   15   16 2
  28   16   17 1
  29   16   33 1
  30   17   46 1
  31   18   19 ar
  32   18   23 ar
  33   19   20 ar
  34   19   47 1
  35   20   21 ar
  36   20   48 1
  37   21   22 ar
  38   21   49 1
  39   22   23 ar
  40   22   34 1
  41   23   50 1
  42   25   26 1
  43   25   29 2
  44   26   27 2
  45   26   51 1
  46   27   28 1
  47   28   29 1
  48   28   30 1
  49   29   52 1
  50   30   31 1
  51   30   32 1
  52   30   53 1
  53   33   54 1
  54   33   55 1
  55   33   56 1
  56   34   35 1
  57   35   36 1
  58   35   37 1
  59   35   38 1
  60   39   40 1
  61   40   57 1
  62   40   58 1
  63   40   59 1

#	End of record

