#	Name: ASD06660243
#	Creating user name:	WinNT
#	Creation time:	15. 06. 2019 21:08

#	Modifying user name:	WinNT
#	Modification time:	15. 06. 2019 21:08

#	Program:	/corina/corina34_cracker 3.40 0067  02.08.2006

@<TRIPOS>MOLECULE
ASD06660243
  77   81    0    0    0
SMALL
NO_CHARGES


@<TRIPOS>ATOM
   1 C1            -0.0184     1.5028     0.0103 C.2     
   2 C2             0.0021    -0.0041     0.0020 C.3     
   3 C3            -0.7241    -0.5171    -1.2431 C.3     
   4 O4             1.0197     2.1211     0.0037 O.2     
   5 O5            -1.1898     2.1580     0.0194 O.3     
   6 C6             2.2780    -0.1853    -0.9825 C.2     
   7 N7             1.3897    -0.4735    -0.0138 N.am    
   8 C8             1.9903    -1.3192     1.0254 C.3     
   9 C9             3.5182    -1.1944     0.8272 C.3     
  10 C10            3.6094    -0.8193    -0.6654 C.3     
  11 C11            3.8204    -2.0729    -1.5071 C.3     
  12 C12            3.8937    -1.6888    -2.9873 C.3     
  13 C13            5.0491    -0.7089    -3.2018 C.3     
  14 C14            4.8132     0.5520    -2.3680 C.3     
  15 C15            4.7432     0.1761    -0.8855 C.3     
  16 O16            2.0417     0.4815    -1.9676 O.2     
  17 C17           -0.8113    -2.0207    -1.1900 C.ar    
  18 C18           -1.8983    -2.6278    -0.5884 C.ar    
  19 C19           -1.9814    -4.0054    -0.5380 C.ar    
  20 C20           -0.9713    -4.7813    -1.0925 C.ar    
  21 C21            0.1192    -4.1682    -1.6960 C.ar    
  22 C22            0.1932    -2.7901    -1.7480 C.ar    
  23 N23           -1.0519    -6.1748    -1.0428 N.3     
  24 C24            0.1154    -6.7927    -1.6847 C.3     
  25 C25           -0.0755    -8.3100    -1.7414 C.3     
  26 C26           -0.2456    -8.8516    -0.3193 C.3     
  27 C27           -1.4383    -8.1570     0.3437 C.3     
  28 C28           -1.2079    -6.6440     0.3399 C.3     
  29 C29           -0.4975   -10.3598    -0.3732 C.3     
  30 N30           -0.5413   -10.8966     0.9892 N.pl3   
  31 C31           -0.7596   -12.2539     1.1947 C.ar    
  32 C32           -0.9358   -13.0971     0.1020 C.ar    
  33 C33           -1.1521   -14.4454     0.3210 C.ar    
  34 C34           -1.1853   -14.9073     1.6304 C.ar    
  35 C35           -1.0027   -14.0145     2.6670 C.ar    
  36 N36           -0.7927   -12.7337     2.4282 N.ar    
  37 C37           -1.3481   -15.3920    -0.8351 C.3     
  38 H38           -0.4983    -0.3791     0.8948 H       
  39 H39           -1.7288    -0.0959    -1.2772 H       
  40 H40           -0.1736    -0.2164    -2.1345 H       
  41 H41           -1.1523     3.1243     0.0245 H       
  42 H42            1.7076    -0.9591     2.0146 H       
  43 H43            1.6766    -2.3551     0.8965 H       
  44 H44            3.9300    -0.4037     1.4544 H       
  45 H45            4.0160    -2.1443     1.0222 H       
  46 H46            4.7511    -2.5568    -1.2110 H       
  47 H47            2.9885    -2.7596    -1.3509 H       
  48 H48            4.0598    -2.5835    -3.5873 H       
  49 H49            2.9575    -1.2182    -3.2875 H       
  50 H50            5.9842    -1.1774    -2.8950 H       
  51 H51            5.1067    -0.4409    -4.2568 H       
  52 H52            5.6336     1.2518    -2.5272 H       
  53 H53            3.8747     1.0170    -2.6697 H       
  54 H54            4.5606     1.0718    -0.2919 H       
  55 H55            5.6872    -0.2755    -0.5804 H       
  56 H56           -2.6831    -2.0240    -0.1572 H       
  57 H57           -2.8305    -4.4790    -0.0677 H       
  58 H58            0.9062    -4.7685    -2.1281 H       
  59 H59            1.0385    -2.3127    -2.2213 H       
  60 H60            0.2226    -6.4021    -2.6967 H       
  61 H61            1.0115    -6.5606    -1.1092 H       
  62 H62           -0.9638    -8.5434    -2.3284 H       
  63 H63            0.7981    -8.7697    -2.2037 H       
  64 H64            0.6581    -8.6527     0.2568 H       
  65 H65           -2.3480    -8.3879    -0.2105 H       
  66 H66           -1.5385    -8.5072     1.3710 H       
  67 H67           -0.3056    -6.4127     0.9059 H       
  68 H68           -2.0619    -6.1455     0.7984 H       
  69 H69           -1.4485   -10.5517    -0.8701 H       
  70 H70            0.3065   -10.8428    -0.9284 H       
  71 H71           -0.4180   -10.3049     1.7478 H       
  72 H72           -0.9043   -12.7040    -0.9034 H       
  73 H73           -1.3525   -15.9544     1.8353 H       
  74 H74           -1.0277   -14.3695     3.6867 H       
  75 H75           -0.3820   -15.7884    -1.1479 H       
  76 H76           -1.9951   -16.2132    -0.5267 H       
  77 H77           -1.8087   -14.8592    -1.6669 H       
@<TRIPOS>BOND
   1    1    2 1
   2    1    4 2
   3    1    5 1
   4    2    3 1
   5    2    7 1
   6    2   38 1
   7    3   17 1
   8    3   39 1
   9    3   40 1
  10    5   41 1
  11    6    7 am
  12    6   10 1
  13    6   16 2
  14    7    8 1
  15    8    9 1
  16    8   42 1
  17    8   43 1
  18    9   10 1
  19    9   44 1
  20    9   45 1
  21   10   11 1
  22   10   15 1
  23   11   12 1
  24   11   46 1
  25   11   47 1
  26   12   13 1
  27   12   48 1
  28   12   49 1
  29   13   14 1
  30   13   50 1
  31   13   51 1
  32   14   15 1
  33   14   52 1
  34   14   53 1
  35   15   54 1
  36   15   55 1
  37   17   18 ar
  38   17   22 ar
  39   18   19 ar
  40   18   56 1
  41   19   20 ar
  42   19   57 1
  43   20   21 ar
  44   20   23 1
  45   21   22 ar
  46   21   58 1
  47   22   59 1
  48   23   24 1
  49   23   28 1
  50   24   25 1
  51   24   60 1
  52   24   61 1
  53   25   26 1
  54   25   62 1
  55   25   63 1
  56   26   27 1
  57   26   29 1
  58   26   64 1
  59   27   28 1
  60   27   65 1
  61   27   66 1
  62   28   67 1
  63   28   68 1
  64   29   30 1
  65   29   69 1
  66   29   70 1
  67   30   31 1
  68   30   71 1
  69   31   32 ar
  70   31   36 ar
  71   32   33 ar
  72   32   72 1
  73   33   34 ar
  74   33   37 1
  75   34   35 ar
  76   34   73 1
  77   35   36 ar
  78   35   74 1
  79   37   75 1
  80   37   76 1
  81   37   77 1

#	End of record

