#	Name: ASD01913435
#	Creating user name:	WinNT
#	Creation time:	15. 06. 2019 20:01

#	Modifying user name:	WinNT
#	Modification time:	15. 06. 2019 20:01

#	Program:	/corina/corina34_cracker 3.40 0067  02.08.2006

@<TRIPOS>MOLECULE
ASD01913435
  35   37    0    0    0
SMALL
NO_CHARGES


@<TRIPOS>ATOM
   1 C1            -0.3963    -0.6957    -2.1132 C.ar    
   2 C2            -0.8399    -0.0240    -0.9784 C.ar    
   3 C3            -0.8139     1.3634    -0.9634 C.ar    
   4 N4            -0.3766     2.0391    -2.0071 N.ar    
   5 C5             0.0506     1.4331    -3.0978 C.ar    
   6 C6             0.0556     0.0538    -3.1875 C.ar    
   7 C7            -1.2746    -2.0741     0.0393 C.ar    
   8 C8            -0.0807    -2.7683     0.1772 C.ar    
   9 N9            -0.0549    -4.0854     0.1249 N.ar    
  10 C10           -1.1496    -4.7958    -0.0583 C.ar    
  11 C11           -2.3841    -4.1750    -0.2046 C.ar    
  12 C12           -2.4527    -2.7861    -0.1557 C.ar    
  13 N13           -3.5416    -4.9358    -0.3991 N.am    
  14 C14           -4.7086    -4.5385     0.1458 C.2     
  15 O15           -1.2925    -0.7166     0.0996 O.3     
  16 C16           -5.9054    -5.3994     0.0383 C.ar    
  17 C17           -7.1153    -4.9909     0.6015 C.ar    
  18 C18           -8.2292    -5.7985     0.4977 C.ar    
  19 C19           -8.1493    -7.0111    -0.1629 C.ar    
  20 C20           -6.9521    -7.4230    -0.7243 C.ar    
  21 C21           -5.8317    -6.6217    -0.6318 C.ar    
  22 O22           -4.7769    -3.4723     0.7256 O.2     
  23 Cl23          -6.8618    -8.9467    -1.5514 Cl      
  24 H24           -0.3999    -1.7749    -2.1541 H       
  25 H25           -1.1559     1.8949    -0.0877 H       
  26 H26            0.4014     2.0224    -3.9320 H       
  27 H27            0.4069    -0.4340    -4.0847 H       
  28 H28            0.8388    -2.2226     0.3289 H       
  29 H29           -1.0864    -5.8733    -0.0956 H       
  30 H30           -3.3973    -2.2741    -0.2656 H       
  31 H31           -3.5045    -5.7492    -0.9262 H       
  32 H32           -7.1795    -4.0445     1.1180 H       
  33 H33           -9.1657    -5.4832     0.9335 H       
  34 H34           -9.0242    -7.6396    -0.2410 H       
  35 H35           -4.8985    -6.9434    -1.0700 H       
@<TRIPOS>BOND
   1    1    2 ar
   2    1    6 ar
   3    1   24 1
   4    2    3 ar
   5    2   15 1
   6    3    4 ar
   7    3   25 1
   8    4    5 ar
   9    5    6 ar
  10    5   26 1
  11    6   27 1
  12    7    8 ar
  13    7   12 ar
  14    7   15 1
  15    8    9 ar
  16    8   28 1
  17    9   10 ar
  18   10   11 ar
  19   10   29 1
  20   11   12 ar
  21   11   13 1
  22   12   30 1
  23   13   14 am
  24   13   31 1
  25   14   16 1
  26   14   22 2
  27   16   17 ar
  28   16   21 ar
  29   17   18 ar
  30   17   32 1
  31   18   19 ar
  32   18   33 1
  33   19   20 ar
  34   19   34 1
  35   20   21 ar
  36   20   23 1
  37   21   35 1

#	End of record

