#	Name: ASD00740015
#	Creating user name:	WinNT
#	Creation time:	15. 06. 2019 18:37

#	Modifying user name:	WinNT
#	Modification time:	15. 06. 2019 18:37

#	Program:	/corina/corina34_cracker 3.40 0067  02.08.2006

@<TRIPOS>MOLECULE
ASD00740015
  68   72    0    0    0
SMALL
NO_CHARGES


@<TRIPOS>ATOM
   1 C1             0.2863     2.1039    -0.0637 C.ar    
   2 C2             1.0000     2.0046     1.1268 C.ar    
   3 C3             0.4209     2.3160     2.3214 C.ar    
   4 C4            -0.9132     2.7428     2.3530 C.ar    
   5 C5            -1.6376     2.8432     1.1401 C.ar    
   6 C6            -1.0125     2.5216    -0.0691 C.ar    
   7 N7            -1.5307     3.0608     3.5008 N.ar    
   8 C8            -2.7813     3.4568     3.4956 C.ar    
   9 N9            -3.4979     3.5660     2.3883 N.ar    
  10 C10           -2.9850     3.2768     1.1996 C.ar    
  11 N11           -3.7426     3.3944     0.0534 N.pl3   
  12 C12           -5.0317     3.9360     0.1190 C.ar    
  13 C13           -5.3226     4.9260     1.0487 C.ar    
  14 C14           -6.5940     5.4600     1.1134 C.ar    
  15 C15           -7.5820     5.0074     0.2490 C.ar    
  16 C16           -7.2914     4.0176    -0.6805 C.ar    
  17 C17           -6.0185     3.4874    -0.7493 C.ar    
  18 N18           -8.8726     5.5492     0.3150 N.am    
  19 C19           -9.9452     4.7644     0.0912 C.2     
  20 N20          -11.1795     5.3044     0.0546 N.am    
  21 C21          -12.2893     4.4924    -0.1770 C.2     
  22 C22          -12.2741     3.1467    -0.3810 C.2     
  23 C23          -13.5935     2.7269    -0.5730 C.2     
  24 N24          -14.3776     3.7714    -0.4895 N.2     
  25 N25          -13.5867     4.8991    -0.2346 N.pl3   
  26 C26          -14.0483     6.2130    -0.0763 C.ar    
  27 C27          -15.1332     6.6630    -0.8163 C.ar    
  28 C28          -15.5858     7.9585    -0.6581 C.ar    
  29 C29          -14.9591     8.8069     0.2358 C.ar    
  30 C30          -13.8780     8.3615     0.9745 C.ar    
  31 C31          -13.4248     7.0656     0.8253 C.ar    
  32 C32          -16.7635     8.4478    -1.4610 C.3     
  33 C33          -14.0380     1.3106    -0.8328 C.3     
  34 C34          -13.9662     0.5069     0.4671 C.3     
  35 C35          -15.4776     1.3148    -1.3510 C.3     
  36 C36          -13.1216     0.6721    -1.8785 C.3     
  37 O37           -9.7993     3.5691    -0.0776 O.2     
  38 N38            0.9471     1.7577    -1.3420 N.pl3   
  39 O39            2.1079     1.3887    -1.3472 O.2     
  40 O40            0.3302     1.8417    -2.3888 O.2     
  41 H41            2.0283     1.6754     1.1043 H       
  42 H42            0.9870     2.2338     3.2375 H       
  43 H43           -1.5564     2.5953    -0.9992 H       
  44 H44           -3.2474     3.7046     4.4378 H       
  45 H45           -3.3823     3.1019    -0.7983 H       
  46 H46           -4.5542     5.2779     1.7213 H       
  47 H47           -6.8203     6.2296     1.8365 H       
  48 H48           -8.0600     3.6654    -1.3525 H       
  49 H49           -5.7925     2.7176    -1.4723 H       
  50 H50           -8.9940     6.4891     0.5218 H       
  51 H51          -11.2958     6.2580     0.1893 H       
  52 H52          -11.3980     2.5153    -0.3928 H       
  53 H53          -15.6227     6.0009    -1.5152 H       
  54 H54          -15.3142     9.8195     0.3573 H       
  55 H55          -13.3902     9.0266     1.6717 H       
  56 H56          -12.5807     6.7182     1.4026 H       
  57 H57          -17.6843     8.2525    -0.9113 H       
  58 H58          -16.6645     9.5192    -1.6351 H       
  59 H59          -16.7934     7.9255    -2.4172 H       
  60 H60          -14.6192     0.9618     1.2120 H       
  61 H61          -14.2878    -0.5175     0.2791 H       
  62 H62          -12.9407     0.5039     0.8362 H       
  63 H63          -15.5288     1.8874    -2.2771 H       
  64 H64          -15.7992     0.2904    -1.5389 H       
  65 H65          -16.1306     1.7697    -0.6061 H       
  66 H66          -12.0960     0.6691    -1.5093 H       
  67 H67          -13.4431    -0.3523    -2.0664 H       
  68 H68          -13.1727     1.2447    -2.8046 H       
@<TRIPOS>BOND
   1    1    2 ar
   2    1   38 1
   3    1    6 ar
   4    2    3 ar
   5    2   41 1
   6    3    4 ar
   7    3   42 1
   8    4    5 ar
   9    4    7 ar
  10    5    6 ar
  11    5   10 ar
  12    6   43 1
  13    7    8 ar
  14    8    9 ar
  15    8   44 1
  16    9   10 ar
  17   10   11 1
  18   11   12 1
  19   11   45 1
  20   12   13 ar
  21   12   17 ar
  22   13   14 ar
  23   13   46 1
  24   14   15 ar
  25   14   47 1
  26   15   16 ar
  27   15   18 1
  28   16   17 ar
  29   16   48 1
  30   17   49 1
  31   18   19 am
  32   18   50 1
  33   19   20 am
  34   19   37 2
  35   20   21 1
  36   20   51 1
  37   21   22 2
  38   21   25 1
  39   22   23 1
  40   22   52 1
  41   23   24 2
  42   23   33 1
  43   24   25 1
  44   25   26 1
  45   26   27 ar
  46   26   31 ar
  47   27   28 ar
  48   27   53 1
  49   28   29 ar
  50   28   32 1
  51   29   30 ar
  52   29   54 1
  53   30   31 ar
  54   30   55 1
  55   31   56 1
  56   32   57 1
  57   32   58 1
  58   32   59 1
  59   33   34 1
  60   33   35 1
  61   33   36 1
  62   34   60 1
  63   34   61 1
  64   34   62 1
  65   35   63 1
  66   35   64 1
  67   35   65 1
  68   36   66 1
  69   36   67 1
  70   36   68 1
  71   38   39 2
  72   38   40 2

#	End of record

