#	Name: ASD01420003
#	Creating user name:	WinNT
#	Creation time:	15. 06. 2019 19:20

#	Modifying user name:	WinNT
#	Modification time:	15. 06. 2019 19:20

#	Program:	/corina/corina34_cracker 3.40 0067  02.08.2006

@<TRIPOS>MOLECULE
ASD01420003
  40   42    0    0    0
SMALL
NO_CHARGES


@<TRIPOS>ATOM
   1 C1            -0.0144     1.2116     0.0087 C.2     
   2 O2            -1.0391     1.8322    -0.1989 O.2     
   3 C3             1.2874     1.9068    -0.0169 C.ar    
   4 C4             2.4746     1.1743     0.0682 C.ar    
   5 C5             3.6869     1.8264     0.0435 C.ar    
   6 C6             3.7311     3.2116    -0.0654 C.ar    
   7 C7             2.5528     3.9436    -0.1502 C.ar    
   8 C8             1.3363     3.2983    -0.1320 C.ar    
   9 C9             4.9677     1.0375     0.1352 C.3     
  10 C10            4.9934     0.2579     1.4514 C.3     
  11 C11            5.0494     0.0595    -1.0386 C.3     
  12 O12            4.9281     3.8508    -0.0884 O.3     
  13 C13           -1.2790    -0.9176     0.4429 C.3     
  14 N14           -0.0677    -0.1099     0.2677 N.am    
  15 C15            1.0745    -1.0155     0.4277 C.3     
  16 C16            0.5311    -2.3944     0.7046 C.ar    
  17 C17            1.1739    -3.5995     0.9307 C.ar    
  18 C18            0.4373    -4.7445     1.1648 C.ar    
  19 C19           -0.9441    -4.6870     1.1737 C.ar    
  20 C20           -1.5861    -3.4847     0.9486 C.ar    
  21 C21           -0.8484    -2.3370     0.7135 C.ar    
  22 H22            2.4410     0.0982     0.1535 H       
  23 H23            2.5913     5.0196    -0.2343 H       
  24 H24            0.4211     3.8675    -0.2021 H       
  25 H25            5.8175     1.7191     0.1000 H       
  26 H26            4.1435    -0.4237     1.4866 H       
  27 H27            5.9197    -0.3127     1.5177 H       
  28 H28            4.9351     0.9546     2.2876 H       
  29 H29            5.0311     0.6150    -1.9762 H       
  30 H30            5.9757    -0.5111    -0.9723 H       
  31 H31            4.1995    -0.6221    -1.0034 H       
  32 H32            5.2953     3.9661    -0.9755 H       
  33 H33           -1.8563    -0.5394     1.2866 H       
  34 H34           -1.8819    -0.8810    -0.4644 H       
  35 H35            1.6665    -1.0286    -0.4875 H       
  36 H36            1.6921    -0.6870     1.2636 H       
  37 H37            2.2529    -3.6446     0.9238 H       
  38 H38            0.9401    -5.6840     1.3403 H       
  39 H39           -1.5209    -5.5816     1.3563 H       
  40 H40           -2.6651    -3.4401     0.9553 H       
@<TRIPOS>BOND
   1    1    2 2
   2    1    3 1
   3    1   14 am
   4    3    4 ar
   5    3    8 ar
   6    4    5 ar
   7    4   22 1
   8    5    6 ar
   9    5    9 1
  10    6    7 ar
  11    6   12 1
  12    7    8 ar
  13    7   23 1
  14    8   24 1
  15    9   10 1
  16    9   11 1
  17    9   25 1
  18   10   26 1
  19   10   27 1
  20   10   28 1
  21   11   29 1
  22   11   30 1
  23   11   31 1
  24   12   32 1
  25   13   14 1
  26   13   21 1
  27   13   33 1
  28   13   34 1
  29   14   15 1
  30   15   16 1
  31   15   35 1
  32   15   36 1
  33   16   17 ar
  34   16   21 ar
  35   17   18 ar
  36   17   37 1
  37   18   19 ar
  38   18   38 1
  39   19   20 ar
  40   19   39 1
  41   20   21 ar
  42   20   40 1

#	End of record

