#	Name: ASD01190149
#	Creating user name:	WinNT
#	Creation time:	15. 06. 2019 19:07

#	Modifying user name:	WinNT
#	Modification time:	15. 06. 2019 19:07

#	Program:	/corina/corina34_cracker 3.40 0067  02.08.2006

@<TRIPOS>MOLECULE
ASD01190149
  42   45    0    0    0
SMALL
NO_CHARGES


@<TRIPOS>ATOM
   1 C1            -0.0187     1.5258     0.0104 C.3     
   2 C2            -0.2249     2.5342     1.1425 C.3     
   3 S3            -0.9489    -2.0227     1.5812 S.3     
   4 C4            -1.9621    -1.5378     0.2922 C.2     
   5 N5            -1.5928    -0.3850    -0.1546 N.2     
   6 C6            -0.5570     0.1823     0.4302 C.2     
   7 C7            -0.0229    -0.5317     1.4257 C.2     
   8 C8            -3.1191    -2.3406    -0.2445 C.3     
   9 O9            -2.6590    -3.1990    -1.2901 O.3     
  10 N10           -2.9698     3.2540    -4.4520 N.pl3   
  11 N11           -4.2558     3.1596    -3.9099 N.2     
  12 C12           -4.1929     2.7361    -2.6793 C.2     
  13 C13           -2.7866     2.5255    -2.3507 C.ar    
  14 C14           -2.1101     2.0883    -1.2064 C.ar    
  15 C15           -0.7484     1.9969    -1.2211 C.ar    
  16 C16           -0.0285     2.3345    -2.3606 C.ar    
  17 C17           -0.6665     2.7642    -3.4897 C.ar    
  18 C18           -2.0549     2.8671    -3.5045 C.ar    
  19 C19           -2.6649     3.6706    -5.7544 C.ar    
  20 C20           -3.5173     3.3527    -6.8035 C.ar    
  21 C21           -3.2149     3.7643    -8.0866 C.ar    
  22 C22           -2.0626     4.4937    -8.3274 C.ar    
  23 C23           -1.2112     4.8118    -7.2825 C.ar    
  24 C24           -1.5128     4.4070    -5.9970 C.ar    
  25 F25           -1.7683     4.8950    -9.5834 F       
  26 F26            0.4525     2.0968     2.2857 F       
  27 F27            0.2749     3.7814     0.7528 F       
  28 F28           -1.5907     2.6463     1.4240 F       
  29 O29            1.3764     1.4112    -0.2771 O.3     
  30 H30            0.8263    -0.2453     2.0284 H       
  31 H31           -3.5470    -2.9421     0.5575 H       
  32 H32           -3.8791    -1.6649    -0.6370 H       
  33 H33           -3.3522    -3.7467    -1.6830 H       
  34 H34           -5.0320     2.5707    -2.0198 H       
  35 H35           -2.6624     1.8249    -0.3165 H       
  36 H36            1.0487     2.2566    -2.3536 H       
  37 H37           -0.0952     3.0239    -4.3686 H       
  38 H38           -4.4159     2.7836    -6.6162 H       
  39 H39           -3.8774     3.5170    -8.9029 H       
  40 H40           -0.3128     5.3803    -7.4724 H       
  41 H41           -0.8511     4.6594    -5.1817 H       
  42 H42            1.5818     0.7872    -0.9867 H       
@<TRIPOS>BOND
   1    1    2 1
   2    1    6 1
   3    1   15 1
   4    1   29 1
   5    2   26 1
   6    2   27 1
   7    2   28 1
   8    3    4 1
   9    3    7 1
  10    4    5 2
  11    4    8 1
  12    5    6 1
  13    6    7 2
  14    7   30 1
  15    8    9 1
  16    8   31 1
  17    8   32 1
  18    9   33 1
  19   10   11 1
  20   10   18 1
  21   10   19 1
  22   11   12 2
  23   12   13 1
  24   12   34 1
  25   13   14 ar
  26   13   18 ar
  27   14   15 ar
  28   14   35 1
  29   15   16 ar
  30   16   17 ar
  31   16   36 1
  32   17   18 ar
  33   17   37 1
  34   19   20 ar
  35   19   24 ar
  36   20   21 ar
  37   20   38 1
  38   21   22 ar
  39   21   39 1
  40   22   23 ar
  41   22   25 1
  42   23   24 ar
  43   23   40 1
  44   24   41 1
  45   29   42 1

#	End of record

