#	Name: ASD01915779
#	Creating user name:	WinNT
#	Creation time:	15. 06. 2019 20:06

#	Modifying user name:	WinNT
#	Modification time:	15. 06. 2019 20:06

#	Program:	/corina/corina34_cracker 3.40 0067  02.08.2006

@<TRIPOS>MOLECULE
ASD01915779
  47   50    0    0    0
SMALL
NO_CHARGES


@<TRIPOS>ATOM
   1 C1            -0.0043     1.4629     0.2170 C.2     
   2 N2             0.0614     0.1096    -0.0287 N.pl3   
   3 C3            -1.1513    -0.6746    -0.2916 C.3     
   4 C4            -2.3298    -0.0461     0.4501 C.3     
   5 N5            -2.4043     1.3988     0.2636 N.am    
   6 C6            -1.2916     2.1720     0.2671 C.2     
   7 C7             1.2785     1.9002     0.3926 C.2     
   8 C8             2.0745     0.7555     0.2515 C.2     
   9 N9             1.2811    -0.2619     0.0090 N.2     
  10 C10            3.5768     0.7020     0.3583 C.3     
  11 O11            4.0819     2.0110     0.6293 O.3     
  12 C12            5.4289     2.1385     0.7562 C.ar    
  13 O13           -1.3541     3.3860     0.3097 O.2     
  14 C14            5.9876     3.3807     1.0195 C.ar    
  15 C15            6.2473     1.0255     0.6282 C.ar    
  16 C16            7.6163     1.1577     0.7576 C.ar    
  17 C17            8.1711     2.3979     1.0144 C.ar    
  18 C18            7.3572     3.5076     1.1480 C.ar    
  19 C19           -3.6481     1.9974     0.0773 C.ar    
  20 N20           -3.7241     3.2612    -0.3204 N.ar    
  21 C21           -4.8118     1.2695     0.3025 C.ar    
  22 N22           -5.9917     1.8359     0.1257 N.ar    
  23 C23           -6.0715     3.0948    -0.2647 C.ar    
  24 C24           -4.9113     3.8278    -0.4967 C.ar    
  25 N25           -4.9959     5.1529    -0.9077 N.pl3   
  26 C26           -6.3016     5.8120    -0.9915 C.3     
  27 C27           -3.7793     5.8905    -1.2572 C.3     
  28 H28           -1.3562    -0.6799    -1.3621 H       
  29 H29           -1.0058    -1.6972     0.0566 H       
  30 H30           -3.2542    -0.4961     0.0879 H       
  31 H31           -2.2303    -0.2593     1.5144 H       
  32 H32            1.6073     2.9086     0.5957 H       
  33 H33            3.8597     0.0287     1.1674 H       
  34 H34            3.9950     0.3383    -0.5802 H       
  35 H35            5.3524     4.2479     1.1237 H       
  36 H36            5.8144     0.0565     0.4280 H       
  37 H37            8.2537     0.2915     0.6584 H       
  38 H38            9.2416     2.4992     1.1152 H       
  39 H39            7.7929     4.4753     1.3482 H       
  40 H40           -4.7504     0.2397     0.6218 H       
  41 H41           -7.0380     3.5548    -0.4086 H       
  42 H42           -6.5322     6.2840    -0.0365 H       
  43 H43           -6.2765     6.5697    -1.7747 H       
  44 H44           -7.0674     5.0725    -1.2257 H       
  45 H45           -2.9127     5.2409    -1.1344 H       
  46 H46           -3.8407     6.2224    -2.2936 H       
  47 H47           -3.6793     6.7570    -0.6035 H       
@<TRIPOS>BOND
   1    1    2 1
   2    1    7 2
   3    1    6 1
   4    2    3 1
   5    2    9 1
   6    3    4 1
   7    3   28 1
   8    3   29 1
   9    4    5 1
  10    4   30 1
  11    4   31 1
  12    5    6 am
  13    5   19 1
  14    6   13 2
  15    7    8 1
  16    7   32 1
  17    8    9 2
  18    8   10 1
  19   10   11 1
  20   10   33 1
  21   10   34 1
  22   11   12 1
  23   12   14 ar
  24   12   15 ar
  25   14   18 ar
  26   14   35 1
  27   15   16 ar
  28   15   36 1
  29   16   17 ar
  30   16   37 1
  31   17   18 ar
  32   17   38 1
  33   18   39 1
  34   19   21 ar
  35   19   20 ar
  36   20   24 ar
  37   21   22 ar
  38   21   40 1
  39   22   23 ar
  40   23   24 ar
  41   23   41 1
  42   24   25 1
  43   25   26 1
  44   25   27 1
  45   26   42 1
  46   26   43 1
  47   26   44 1
  48   27   45 1
  49   27   46 1
  50   27   47 1

#	End of record

