#	Name: ASD01000134
#	Creating user name:	WinNT
#	Creation time:	15. 06. 2019 18:54

#	Modifying user name:	WinNT
#	Modification time:	15. 06. 2019 18:54

#	Program:	/corina/corina34_cracker 3.40 0067  02.08.2006

@<TRIPOS>MOLECULE
ASD01000134
  42   44    0    0    0
SMALL
NO_CHARGES


@<TRIPOS>ATOM
   1 C1            -0.1329     0.8150     0.1146 C.2     
   2 N2             0.0810    -0.4553     0.5106 N.am    
   3 C3             2.1812     1.2586    -0.2429 C.2     
   4 N4             0.8684     1.6285    -0.2434 N.am    
   5 C5             2.5552     0.0131     0.1303 C.2     
   6 O6             4.6971     0.1523     0.9038 O.2     
   7 C7             1.4659    -0.9546     0.5468 C.3     
   8 O8             3.2668    -4.2304     3.6849 O.3     
   9 C9             0.5351     2.9930    -0.6597 C.3     
  10 C10            3.2319     2.2530    -0.6651 C.3     
  11 C11            3.9158    -0.3727     0.1311 C.2     
  12 C12            4.3902    -1.4143    -0.8070 C.ar    
  13 C13            5.7051    -1.8763    -0.7346 C.ar    
  14 C14            6.1411    -2.8474    -1.6121 C.ar    
  15 C15            5.2780    -3.3629    -2.5627 C.ar    
  16 C16            3.9733    -2.9088    -2.6401 C.ar    
  17 C17            3.5229    -1.9428    -1.7642 C.ar    
  18 C18            1.7599    -1.4076     1.9537 C.ar    
  19 C19            2.3832    -2.6207     2.1720 C.ar    
  20 C20            2.6540    -3.0370     3.4676 C.ar    
  21 C21            2.2978    -2.2333     4.5406 C.ar    
  22 C22            1.6745    -1.0207     4.3169 C.ar    
  23 C23            1.4105    -0.6058     3.0249 C.ar    
  24 S24           -1.7388     1.4060     0.0610 S.2     
  25 H25           -0.6598    -1.0271     0.7660 H       
  26 H26            1.5255    -1.8277    -0.1030 H       
  27 H27            4.2320    -4.1779     3.7110 H       
  28 H28           -0.5443     3.1353    -0.6075 H       
  29 H29            1.0279     3.7054     0.0019 H       
  30 H30            0.8737     3.1535    -1.6833 H       
  31 H31            2.7539     3.1961    -0.9301 H       
  32 H32            3.9282     2.4170     0.1572 H       
  33 H33            3.7734     1.8651    -1.5279 H       
  34 H34            6.3800    -1.4742     0.0066 H       
  35 H35            7.1584    -3.2058    -1.5571 H       
  36 H36            5.6243    -4.1228    -3.2476 H       
  37 H37            3.3046    -3.3150    -3.3846 H       
  38 H38            2.5029    -1.5926    -1.8224 H       
  39 H39            2.6593    -3.2448     1.3349 H       
  40 H40            2.5072    -2.5553     5.5499 H       
  41 H41            1.3970    -0.3946     5.1520 H       
  42 H42            0.9273     0.3445     2.8520 H       
@<TRIPOS>BOND
   1    1    2 am
   2    1    4 am
   3    1   24 2
   4    2    7 1
   5    2   25 1
   6    3    4 1
   7    3    5 2
   8    3   10 1
   9    4    9 1
  10    5    7 1
  11    5   11 1
  12    6   11 2
  13    7   18 1
  14    7   26 1
  15    8   20 1
  16    8   27 1
  17    9   28 1
  18    9   29 1
  19    9   30 1
  20   10   31 1
  21   10   32 1
  22   10   33 1
  23   11   12 1
  24   12   13 ar
  25   12   17 ar
  26   13   14 ar
  27   13   34 1
  28   14   15 ar
  29   14   35 1
  30   15   16 ar
  31   15   36 1
  32   16   17 ar
  33   16   37 1
  34   17   38 1
  35   18   19 ar
  36   18   23 ar
  37   19   20 ar
  38   19   39 1
  39   20   21 ar
  40   21   22 ar
  41   21   40 1
  42   22   23 ar
  43   22   41 1
  44   23   42 1

#	End of record

