#	Name: ASD07300969
#	Creating user name:	WinNT
#	Creation time:	15. 06. 2019 21:10

#	Modifying user name:	WinNT
#	Modification time:	15. 06. 2019 21:10

#	Program:	/corina/corina34_cracker 3.40 0067  02.08.2006

@<TRIPOS>MOLECULE
ASD07300969
  30   30    0    0    0
SMALL
NO_CHARGES


@<TRIPOS>ATOM
   1 C1            -0.1322     1.4996     0.0148 C.3     
   2 C2            -0.1148    -0.0073     0.0091 C.2     
   3 C3             0.0216    -0.7424     1.2675 C.2     
   4 C4             0.0385    -2.2060     1.2619 C.2     
   5 C5            -1.2355    -2.9752     1.4995 C.3     
   6 O6            -0.2138    -0.6113    -1.0388 O.2     
   7 O7             1.0784    -2.8001     1.0660 O.2     
   8 N8             0.1295    -0.0837     2.4104 N.2     
   9 N9             0.1529    -0.7290     3.5271 N.pl3   
  10 C10            0.1591    -0.0322     4.7353 C.ar    
  11 C11            0.1843    -0.7260     5.9398 C.ar    
  12 C12            0.1908    -0.0327     7.1336 C.ar    
  13 C13            0.1723     1.3505     7.1324 C.ar    
  14 C14            0.1468     2.0440     5.9363 C.ar    
  15 C15            0.1459     1.3577     4.7380 C.ar    
  16 C16            0.2176    -0.7838     8.4399 C.3     
  17 F17            1.5446    -0.9990     8.8269 F       
  18 F18           -0.4390    -0.0346     9.4221 F       
  19 F19           -0.4280    -2.0150     8.2832 F       
  20 H20            0.8860     1.8751    -0.0874 H       
  21 H21           -0.7373     1.8592    -0.8174 H       
  22 H22           -0.5578     1.8545     0.9535 H       
  23 H23           -1.7761    -3.0822     0.5591 H       
  24 H24           -0.9956    -3.9622     1.8950 H       
  25 H25           -1.8562    -2.4376     2.2163 H       
  26 H26            0.1662    -1.6989     3.5265 H       
  27 H27            0.1984    -1.8059     5.9416 H       
  28 H28            0.1774     1.8901     8.0679 H       
  29 H29            0.1317     3.1239     5.9393 H       
  30 H30            0.1308     1.9001     3.8042 H       
@<TRIPOS>BOND
   1    1    2 1
   2    1   20 1
   3    1   21 1
   4    1   22 1
   5    2    3 1
   6    2    6 2
   7    3    4 1
   8    3    8 2
   9    4    5 1
  10    4    7 2
  11    5   23 1
  12    5   24 1
  13    5   25 1
  14    8    9 1
  15    9   10 1
  16    9   26 1
  17   10   11 ar
  18   10   15 ar
  19   11   12 ar
  20   11   27 1
  21   12   13 ar
  22   12   16 1
  23   13   14 ar
  24   13   28 1
  25   14   15 ar
  26   14   29 1
  27   15   30 1
  28   16   17 1
  29   16   18 1
  30   16   19 1

#	End of record

