#	Name: ASD01028798
#	Creating user name:	WinNT
#	Creation time:	15. 06. 2019 18:58

#	Modifying user name:	WinNT
#	Modification time:	15. 06. 2019 18:58

#	Program:	/corina/corina34_cracker 3.40 0067  02.08.2006

@<TRIPOS>MOLECULE
ASD01028798
  40   44    0    0    0
SMALL
NO_CHARGES


@<TRIPOS>ATOM
   1 N1            -0.0157     1.3066     0.0092 N.ar    
   2 C2             0.0021    -0.0041     0.0020 C.ar    
   3 C3             1.1967    -0.7211    -0.0128 C.ar    
   4 C4             2.3902    -0.0572    -0.0206 C.ar    
   5 C5             2.3672     1.3504    -0.0132 C.ar    
   6 C6             3.5535     2.1011    -0.0200 C.ar    
   7 C7             3.4892     3.4613    -0.0122 C.ar    
   8 C8             2.2611     4.1187     0.0030 C.ar    
   9 C9             1.0917     3.4224     0.0100 C.ar    
  10 C10            1.1167     2.0170     0.0022 C.ar    
  11 C11            4.7634     4.2659    -0.0195 C.3     
  12 C12            6.2405     5.2343    -3.2151 C.2     
  13 C13            7.2625     5.8881    -3.9297 C.2     
  14 C14            8.2576     6.5093    -3.2439 C.2     
  15 C15            8.2606     6.4948    -1.8315 C.2     
  16 N16            7.3055     5.8839    -1.1627 N.2     
  17 N17            6.2698     5.2374    -1.8400 N.pl3   
  18 N18            4.5400     4.1553    -2.5210 N.2     
  19 N19            5.1596     4.5615    -3.5735 N.2     
  20 C20            5.1751     4.5418    -1.4427 C.2     
  21 O21           10.3914     7.8379    -1.6264 O.3     
  22 N22           11.1150     8.2845    -0.7671 N.2     
  23 C23           10.6845     7.9983     0.4284 C.2     
  24 C24            9.4992     7.2519     0.2616 C.2     
  25 C25            9.3492     7.1734    -1.0958 C.2     
  26 C26           11.3273     8.3880     1.7345 C.3     
  27 F27            4.5538     5.4772     0.6484 F       
  28 F28            5.7736     3.5456     0.6270 F       
  29 H29           -0.9341    -0.5425     0.0081 H       
  30 H30            1.1789    -1.8009    -0.0177 H       
  31 H31            3.3255    -0.5970    -0.0317 H       
  32 H32            4.5116     1.6027    -0.0311 H       
  33 H33            2.2365     5.1984     0.0097 H       
  34 H34            0.1481     3.9476     0.0221 H       
  35 H35            7.2558     5.8955    -5.0096 H       
  36 H36            9.0476     7.0145    -3.7796 H       
  37 H37            8.8595     6.8384     1.0272 H       
  38 H38           10.9336     9.3508     2.0602 H       
  39 H39           11.1069     7.6317     2.4879 H       
  40 H40           12.4064     8.4633     1.6002 H       
@<TRIPOS>BOND
   1    1    2 ar
   2    1   10 ar
   3    2    3 ar
   4    2   29 1
   5    3    4 ar
   6    3   30 1
   7    4    5 ar
   8    4   31 1
   9    5    6 ar
  10    5   10 ar
  11    6    7 ar
  12    6   32 1
  13    7    8 ar
  14    7   11 1
  15    8    9 ar
  16    8   33 1
  17    9   10 ar
  18    9   34 1
  19   11   20 1
  20   11   27 1
  21   11   28 1
  22   12   13 1
  23   12   17 1
  24   12   19 2
  25   13   14 2
  26   13   35 1
  27   14   15 1
  28   14   36 1
  29   15   16 2
  30   15   25 1
  31   16   17 1
  32   17   20 1
  33   18   19 1
  34   18   20 2
  35   21   22 1
  36   21   25 1
  37   22   23 2
  38   23   24 1
  39   23   26 1
  40   24   25 2
  41   24   37 1
  42   26   38 1
  43   26   39 1
  44   26   40 1

#	End of record

