#	Name: ASD03331133
#	Creating user name:	WinNT
#	Creation time:	15. 06. 2019 20:38

#	Modifying user name:	WinNT
#	Modification time:	15. 06. 2019 20:38

#	Program:	/corina/corina34_cracker 3.40 0067  02.08.2006

@<TRIPOS>MOLECULE
ASD03331133
  29   30    0    0    0
SMALL
NO_CHARGES


@<TRIPOS>ATOM
   1 N1            -0.0179     1.4653     0.0101 N.3     
   2 C2             0.0021    -0.0041     0.0020 C.3     
   3 C3             0.7337    -0.4948    -1.2495 C.3     
   4 N4             2.0995     0.0476    -1.2596 N.3     
   5 C5             2.0796     1.5170    -1.2515 C.3     
   6 C6             1.3479     2.0078    -0.0000 C.3     
   7 C7            -0.7783     1.9752     1.1589 C.3     
   8 C8            -0.5745     3.4638     1.2755 C.ar    
   9 C9            -1.4280     4.3315     0.6199 C.ar    
  10 C10           -1.2415     5.6975     0.7270 C.ar    
  11 C11           -0.2000     6.1955     1.4909 C.ar    
  12 C12            0.6531     5.3265     2.1462 C.ar    
  13 C13            0.4623     3.9611     2.0425 C.ar    
  14 Br14           0.0566     8.0632     1.6378 Br      
  15 Br15          -2.4084     6.8847    -0.1700 Br      
  16 H16            0.5192    -0.3656     0.8908 H       
  17 H17           -1.0204    -0.3816    -0.0030 H       
  18 H18            0.7751    -1.5840    -1.2430 H       
  19 H19            0.2013    -0.1561    -2.1383 H       
  20 H20            2.6367    -0.3110    -0.4845 H       
  21 H21            3.1021     1.8946    -1.2465 H       
  22 H22            1.5625     1.8786    -2.1404 H       
  23 H23            1.3066     3.0970    -0.0066 H       
  24 H24            1.8803     1.6690     0.8887 H       
  25 H25           -1.8380     1.7637     1.0160 H       
  26 H26           -0.4303     1.4884     2.0699 H       
  27 H27           -2.2402     3.9425     0.0238 H       
  28 H28            1.4660     5.7144     2.7420 H       
  29 H29            1.1260     3.2827     2.5579 H       
@<TRIPOS>BOND
   1    1    2 1
   2    1    6 1
   3    1    7 1
   4    2    3 1
   5    2   16 1
   6    2   17 1
   7    3    4 1
   8    3   18 1
   9    3   19 1
  10    4    5 1
  11    4   20 1
  12    5    6 1
  13    5   21 1
  14    5   22 1
  15    6   23 1
  16    6   24 1
  17    7    8 1
  18    7   25 1
  19    7   26 1
  20    8    9 ar
  21    8   13 ar
  22    9   10 ar
  23    9   27 1
  24   10   11 ar
  25   10   15 1
  26   11   12 ar
  27   11   14 1
  28   12   13 ar
  29   12   28 1
  30   13   29 1

#	End of record

