#	Name: ASD02610040
#	Creating user name:	WinNT
#	Creation time:	15. 06. 2019 20:25

#	Modifying user name:	WinNT
#	Modification time:	15. 06. 2019 20:25

#	Program:	/corina/corina34_cracker 3.40 0067  02.08.2006

@<TRIPOS>MOLECULE
ASD02610040
  85   87    0    0    0
SMALL
NO_CHARGES


@<TRIPOS>ATOM
   1 C1             0.2383     1.0353    -0.3120 C.3     
   2 C2             0.5224    -0.4410    -0.5330 C.2     
   3 C3             1.9682    -0.5901    -0.6901 C.2     
   4 C4             2.6091     0.5623    -0.5539 C.2     
   5 C5             1.6271     1.6421    -0.1868 C.3     
   6 C6             4.0657     0.8411    -0.8352 C.3     
   7 C7             4.5685     1.9164     0.1107 C.3     
   8 C8             4.2980     3.3169    -0.3472 C.3     
   9 C9             2.9159     3.7956    -0.0004 C.3     
  10 C10            1.8530     2.9859    -0.7475 C.3     
  11 O11           -0.2997    -1.3325    -0.5715 O.2     
  12 C12            2.6515    -1.9031    -0.9736 C.3     
  13 O13           -0.5198     1.2340     0.9103 O.3     
  14 H14            1.7649     1.7716     0.8866 H       
  15 O15            0.6007     3.7199    -0.7115 O.3     
  16 C16            2.2869     2.8396    -2.2073 C.3     
  17 O17            4.4648     3.3772    -1.7883 O.3     
  18 O18            4.9103    -0.3099    -0.5544 O.3     
  19 C19            6.1463     0.1330    -0.2432 C.2     
  20 C20            6.0679     1.5798     0.2162 C.3     
  21 O21            3.9591     1.7331     1.3902 O.3     
  22 C22           -1.8578     1.2432     0.8028 C.2     
  23 C23           -2.7108     1.4441     2.0288 C.3     
  24 C24           -4.1883     1.4125     1.6329 C.3     
  25 C25           -5.0544     1.6165     2.8776 C.3     
  26 C26           -6.5319     1.5849     2.4816 C.3     
  27 C27           -7.3979     1.7889     3.7263 C.3     
  28 O28           -2.3782     1.0903    -0.2768 O.2     
  29 O29            6.8337     2.4228    -0.6469 O.3     
  30 C30           -8.8755     1.7573     3.3303 C.3     
  31 C31           -9.7415     1.9613     4.5750 C.3     
  32 C32            6.5479     1.7112     1.6630 C.3     
  33 C33            0.0960     4.0048     0.4992 C.2     
  34 C34           -1.1874     4.7862     0.6157 C.3     
  35 O35            0.6706     3.6349     1.4957 O.2     
  36 H36            4.1897     1.1658    -1.8683 H       
  37 O37            7.1599    -0.5203    -0.3178 O.2     
  38 C38            4.8749     4.5458    -2.3060 C.2     
  39 C39            5.0702     4.6836    -3.7939 C.3     
  40 C40            5.5372     6.1042    -4.1175 C.3     
  41 C41            5.7355     6.2442    -5.6281 C.3     
  42 C42            6.1955     7.6434    -5.9469 C.2     
  43 O43            6.4347     7.9977    -7.2193 O.3     
  44 O44            5.0874     5.4872    -1.5790 O.2     
  45 O45            6.3490     8.4463    -5.0571 O.2     
  46 H46           -0.2903     1.4575    -1.1667 H       
  47 H47            5.0259     3.9834     0.1154 H       
  48 H48            2.7587     3.6889     1.0729 H       
  49 H49            2.8222     4.8469    -0.2725 H       
  50 H50            1.9049    -2.6945    -1.0390 H       
  51 H51            3.1924    -1.8348    -1.9174 H       
  52 H52            3.3514    -2.1295    -0.1692 H       
  53 H53            1.4516     2.4647    -2.7988 H       
  54 H54            2.5983     3.8105    -2.5929 H       
  55 H55            3.1200     2.1395    -2.2704 H       
  56 H56            4.2308     2.3837     2.0520 H       
  57 H57           -2.5096     0.6482     2.7459 H       
  58 H58           -2.4763     2.4080     2.4806 H       
  59 H59           -4.3895     2.2084     0.9158 H       
  60 H60           -4.4228     0.4486     1.1811 H       
  61 H61           -4.8532     0.8206     3.5946 H       
  62 H62           -4.8198     2.5804     3.3293 H       
  63 H63           -6.7330     2.3808     1.7646 H       
  64 H64           -6.7664     0.6210     2.0298 H       
  65 H65           -7.1968     0.9930     4.4433 H       
  66 H66           -7.1634     2.7528     4.1781 H       
  67 H67            7.7853     2.2531    -0.6195 H       
  68 H68           -9.0766     2.5532     2.6133 H       
  69 H69           -9.1100     0.7934     2.8786 H       
  70 H70          -10.7941     1.9388     4.2929 H       
  71 H71           -9.5404     1.1654     5.2921 H       
  72 H72           -9.5070     2.9252     5.0268 H       
  73 H73            5.9861     1.0244     2.2960 H       
  74 H74            7.6093     1.4695     1.7170 H       
  75 H75            6.3901     2.7335     2.0066 H       
  76 H76           -1.9900     4.2430     0.1170 H       
  77 H77           -1.4377     4.9188     1.6682 H       
  78 H78           -1.0625     5.7619     0.1462 H       
  79 H79            5.8216     3.9688    -4.1295 H       
  80 H80            4.1274     4.4861    -4.3039 H       
  81 H81            4.7859     6.8190    -3.7819 H       
  82 H82            6.4801     6.3018    -3.6074 H       
  83 H83            6.4869     5.5294    -5.9637 H       
  84 H84            4.7927     6.0466    -6.1382 H       
  85 H85            6.7280     8.9061    -7.3743 H       
@<TRIPOS>BOND
   1    1    2 1
   2    1    5 1
   3    1   13 1
   4    1   46 1
   5    2    3 1
   6    2   11 2
   7    3    4 2
   8    3   12 1
   9    4    5 1
  10    4    6 1
  11    5   10 1
  12    5   14 1
  13    6    7 1
  14    6   18 1
  15    6   36 1
  16    7   20 1
  17    7   21 1
  18    7    8 1
  19    8    9 1
  20    8   17 1
  21    8   47 1
  22    9   10 1
  23    9   48 1
  24    9   49 1
  25   10   15 1
  26   10   16 1
  27   12   50 1
  28   12   51 1
  29   12   52 1
  30   13   22 1
  31   15   33 1
  32   16   53 1
  33   16   54 1
  34   16   55 1
  35   17   38 1
  36   18   19 1
  37   19   20 1
  38   19   37 2
  39   20   29 1
  40   20   32 1
  41   21   56 1
  42   22   23 1
  43   22   28 2
  44   23   24 1
  45   23   57 1
  46   23   58 1
  47   24   25 1
  48   24   59 1
  49   24   60 1
  50   25   26 1
  51   25   61 1
  52   25   62 1
  53   26   27 1
  54   26   63 1
  55   26   64 1
  56   27   30 1
  57   27   65 1
  58   27   66 1
  59   29   67 1
  60   30   31 1
  61   30   68 1
  62   30   69 1
  63   31   70 1
  64   31   71 1
  65   31   72 1
  66   32   73 1
  67   32   74 1
  68   32   75 1
  69   33   34 1
  70   33   35 2
  71   34   76 1
  72   34   77 1
  73   34   78 1
  74   38   39 1
  75   38   44 2
  76   39   40 1
  77   39   79 1
  78   39   80 1
  79   40   41 1
  80   40   81 1
  81   40   82 1
  82   41   42 1
  83   41   83 1
  84   41   84 1
  85   42   43 1
  86   42   45 2
  87   43   85 1

#	End of record

