#	Name: ASD01122022
#	Creating user name:	WinNT
#	Creation time:	15. 06. 2019 18:59

#	Modifying user name:	WinNT
#	Modification time:	15. 06. 2019 18:59

#	Program:	/corina/corina34_cracker 3.40 0067  02.08.2006

@<TRIPOS>MOLECULE
ASD01122022
  60   61    0    0    0
SMALL
NO_CHARGES


@<TRIPOS>ATOM
   1 S1            -0.0218     1.7576     0.0117 S.3     
   2 C2             0.0021    -0.0041     0.0020 C.2     
   3 C3             1.2859    -0.4093    -0.0124 C.2     
   4 N4             2.1908     0.5702    -0.0158 N.2     
   5 C5             1.7386     1.7856    -0.0050 C.2     
   6 N6             2.5200     2.9294    -0.0063 N.pl3   
   7 C7            -1.2073    -0.9032     0.0087 C.3     
   8 C8            -1.6032    -1.2147     1.4534 C.3     
   9 C9            -2.0519     0.0724     2.1481 C.3     
  10 C10           -2.7518    -2.2254     1.4609 C.3     
  11 C11            1.6651    -1.8376    -0.0232 C.2     
  12 C12            2.7354    -2.3741    -0.6678 C.2     
  13 C13            2.7132    -3.7599    -0.4079 C.2     
  14 C14            1.6426    -3.9977     0.3735 C.2     
  15 O15            1.0140    -2.8330     0.6084 O.3     
  16 P16            1.1361    -5.6197     1.0085 P.3     
  17 N17            0.3564    -5.4247     2.4872 N.3     
  18 O18            0.2134    -6.2605     0.0450 O.2     
  19 N19            2.4951    -6.5908     1.2147 N.3     
  20 C20            2.1225    -7.9154     1.7290 C.3     
  21 C21            2.8633    -8.9793     0.9606 C.2     
  22 O22            3.6237    -8.6661     0.0753 O.2     
  23 O23            2.6785   -10.2747     1.2596 O.3     
  24 C24            1.2440    -4.7901     3.4708 C.3     
  25 C25            0.4910    -3.7099     4.2037 C.2     
  26 O26            1.1060    -2.9907     5.1557 O.3     
  27 O27           -0.6664    -3.4911     3.9343 O.2     
  28 C28            3.4250   -11.2446     0.4783 C.3     
  29 C29            3.0863   -12.6567     0.9600 C.3     
  30 C30            0.3193    -1.9669     5.8200 C.3     
  31 C31            1.1830    -1.2582     6.8653 C.3     
  32 H32            3.4872     2.8560    -0.0155 H       
  33 H33            2.1000     3.8037     0.0021 H       
  34 H34           -2.0346    -0.4032    -0.4949 H       
  35 H35           -0.9727    -1.8316    -0.5120 H       
  36 H36           -0.7471    -1.6337     1.9824 H       
  37 H37           -2.9079     0.4914     1.6191 H       
  38 H38           -2.3340    -0.1495     3.1774 H       
  39 H39           -1.2336     0.7925     2.1429 H       
  40 H40           -2.4321    -3.1424     0.9659 H       
  41 H41           -3.0338    -2.4474     2.4901 H       
  42 H42           -3.6078    -1.8065     0.9318 H       
  43 H43            3.4620    -1.8417    -1.2636 H       
  44 H44            3.4210    -4.4921    -0.7676 H       
  45 H45           -0.4980    -4.8989     2.3790 H       
  46 H46            3.0165    -6.6704     0.3545 H       
  47 H47            2.3837    -7.9818     2.7852 H       
  48 H48            1.0490    -8.0625     1.6102 H       
  49 H49            1.5910    -5.5385     4.1832 H       
  50 H50            2.1004    -4.3520     2.9580 H       
  51 H51            3.1584   -11.1460    -0.5740 H       
  52 H52            4.4931   -11.0652     0.6009 H       
  53 H53            2.0182   -12.8361     0.8374 H       
  54 H54            3.6467   -13.3848     0.3735 H       
  55 H55            3.3529   -12.7554     2.0123 H       
  56 H56           -0.0290    -1.2419     5.0843 H       
  57 H57           -0.5383    -2.4283     6.3096 H       
  58 H58            0.5924    -0.4897     7.3640 H       
  59 H59            1.5312    -1.9832     7.6009 H       
  60 H60            2.0406    -0.7968     6.3757 H       
@<TRIPOS>BOND
   1    1    2 1
   2    1    5 1
   3    2    3 2
   4    2    7 1
   5    3    4 1
   6    3   11 1
   7    4    5 2
   8    5    6 1
   9    6   32 1
  10    6   33 1
  11    7    8 1
  12    7   34 1
  13    7   35 1
  14    8    9 1
  15    8   10 1
  16    8   36 1
  17    9   37 1
  18    9   38 1
  19    9   39 1
  20   10   40 1
  21   10   41 1
  22   10   42 1
  23   11   12 2
  24   11   15 1
  25   12   13 1
  26   12   43 1
  27   13   14 2
  28   13   44 1
  29   14   15 1
  30   14   16 1
  31   16   17 1
  32   16   18 2
  33   16   19 1
  34   17   24 1
  35   17   45 1
  36   19   20 1
  37   19   46 1
  38   20   21 1
  39   20   47 1
  40   20   48 1
  41   21   22 2
  42   21   23 1
  43   23   28 1
  44   24   25 1
  45   24   49 1
  46   24   50 1
  47   25   26 1
  48   25   27 2
  49   26   30 1
  50   28   29 1
  51   28   51 1
  52   28   52 1
  53   29   53 1
  54   29   54 1
  55   29   55 1
  56   30   31 1
  57   30   56 1
  58   30   57 1
  59   31   58 1
  60   31   59 1
  61   31   60 1

#	End of record

