#	Name: ASD02150008
#	Creating user name:	WinNT
#	Creation time:	15. 06. 2019 20:18

#	Modifying user name:	WinNT
#	Modification time:	15. 06. 2019 20:18

#	Program:	/corina/corina34_cracker 3.40 0067  02.08.2006

@<TRIPOS>MOLECULE
ASD02150008
  58   63    0    0    0
SMALL
NO_CHARGES


@<TRIPOS>ATOM
   1 C1            -0.0178     1.4634     0.0101 C.3     
   2 N2             0.0021    -0.0041     0.0020 N.am    
   3 C3             1.3184    -0.4465    -0.0857 C.2     
   4 C4             2.2133     0.5624    -0.0850 C.2     
   5 C5             1.4646     1.8738    -0.0019 C.3     
   6 C6            -0.6629     1.4656     1.3938 C.3     
   7 C7            -0.6296    -0.0260     1.1935 C.2     
   8 O8            -1.0354    -0.9425     1.8765 O.2     
   9 C9             0.2473     1.9729     2.5141 C.3     
  10 C10           -0.5073     1.9276     3.8443 C.3     
  11 O11            1.4084     1.1440     2.5966 O.3     
  12 C12            3.6734     0.4125    -0.1535 C.ar    
  13 C13            4.3735     0.8929    -1.2641 C.ar    
  14 C14            5.7454     0.7530    -1.3307 C.ar    
  15 C15            6.4357     0.1334    -0.2925 C.ar    
  16 C16            5.7388    -0.3531     0.8292 C.ar    
  17 C17            4.3646    -0.2077     0.8982 C.ar    
  18 C18            7.8749    -0.1530    -0.0898 C.2     
  19 C19            8.0038    -0.8390     1.2169 C.ar    
  20 C20            6.7178    -0.9591     1.7694 C.ar    
  21 C21            9.1038    -1.3328     1.9091 C.ar    
  22 C22            8.9277    -1.9412     3.1408 C.ar    
  23 C23            7.6634    -2.0594     3.6843 C.ar    
  24 C24            6.5584    -1.5713     3.0044 C.ar    
  25 O25            8.7794     0.1225    -0.8521 O.2     
  26 C26           10.1202    -2.4767     3.8906 C.3     
  27 N27           10.6618    -1.4287     4.7592 N.pl3   
  28 C28           10.2919    -1.2044     6.0288 C.2     
  29 C29           11.0084    -0.1632     6.4937 C.2     
  30 C30           11.5844    -0.5697     4.4215 C.cat   
  31 C31            1.6939    -1.8638    -0.1697 C.2     
  32 O32            2.8738    -2.1809    -0.2447 O.co2   
  33 O33            0.8270    -2.7279    -0.1648 O.co2   
  34 N34           11.8259     0.2421     5.4734 N.pl3   
  35 C35           12.7872     1.3468     5.5162 C.3     
  36 H36           -0.6106     1.9225    -0.7811 H       
  37 H37            1.6819     2.4927    -0.8724 H       
  38 H38            1.7215     2.4019     0.9164 H       
  39 H39           -1.6650     1.8935     1.4223 H       
  40 H40            0.5478     2.9989     2.3016 H       
  41 H41           -0.8078     0.9016     4.0567 H       
  42 H42            0.1412     2.2890     4.6424 H       
  43 H43           -1.3929     2.5599     3.7813 H       
  44 H44            1.2159     0.2150     2.7840 H       
  45 H45            3.8405     1.3737    -2.0711 H       
  46 H46            6.2840     1.1247    -2.1898 H       
  47 H47            3.8238    -0.5789     1.7563 H       
  48 H48           10.0937    -1.2424     1.4869 H       
  49 H49            7.5349    -2.5352     4.6453 H       
  50 H50            5.5731    -1.6672     3.4362 H       
  51 H51            9.8150    -3.3295     4.4970 H       
  52 H52           10.8848    -2.7911     3.1803 H       
  53 H53            9.5493    -1.7609     6.5812 H       
  54 H54           10.9489     0.2693     7.4816 H       
  55 H55           12.0719    -0.5152     3.4594 H       
  56 H56           13.7544     0.9740     5.8534 H       
  57 H57           12.8908     1.7770     4.5201 H       
  58 H58           12.4316     2.1113     6.2070 H       
@<TRIPOS>BOND
   1    1    2 1
   2    1    5 1
   3    1    6 1
   4    1   36 1
   5    2    3 1
   6    2    7 am
   7    3    4 2
   8    3   31 1
   9    4    5 1
  10    4   12 1
  11    5   37 1
  12    5   38 1
  13    6    7 1
  14    6    9 1
  15    6   39 1
  16    7    8 2
  17    9   10 1
  18    9   11 1
  19    9   40 1
  20   10   41 1
  21   10   42 1
  22   10   43 1
  23   11   44 1
  24   12   13 ar
  25   12   17 ar
  26   13   14 ar
  27   13   45 1
  28   14   15 ar
  29   14   46 1
  30   15   16 ar
  31   15   18 1
  32   16   17 ar
  33   16   20 1
  34   17   47 1
  35   18   19 1
  36   18   25 2
  37   19   20 ar
  38   19   21 ar
  39   20   24 ar
  40   21   22 ar
  41   21   48 1
  42   22   23 ar
  43   22   26 1
  44   23   24 ar
  45   23   49 1
  46   24   50 1
  47   26   27 1
  48   26   51 1
  49   26   52 1
  50   27   28 1
  51   27   30 ar
  52   28   29 2
  53   28   53 1
  54   29   34 1
  55   29   54 1
  56   30   34 ar
  57   30   55 1
  58   31   32 ar
  59   31   33 ar
  60   34   35 1
  61   35   56 1
  62   35   57 1
  63   35   58 1

#	End of record

