#	Name: ASD01915730
#	Creating user name:	WinNT
#	Creation time:	15. 06. 2019 20:06

#	Modifying user name:	WinNT
#	Modification time:	15. 06. 2019 20:06

#	Program:	/corina/corina34_cracker 3.40 0067  02.08.2006

@<TRIPOS>MOLECULE
ASD01915730
  43   46    0    0    0
SMALL
NO_CHARGES


@<TRIPOS>ATOM
   1 C1            -0.0043     1.4626     0.2165 C.2     
   2 N2             0.0612     0.1092    -0.0286 N.pl3   
   3 C3            -1.1516    -0.6750    -0.2910 C.3     
   4 C4            -2.3300    -0.0461     0.4507 C.3     
   5 N5            -2.4043     1.3988     0.2637 N.am    
   6 C6            -1.2915     2.1719     0.2666 C.2     
   7 C7             1.2786     1.8998     0.3918 C.2     
   8 C8             2.0744     0.7549     0.2509 C.2     
   9 N9             1.2809    -0.2624     0.0090 N.2     
  10 C10            3.5766     0.7012     0.3583 C.3     
  11 O11            4.0819     2.0101     0.6294 O.3     
  12 C12            5.4294     2.1373     0.7567 C.ar    
  13 O13           -1.3538     3.3859     0.3087 O.2     
  14 C14            5.9876     3.3795     1.0201 C.ar    
  15 C15            6.2469     1.0241     0.6290 C.ar    
  16 C16            7.6161     1.1548     0.7586 C.ar    
  17 C17            8.1723     2.3962     1.0163 C.ar    
  18 C18            7.3571     3.5074     1.1493 C.ar    
  19 C19           -3.6482     1.9976     0.0778 C.ar    
  20 N20           -3.7244     3.2616    -0.3200 N.ar    
  21 C21           -4.8118     1.2701     0.3033 C.ar    
  22 N22           -5.9911     1.8376     0.1267 N.ar    
  23 C23           -6.0693     3.0967    -0.2643 C.ar    
  24 C24           -4.9099     3.8276    -0.4962 C.ar    
  25 F25            9.5114     2.5225     1.1437 F       
  26 O26           -4.9917     5.1211    -0.8974 O.3     
  27 C27           -3.7599     5.8114    -1.1169 C.3     
  28 H28           -1.3567    -0.6807    -1.3615 H       
  29 H29           -1.0063    -1.6975     0.0576 H       
  30 H30           -3.2545    -0.4960     0.0888 H       
  31 H31           -2.2302    -0.2588     1.5150 H       
  32 H32            1.6076     2.9082     0.5947 H       
  33 H33            3.8592     0.0278     1.1675 H       
  34 H34            3.9952     0.3373    -0.5801 H       
  35 H35            5.3519     4.2464     1.1239 H       
  36 H36            5.8133     0.0555     0.4287 H       
  37 H37            8.2529     0.2882     0.6592 H       
  38 H38            7.7922     4.4752     1.3503 H       
  39 H39           -4.7510     0.2402     0.6227 H       
  40 H40           -7.0353     3.5577    -0.4082 H       
  41 H41           -3.1827     5.8274    -0.1925 H       
  42 H42           -3.1899     5.2997    -1.8924 H       
  43 H43           -3.9677     6.8335    -1.4334 H       
@<TRIPOS>BOND
   1    1    2 1
   2    1    7 2
   3    1    6 1
   4    2    3 1
   5    2    9 1
   6    3    4 1
   7    3   28 1
   8    3   29 1
   9    4    5 1
  10    4   30 1
  11    4   31 1
  12    5    6 am
  13    5   19 1
  14    6   13 2
  15    7    8 1
  16    7   32 1
  17    8    9 2
  18    8   10 1
  19   10   11 1
  20   10   33 1
  21   10   34 1
  22   11   12 1
  23   12   14 ar
  24   12   15 ar
  25   14   18 ar
  26   14   35 1
  27   15   16 ar
  28   15   36 1
  29   16   17 ar
  30   16   37 1
  31   17   18 ar
  32   17   25 1
  33   18   38 1
  34   19   20 ar
  35   19   21 ar
  36   20   24 ar
  37   21   22 ar
  38   21   39 1
  39   22   23 ar
  40   23   24 ar
  41   23   40 1
  42   24   26 1
  43   26   27 1
  44   27   41 1
  45   27   42 1
  46   27   43 1

#	End of record

