#	Name: ASD01028759
#	Creating user name:	WinNT
#	Creation time:	15. 06. 2019 18:58

#	Modifying user name:	WinNT
#	Modification time:	15. 06. 2019 18:58

#	Program:	/corina/corina34_cracker 3.40 0067  02.08.2006

@<TRIPOS>MOLECULE
ASD01028759
  29   31    0    0    0
SMALL
NO_CHARGES


@<TRIPOS>ATOM
   1 N1            -0.0157     1.3058     0.0092 N.ar    
   2 C2             0.0021    -0.0041     0.0020 C.ar    
   3 C3             1.2047    -0.7196    -0.0129 C.ar    
   4 C4             2.3983    -0.0476    -0.0206 C.ar    
   5 C5             2.3699     1.3597    -0.0132 C.ar    
   6 N6             3.4995     2.0727    -0.0197 N.ar    
   7 C7             3.4781     3.3843    -0.0124 C.ar    
   8 C8             2.2813     4.0950     0.0022 C.ar    
   9 C9             1.0888     3.4259     0.0095 C.ar    
  10 C10            1.1149     2.0165     0.0022 C.ar    
  11 Cl11          -0.4172     4.2892     0.0284 Cl      
  12 O12            1.1884    -2.0780    -0.0191 O.3     
  13 C13           -0.0924    -2.7115    -0.0099 C.3     
  14 C14            0.0898    -4.2305    -0.0188 C.3     
  15 N15           -1.2234    -4.8800    -0.0094 N.pl3   
  16 N16           -2.2551    -4.6791     0.9221 N.2     
  17 C17           -3.2457    -5.4515     0.5608 C.2     
  18 N18           -2.8949    -6.1202    -0.5370 N.2     
  19 C19           -1.6824    -5.7822    -0.8939 C.2     
  20 H20           -0.9331    -0.5443     0.0081 H       
  21 H21            3.3360    -0.5833    -0.0318 H       
  22 H22            4.4122     3.9262    -0.0177 H       
  23 H23            2.2946     5.1749     0.0082 H       
  24 H24           -0.6374    -2.4162     0.8867 H       
  25 H25           -0.6544    -2.4077    -0.8931 H       
  26 H26            0.6347    -4.5258    -0.9155 H       
  27 H27            0.6517    -4.5343     0.8644 H       
  28 H28           -4.1946    -5.5347     1.0699 H       
  29 H29           -1.1434    -6.1634    -1.7486 H       
@<TRIPOS>BOND
   1    1    2 ar
   2    1   10 ar
   3    2    3 ar
   4    2   20 1
   5    3    4 ar
   6    3   12 1
   7    4    5 ar
   8    4   21 1
   9    5    6 ar
  10    5   10 ar
  11    6    7 ar
  12    7    8 ar
  13    7   22 1
  14    8    9 ar
  15    8   23 1
  16    9   10 ar
  17    9   11 1
  18   12   13 1
  19   13   14 1
  20   13   24 1
  21   13   25 1
  22   14   15 1
  23   14   26 1
  24   14   27 1
  25   15   16 1
  26   15   19 1
  27   16   17 2
  28   17   18 1
  29   17   28 1
  30   18   19 2
  31   19   29 1

#	End of record

