#	Name: ASD08150610
#	Creating user name:	WinNT
#	Creation time:	15. 06. 2019 21:16

#	Modifying user name:	WinNT
#	Modification time:	15. 06. 2019 21:16

#	Program:	/corina/corina34_cracker 3.40 0067  02.08.2006

@<TRIPOS>MOLECULE
ASD08150610
  65   70    0    0    0
SMALL
NO_CHARGES


@<TRIPOS>ATOM
   1 N1             0.2753     1.8467     0.1245 N.am    
   2 C2             0.8742     1.3354     1.2176 C.2     
   3 C3             2.1963     0.8500     1.1581 C.2     
   4 C4             2.8876     0.8920    -0.0093 C.2     
   5 C5             2.2606     1.4289    -1.1616 C.ar    
   6 C6             2.9328     1.4953    -2.3972 C.ar    
   7 N7             2.3521     1.9910    -3.4584 N.ar    
   8 C8             1.0954     2.4606    -3.4354 C.ar    
   9 C9             0.3436     2.4329    -2.2350 C.ar    
  10 C10            0.9435     1.9036    -1.0685 C.ar    
  11 C11           -0.9650     2.9260    -2.2213 C.ar    
  12 C12           -1.5133     3.4378    -3.3860 C.ar    
  13 C13           -0.7633     3.4614    -4.5702 C.ar    
  14 C14            0.5102     2.9852    -4.5995 C.ar    
  15 O15            0.2646     1.2922     2.2726 O.2     
  16 C16           -2.9007     3.9629    -3.3802 C.2     
  17 C17           -1.0388     2.3168     0.2081 C.ar    
  18 C18           -1.2813     3.6797     0.3380 C.ar    
  19 C19           -2.5756     4.1457     0.4201 C.ar    
  20 C20           -3.6429     3.2486     0.3726 C.ar    
  21 C21           -3.3969     1.8820     0.2422 C.ar    
  22 C22           -2.1006     1.4214     0.1552 C.ar    
  23 C23           -5.0358     3.7469     0.4612 C.ar    
  24 C24           -5.4208     4.5542     1.5324 C.ar    
  25 C25           -6.7141     5.0175     1.6155 C.ar    
  26 C26           -3.4595     4.6299    -4.4691 C.2     
  27 C27           -5.9600     3.4133    -0.5297 C.ar    
  28 C28           -7.2536     3.8763    -0.4489 C.ar    
  29 C29           -7.6417     4.6796     0.6266 C.ar    
  30 C30           -9.0297     5.1766     0.7145 C.2     
  31 N31           -9.4035     5.9514     1.7520 N.am    
  32 O32           -9.8350     4.8868    -0.1489 O.2     
  33 C33          -10.7803     6.4444     1.8393 C.3     
  34 C34          -10.9390     7.2932     3.1023 C.3     
  35 C35           -4.7152     5.0337    -4.2948 C.2     
  36 S36           -5.2749     4.5765    -2.6921 S.3     
  37 C37           -3.7257     3.8296    -2.3253 C.2     
  38 N38          -12.3196     7.7876     3.1898 N.3     
  39 C39           -4.5475     0.9101     0.1912 C.3     
  40 F40           -4.0543    -0.3987     0.2235 F       
  41 F41           -5.3847     1.1203     1.2921 F       
  42 F42           -5.2718     1.1065    -0.9896 F       
  43 H43            2.6609     0.4438     2.0444 H       
  44 H44            3.9010     0.5219    -0.0594 H       
  45 H45            3.9467     1.1304    -2.4694 H       
  46 H46           -1.5438     2.9076    -1.3097 H       
  47 H47           -1.2030     3.8625    -5.4714 H       
  48 H48            1.0739     3.0118    -5.5204 H       
  49 H49           -0.4547     4.3738     0.3751 H       
  50 H50           -2.7634     5.2044     0.5214 H       
  51 H51           -1.9098     0.3637     0.0501 H       
  52 H52           -4.7037     4.8152     2.2966 H       
  53 H53           -7.0121     5.6417     2.4449 H       
  54 H54           -2.9144     4.8060    -5.3847 H       
  55 H55           -5.6600     2.7918    -1.3605 H       
  56 H56           -7.9687     3.6180    -1.2159 H       
  57 H57           -8.7610     6.1826     2.4410 H       
  58 H58          -11.0050     7.0519     0.9626 H       
  59 H59          -11.4670     5.5989     1.8811 H       
  60 H60          -10.7143     6.6857     3.9790 H       
  61 H61          -10.2523     8.1387     3.0604 H       
  62 H62           -5.3034     5.5641    -5.0290 H       
  63 H63           -3.4735     3.3430    -1.3946 H       
  64 H64          -12.9791     7.0244     3.1650 H       
  65 H65          -12.4500     8.3515     4.0163 H       
@<TRIPOS>BOND
   1    1    2 am
   2    1   10 1
   3    1   17 1
   4    2    3 1
   5    2   15 2
   6    3    4 2
   7    3   43 1
   8    4    5 1
   9    4   44 1
  10    5    6 ar
  11    5   10 ar
  12    6    7 ar
  13    6   45 1
  14    7    8 ar
  15    8    9 ar
  16    8   14 ar
  17    9   10 ar
  18    9   11 ar
  19   11   12 ar
  20   11   46 1
  21   12   13 ar
  22   12   16 1
  23   13   14 ar
  24   13   47 1
  25   14   48 1
  26   16   26 1
  27   16   37 2
  28   17   18 ar
  29   17   22 ar
  30   18   19 ar
  31   18   49 1
  32   19   20 ar
  33   19   50 1
  34   20   21 ar
  35   20   23 1
  36   21   22 ar
  37   21   39 1
  38   22   51 1
  39   23   24 ar
  40   23   27 ar
  41   24   25 ar
  42   24   52 1
  43   25   29 ar
  44   25   53 1
  45   26   35 2
  46   26   54 1
  47   27   28 ar
  48   27   55 1
  49   28   29 ar
  50   28   56 1
  51   29   30 1
  52   30   31 am
  53   30   32 2
  54   31   33 1
  55   31   57 1
  56   33   34 1
  57   33   58 1
  58   33   59 1
  59   34   38 1
  60   34   60 1
  61   34   61 1
  62   35   36 1
  63   35   62 1
  64   36   37 1
  65   37   63 1
  66   38   64 1
  67   38   65 1
  68   39   40 1
  69   39   41 1
  70   39   42 1

#	End of record

