#	Name: ASD05313006
#	Creating user name:	WinNT
#	Creation time:	15. 06. 2019 20:58

#	Modifying user name:	WinNT
#	Modification time:	15. 06. 2019 20:58

#	Program:	/corina/corina34_cracker 3.40 0067  02.08.2006

@<TRIPOS>MOLECULE
ASD05313006
  32   34    0    0    0
SMALL
NO_CHARGES


@<TRIPOS>ATOM
   1 C1            -0.0720     0.8160     1.0258 C.2     
   2 C2             0.1142    -0.6198     0.5978 C.3     
   3 N3             0.9298     1.7313     1.0524 N.pl3   
   4 N4             1.4575    -0.7185    -0.0040 N.am    
   5 C5             2.5712    -0.0361     0.6721 C.3     
   6 C6             2.3165     1.4759     0.6650 C.3     
   7 N7            -0.8904     2.6388     1.7080 N.2     
   8 N8            -1.1537     1.4080     1.4288 N.2     
   9 C9             0.3775     2.8791     1.4931 C.2     
  10 C10            1.6584    -1.4144    -1.1406 C.2     
  11 O11            2.7501    -1.4032    -1.6752 O.2     
  12 C12            0.5517    -2.1911    -1.7368 C.ar    
  13 C13            0.3206    -2.1401    -3.1140 C.ar    
  14 C14           -0.7158    -2.8688    -3.6638 C.ar    
  15 C15           -1.5235    -3.6467    -2.8543 C.ar    
  16 C16           -1.2999    -3.7009    -1.4898 C.ar    
  17 C17           -0.2643    -2.9836    -0.9278 C.ar    
  18 C18           -0.9674    -2.8157    -5.1487 C.3     
  19 F19           -2.0606    -3.6291    -5.4658 F       
  20 F20           -1.2413    -1.4974    -5.5285 F       
  21 F21            0.1661    -3.2714    -5.8304 F       
  22 Cl22           1.3331    -1.1630    -4.1308 Cl      
  23 H23            0.0452    -1.2781     1.4639 H       
  24 H24           -0.6437    -0.8901    -0.1375 H       
  25 H25            2.6431    -0.3883     1.7011 H       
  26 H26            3.5021    -0.2508     0.1473 H       
  27 H27            2.4937     1.8704    -0.3355 H       
  28 H28            2.9878     1.9617     1.3732 H       
  29 H29            0.8865     3.8198     1.6432 H       
  30 H30           -2.3329    -4.2144    -3.2892 H       
  31 H31           -1.9350    -4.3100    -0.8637 H       
  32 H32           -0.0882    -3.0313     0.1367 H       
@<TRIPOS>BOND
   1    1    2 1
   2    1    3 1
   3    1    8 2
   4    2    4 1
   5    2   23 1
   6    2   24 1
   7    3    6 1
   8    3    9 1
   9    4    5 1
  10    4   10 am
  11    5    6 1
  12    5   25 1
  13    5   26 1
  14    6   27 1
  15    6   28 1
  16    7    8 1
  17    7    9 2
  18    9   29 1
  19   10   11 2
  20   10   12 1
  21   12   13 ar
  22   12   17 ar
  23   13   14 ar
  24   13   22 1
  25   14   15 ar
  26   14   18 1
  27   15   16 ar
  28   15   30 1
  29   16   17 ar
  30   16   31 1
  31   17   32 1
  32   18   19 1
  33   18   20 1
  34   18   21 1

#	End of record

