#	Name: ASD01884680
#	Creating user name:	WinNT
#	Creation time:	15. 06. 2019 19:48

#	Modifying user name:	WinNT
#	Modification time:	15. 06. 2019 19:48

#	Program:	/corina/corina34_cracker 3.40 0067  02.08.2006

@<TRIPOS>MOLECULE
ASD01884680
  38   40    0    0    0
SMALL
NO_CHARGES


@<TRIPOS>ATOM
   1 C1            -0.0164     1.3575     0.0095 C.2     
   2 C2             0.0021    -0.0041     0.0020 C.2     
   3 C3             1.2441    -0.6750    -0.0134 C.2     
   4 C4             2.4025     0.0466    -0.0206 C.2     
   5 N5             2.3701     1.4022    -0.0130 N.am    
   6 C6             1.1987     2.0651     0.0017 C.2     
   7 O7             1.1913     3.2855     0.0083 O.2     
   8 C8             1.2899    -2.1582    -0.0214 C.ar    
   9 C9             3.6267     2.1553    -0.0210 C.3     
  10 C10            4.0440     2.4211    -1.4444 C.ar    
  11 C11            3.6201     3.5697    -2.0858 C.ar    
  12 C12            4.0030     3.8136    -3.3917 C.ar    
  13 C13            4.8099     2.9090    -4.0558 C.ar    
  14 C14            5.2346     1.7605    -3.4139 C.ar    
  15 C15            4.8555     1.5188    -2.1069 C.ar    
  16 C16            0.8129    -2.8782     1.0722 C.ar    
  17 C17            1.8047    -2.8358    -1.1248 C.ar    
  18 C18            1.8448    -4.2152    -1.1276 C.ar    
  19 C19            1.3745    -4.9258    -0.0365 C.ar    
  20 C20            0.8573    -4.2574     1.0599 C.ar    
  21 C21            6.1140     0.7739    -4.1380 C.3     
  22 F22            6.3627     1.2354    -5.4351 F       
  23 F23            7.3253     0.6374    -3.4515 F       
  24 F24            5.4705    -0.4667    -4.1998 F       
  25 Cl25           1.4276    -6.6609    -0.0460 Cl      
  26 H26           -0.9563     1.8894     0.0169 H       
  27 H27           -0.9217    -0.5636     0.0082 H       
  28 H28            3.3529    -0.4662    -0.0321 H       
  29 H29            3.4858     3.1027     0.4993 H       
  30 H30            4.4007     1.5759     0.4824 H       
  31 H31            2.9896     4.2766    -1.5670 H       
  32 H32            3.6712     4.7108    -3.8931 H       
  33 H33            5.1083     3.0992    -5.0761 H       
  34 H34            5.1872     0.6216    -1.6055 H       
  35 H35            0.4095    -2.3576     1.9282 H       
  36 H36            2.1715    -2.2823    -1.9766 H       
  37 H37            2.2433    -4.7412    -1.9825 H       
  38 H38            0.4920    -4.8161     1.9089 H       
@<TRIPOS>BOND
   1    1    2 2
   2    1    6 1
   3    1   26 1
   4    2    3 1
   5    2   27 1
   6    3    4 2
   7    3    8 1
   8    4    5 1
   9    4   28 1
  10    5    6 am
  11    5    9 1
  12    6    7 2
  13    8   16 ar
  14    8   17 ar
  15    9   10 1
  16    9   29 1
  17    9   30 1
  18   10   11 ar
  19   10   15 ar
  20   11   12 ar
  21   11   31 1
  22   12   13 ar
  23   12   32 1
  24   13   14 ar
  25   13   33 1
  26   14   15 ar
  27   14   21 1
  28   15   34 1
  29   16   20 ar
  30   16   35 1
  31   17   18 ar
  32   17   36 1
  33   18   19 ar
  34   18   37 1
  35   19   20 ar
  36   19   25 1
  37   20   38 1
  38   21   22 1
  39   21   23 1
  40   21   24 1

#	End of record

