#	Name: ASD02030169
#	Creating user name:	WinNT
#	Creation time:	15. 06. 2019 20:14

#	Modifying user name:	WinNT
#	Modification time:	15. 06. 2019 20:14

#	Program:	/corina/corina34_cracker 3.40 0067  02.08.2006

@<TRIPOS>MOLECULE
ASD02030169
  55   58    0    0    0
SMALL
NO_CHARGES


@<TRIPOS>ATOM
   1 N1            -0.1133     1.6848    -0.2004 N.am    
   2 C2            -0.2074     0.2213    -0.2957 C.3     
   3 C3            -1.0358    -0.2946     0.8875 C.3     
   4 N4            -2.2751     0.4909     0.9711 N.am    
   5 C5            -2.1809     1.9544     1.0664 C.3     
   6 C6            -1.3525     2.4699    -0.1111 C.3     
   7 C7             1.0880     2.2956    -0.1894 C.2     
   8 C8             2.3263     1.4901    -0.1324 C.2     
   9 N9             3.5471     1.9573     0.0172 N.2     
  10 N10            2.4030     0.1494    -0.2187 N.2     
  11 C11            3.6674    -0.1748    -0.1250 C.2     
  12 N12            4.3710     0.9666     0.0222 N.pl3   
  13 O13            1.1534     3.5089    -0.2263 O.2     
  14 C14           -3.4764    -0.1200     0.9602 C.2     
  15 C15           -3.5551    -1.5993     0.9375 C.ar    
  16 O16           -4.4950     0.5426     0.9688 O.2     
  17 C17           -1.0125     3.9456     0.1072 C.3     
  18 C18           -2.1480     2.3091    -1.4081 C.3     
  19 C19            5.7628     1.0594     0.1573 C.ar    
  20 C20            6.3661     2.3010     0.3026 C.ar    
  21 C21            7.7394     2.3891     0.4361 C.ar    
  22 C22            8.5116     1.2409     0.4245 C.ar    
  23 C23            7.9123     0.0030     0.2799 C.ar    
  24 C24            6.5405    -0.0912     0.1519 C.ar    
  25 C25           -4.7544    -2.2204     0.6038 C.ar    
  26 Cl26           8.4955     3.9412     0.6178 Cl      
  27 N27           -2.4784    -2.3199     1.2309 N.ar    
  28 C28           -2.5061    -3.6391     1.2223 C.ar    
  29 C29           -3.6742    -4.3250     0.9029 C.ar    
  30 C30           -4.8161    -3.6078     0.5859 C.ar    
  31 O31           -1.3824    -4.3351     1.5280 O.3     
  32 C32           -0.2150    -3.5750     1.8467 C.3     
  33 Cl33          -6.2936    -4.4250     0.1823 Cl      
  34 H34           -0.6948    -0.0538    -1.2310 H       
  35 H35            0.7918    -0.2127    -0.2596 H       
  36 H36           -1.2787    -1.3460     0.7332 H       
  37 H37           -0.4668    -0.1797     1.8101 H       
  38 H38           -3.1802     2.3884     1.0303 H       
  39 H39           -1.6935     2.2295     2.0018 H       
  40 H40            4.0737    -1.1749    -0.1567 H       
  41 H41           -0.2683     4.0337     0.8987 H       
  42 H42           -0.6133     4.3668    -0.8155 H       
  43 H43           -1.9137     4.4875     0.3939 H       
  44 H44           -3.0740     2.8799    -1.3395 H       
  45 H45           -1.5555     2.6771    -2.2458 H       
  46 H46           -2.3812     1.2556    -1.5631 H       
  47 H47            5.7635     3.1973     0.3109 H       
  48 H48            9.5842     1.3116     0.5282 H       
  49 H49            8.5176    -0.8914     0.2709 H       
  50 H50            6.0735    -1.0585     0.0394 H       
  51 H51           -5.6265    -1.6311     0.3619 H       
  52 H52           -3.6890    -5.4049     0.8976 H       
  53 H53            0.6094    -4.2520     2.0709 H       
  54 H54            0.0520    -2.9460     0.9975 H       
  55 H55           -0.4160    -2.9473     2.7149 H       
@<TRIPOS>BOND
   1    1    2 1
   2    1    7 am
   3    1    6 1
   4    2    3 1
   5    2   34 1
   6    2   35 1
   7    3    4 1
   8    3   36 1
   9    3   37 1
  10    4    5 1
  11    4   14 am
  12    5    6 1
  13    5   38 1
  14    5   39 1
  15    6   17 1
  16    6   18 1
  17    7    8 1
  18    7   13 2
  19    8    9 2
  20    8   10 1
  21    9   12 1
  22   10   11 2
  23   11   12 1
  24   11   40 1
  25   12   19 1
  26   14   15 1
  27   14   16 2
  28   15   27 ar
  29   15   25 ar
  30   17   41 1
  31   17   42 1
  32   17   43 1
  33   18   44 1
  34   18   45 1
  35   18   46 1
  36   19   20 ar
  37   19   24 ar
  38   20   21 ar
  39   20   47 1
  40   21   22 ar
  41   21   26 1
  42   22   23 ar
  43   22   48 1
  44   23   24 ar
  45   23   49 1
  46   24   50 1
  47   25   30 ar
  48   25   51 1
  49   27   28 ar
  50   28   29 ar
  51   28   31 1
  52   29   30 ar
  53   29   52 1
  54   30   33 1
  55   31   32 1
  56   32   53 1
  57   32   54 1
  58   32   55 1

#	End of record

