#	Name: ASD01881997
#	Creating user name:	WinNT
#	Creation time:	15. 06. 2019 19:43

#	Modifying user name:	WinNT
#	Modification time:	15. 06. 2019 19:43

#	Program:	/corina/corina34_cracker 3.40 0067  02.08.2006

@<TRIPOS>MOLECULE
ASD01881997
  63   66    0    0    0
SMALL
NO_CHARGES


@<TRIPOS>ATOM
   1 N1            -0.0179     1.4666     0.0101 N.am    
   2 C2             0.0021    -0.0041     0.0020 C.3     
   3 C3             0.9085    -0.4723    -1.1414 C.3     
   4 N4             2.2251     0.1660    -1.0110 N.3     
   5 C5             2.1249     1.6258    -1.1417 C.3     
   6 C6             1.2683     2.1800     0.0017 C.3     
   7 C7            -1.1838     2.1425     0.0194 C.2     
   8 O8            -2.2372     1.5369     0.0211 O.2     
   9 O9            -1.1814     3.4889     0.0267 O.3     
  10 C10            3.1764    -0.3856    -1.9851 C.3     
  11 C11            4.4490     0.4638    -1.9925 C.3     
  12 C12            5.4397    -0.1108    -3.0069 C.3     
  13 O13            6.6283     0.6825    -3.0138 O.3     
  14 N14           10.7645    -0.6256    -6.3582 N.pl3   
  15 N15           11.6133     0.4221    -5.9713 N.2     
  16 N16           11.0320     1.1337    -5.0711 N.2     
  17 C17            9.8077     0.6387    -4.8007 C.ar    
  18 C18            9.6141    -0.4907    -5.6149 C.ar    
  19 C19            8.7899     1.0303    -3.9201 C.ar    
  20 C20            7.6177     0.3048    -3.8669 C.ar    
  21 C21            7.4404    -0.8119    -4.6801 C.ar    
  22 C22            8.4243    -1.2063    -5.5424 C.ar    
  23 C23           11.0449    -1.6565    -7.3606 C.3     
  24 C24           11.7126    -2.8562    -6.6854 C.3     
  25 C25           11.9805    -4.0925    -7.5461 C.3     
  26 C26           13.1426    -3.1990    -7.1079 C.3     
  27 Br27           9.0218     2.5449    -2.8120 Br      
  28 C28           -2.4739     4.1504     0.0364 C.3     
  29 C29           -3.2505     3.7339     1.2872 C.3     
  30 C30           -2.2707     5.6668     0.0437 C.3     
  31 C31           -3.2625     3.7475    -1.2112 C.3     
  32 H32            0.3920    -0.3702     0.9518 H       
  33 H33           -1.0081    -0.3831    -0.1529 H       
  34 H34            1.0231    -1.5553    -1.0945 H       
  35 H35            0.4625    -0.1944    -2.0963 H       
  36 H36            3.1216     2.0644    -1.0951 H       
  37 H37            1.6619     1.8745    -2.0966 H       
  38 H38            1.0953     3.2449    -0.1535 H       
  39 H39            1.7799     2.0238     0.9514 H       
  40 H40            3.4252    -1.4105    -1.7096 H       
  41 H41            2.7268    -0.3752    -2.9780 H       
  42 H42            4.2002     1.4886    -2.2679 H       
  43 H43            4.8985     0.4533    -0.9995 H       
  44 H44            5.6885    -1.1357    -2.7315 H       
  45 H45            4.9902    -0.1004    -3.9999 H       
  46 H46            6.5180    -1.3712    -4.6282 H       
  47 H47            8.2773    -2.0738    -6.1687 H       
  48 H48           10.1117    -1.9743    -7.8257 H       
  49 H49           11.7109    -1.2511    -8.1223 H       
  50 H50           11.4433    -3.0183    -5.6417 H       
  51 H51           11.8877    -5.0679    -7.0685 H       
  52 H52           11.6810    -4.0511    -8.5933 H       
  53 H53           13.6077    -2.5698    -7.8668 H       
  54 H54           13.8144    -3.5866    -6.3420 H       
  55 H55           -2.6887     4.0209     2.1760 H       
  56 H56           -4.2208     4.2305     1.2945 H       
  57 H57           -3.3953     2.6536     1.2820 H       
  58 H58           -1.7174     5.9635    -0.8473 H       
  59 H59           -3.2410     6.1634     0.0511 H       
  60 H60           -1.7089     5.9538     0.9326 H       
  61 H61           -3.4073     2.6671    -1.2164 H       
  62 H62           -4.2328     4.2440    -1.2039 H       
  63 H63           -2.7092     4.0442    -2.1023 H       
@<TRIPOS>BOND
   1    1    2 1
   2    1    6 1
   3    1    7 am
   4    2    3 1
   5    2   32 1
   6    2   33 1
   7    3    4 1
   8    3   34 1
   9    3   35 1
  10    4    5 1
  11    4   10 1
  12    5    6 1
  13    5   36 1
  14    5   37 1
  15    6   38 1
  16    6   39 1
  17    7    8 2
  18    7    9 1
  19    9   28 1
  20   10   11 1
  21   10   40 1
  22   10   41 1
  23   11   12 1
  24   11   42 1
  25   11   43 1
  26   12   13 1
  27   12   44 1
  28   12   45 1
  29   13   20 1
  30   14   15 1
  31   14   18 1
  32   14   23 1
  33   15   16 2
  34   16   17 1
  35   17   18 ar
  36   17   19 ar
  37   18   22 ar
  38   19   20 ar
  39   19   27 1
  40   20   21 ar
  41   21   22 ar
  42   21   46 1
  43   22   47 1
  44   23   24 1
  45   23   48 1
  46   23   49 1
  47   24   25 1
  48   24   26 1
  49   24   50 1
  50   25   26 1
  51   25   51 1
  52   25   52 1
  53   26   53 1
  54   26   54 1
  55   28   29 1
  56   28   31 1
  57   28   30 1
  58   29   55 1
  59   29   56 1
  60   29   57 1
  61   30   58 1
  62   30   59 1
  63   30   60 1
  64   31   61 1
  65   31   62 1
  66   31   63 1

#	End of record

