#	Name: ASD03730379
#	Creating user name:	WinNT
#	Creation time:	15. 06. 2019 20:44

#	Modifying user name:	WinNT
#	Modification time:	15. 06. 2019 20:44

#	Program:	/corina/corina34_cracker 3.40 0067  02.08.2006

@<TRIPOS>MOLECULE
ASD03730379
  64   70    0    0    0
SMALL
NO_CHARGES


@<TRIPOS>ATOM
   1 O1             0.3957     1.3717     0.2540 O.3     
   2 C2             0.5134    -0.0626     0.2985 C.3     
   3 O3             1.7653    -0.3243    -0.3623 O.3     
   4 C4             2.5199     0.7982    -0.1739 C.ar    
   5 C5             1.6772     1.8409     0.2040 C.ar    
   6 C6             3.8803     1.0177    -0.2955 C.ar    
   7 C7             4.4164     2.2770    -0.0442 C.ar    
   8 C8             3.5635     3.3129     0.3245 C.ar    
   9 C9             2.2074     3.0957     0.4527 C.ar    
  10 O10            5.7132     2.6970    -0.0887 O.3     
  11 C11            4.4237     4.5363     0.4955 C.3     
  12 C12            5.7442     4.1347    -0.1757 C.3     
  13 N13            3.6869     6.6740     0.8295 N.am    
  14 C14            3.8172     5.7516    -0.1448 C.2     
  15 C15            4.6171     4.9010     1.9375 C.ar    
  16 C16            5.1234     4.2306     3.0286 C.ar    
  17 C17            5.1715     4.8531     4.2632 C.ar    
  18 C18            4.7100     6.1498     4.3985 C.ar    
  19 C19            4.2011     6.8252     3.3089 C.ar    
  20 C20            4.1490     6.2065     2.0622 C.ar    
  21 O21            3.5060     5.8785    -1.3102 O.2     
  22 C22            3.1266     8.0113     0.6200 C.3     
  23 C23            1.6371     7.9729     0.8457 C.ar    
  24 C24            1.1255     8.2074     2.1055 C.ar    
  25 C25           -0.2541     8.1715     2.3128 C.ar    
  26 C26           -1.1077     7.8982     1.2425 C.ar    
  27 C27           -0.5833     7.6656    -0.0119 C.ar    
  28 C28            0.7854     7.7083    -0.2118 C.ar    
  29 C29           -0.8092     8.4212     3.6601 C.2     
  30 O30           -0.2454     7.9780     4.6415 O.2     
  31 N31           -1.9405     9.1404     3.8001 N.am    
  32 C32           -2.5773     9.2970     5.1166 C.3     
  33 C33           -2.8275    10.7888     5.3619 C.3     
  34 N34           -3.5863    11.3467     4.2346 N.3     
  35 C35           -2.8213    11.2618     2.9833 C.3     
  36 C36           -2.5675     9.7945     2.6416 C.3     
  37 C37           -3.9953    12.7307     4.5087 C.3     
  38 H38            0.5446    -0.4124     1.3304 H       
  39 H39           -0.3097    -0.5312    -0.2410 H       
  40 H40            4.5306     0.2062    -0.5870 H       
  41 H41            1.5575     3.9064     0.7473 H       
  42 H42            6.5956     4.5375     0.3729 H       
  43 H43            5.7641     4.4592    -1.2161 H       
  44 H44            5.4829     3.2179     2.9205 H       
  45 H45            5.5683     4.3276     5.1192 H       
  46 H46            4.7479     6.6357     5.3623 H       
  47 H47            3.8418     7.8373     3.4229 H       
  48 H48            3.5825     8.7102     1.3212 H       
  49 H49            3.3312     8.3351    -0.4005 H       
  50 H50            1.7913     8.4179     2.9294 H       
  51 H51           -2.1763     7.8686     1.3964 H       
  52 H52           -1.2425     7.4541    -0.8408 H       
  53 H53            1.1906     7.5301    -1.1969 H       
  54 H54           -3.5254     8.7595     5.1310 H       
  55 H55           -1.9186     8.9040     5.8911 H       
  56 H56           -3.3977    10.9155     6.2823 H       
  57 H57           -1.8732    11.3080     5.4504 H       
  58 H58           -3.3870    11.7315     2.1786 H       
  59 H59           -1.8671    11.7744     3.1050 H       
  60 H60           -1.9023     9.7302     1.7805 H       
  61 H61           -3.5147     9.3057     2.4134 H       
  62 H62           -3.1102    13.3454     4.6726 H       
  63 H63           -4.5552    13.1193     3.6581 H       
  64 H64           -4.6239    12.7542     5.3989 H       
@<TRIPOS>BOND
   1    1    2 1
   2    1    5 1
   3    2    3 1
   4    2   38 1
   5    2   39 1
   6    3    4 1
   7    4    5 ar
   8    4    6 ar
   9    5    9 ar
  10    6    7 ar
  11    6   40 1
  12    7    8 ar
  13    7   10 1
  14    8    9 ar
  15    8   11 1
  16    9   41 1
  17   10   12 1
  18   11   12 1
  19   11   14 1
  20   11   15 1
  21   12   42 1
  22   12   43 1
  23   13   14 am
  24   13   20 1
  25   13   22 1
  26   14   21 2
  27   15   16 ar
  28   15   20 ar
  29   16   17 ar
  30   16   44 1
  31   17   18 ar
  32   17   45 1
  33   18   19 ar
  34   18   46 1
  35   19   20 ar
  36   19   47 1
  37   22   23 1
  38   22   48 1
  39   22   49 1
  40   23   24 ar
  41   23   28 ar
  42   24   25 ar
  43   24   50 1
  44   25   26 ar
  45   25   29 1
  46   26   27 ar
  47   26   51 1
  48   27   28 ar
  49   27   52 1
  50   28   53 1
  51   29   30 2
  52   29   31 am
  53   31   32 1
  54   31   36 1
  55   32   33 1
  56   32   54 1
  57   32   55 1
  58   33   34 1
  59   33   56 1
  60   33   57 1
  61   34   35 1
  62   34   37 1
  63   35   36 1
  64   35   58 1
  65   35   59 1
  66   36   60 1
  67   36   61 1
  68   37   62 1
  69   37   63 1
  70   37   64 1

#	End of record

