#	Name: ASD00170641
#	Creating user name:	WinNT
#	Creation time:	15. 06. 2019 18:32

#	Modifying user name:	WinNT
#	Modification time:	15. 06. 2019 18:32

#	Program:	/corina/corina34_cracker 3.40 0067  02.08.2006

@<TRIPOS>MOLECULE
ASD00170641
  41   45    0    0    0
SMALL
NO_CHARGES


@<TRIPOS>ATOM
   1 C1            -0.0115     1.2184     0.0106 C.2     
   2 O2            -0.0016     0.0011    -0.0249 O.2     
   3 C3             5.0993     1.5364     0.2238 C.3     
   4 C4             3.6605     1.9839     0.1351 C.ar    
   5 C5             2.4771     1.2830     0.1195 C.ar    
   6 C6             1.2625     1.9676     0.0282 C.ar    
   7 C7             1.2562     3.3628    -0.0469 C.ar    
   8 C8             2.4417     4.0601    -0.0310 C.ar    
   9 C9             3.6579     3.3760     0.0603 C.ar    
  10 C10            5.0545     3.8741     0.0963 C.ar    
  11 C11            5.5691     5.1719     0.0502 C.ar    
  12 C12            6.9322     5.3743     0.1010 C.ar    
  13 C13            7.7940     4.2962     0.1976 C.ar    
  14 C14            7.2916     3.0079     0.2438 C.ar    
  15 C15            5.9301     2.7957     0.1936 C.ar    
  16 C16           -3.0851     3.0649    -0.9064 C.2     
  17 C17           -1.9409     2.4449    -1.1742 C.2     
  18 C18           -1.2843     1.9392     0.0296 C.2     
  19 C19           -1.9812     2.2081     1.1767 C.2     
  20 S20           -3.4116     3.0589     0.8264 S.3     
  21 C21           -1.6721     2.4575    -2.6765 C.3     
  22 C22           -2.5945     3.5593    -3.2353 C.3     
  23 C23           -3.7265     3.5772    -2.1907 C.3     
  24 N24           -1.5781     1.8393     2.4441 N.pl3   
  25 H25            5.2680     0.9978     1.1563 H       
  26 H26            5.3481     0.9020    -0.6269 H       
  27 H27            2.4867     0.2046     0.1773 H       
  28 H28            0.3189     3.8947    -0.1179 H       
  29 H29            2.4333     5.1385    -0.0896 H       
  30 H30            4.8999     6.0162    -0.0256 H       
  31 H31            7.3287     6.3782     0.0649 H       
  32 H32            8.8607     4.4606     0.2367 H       
  33 H33            7.9662     2.1679     0.3192 H       
  34 H34           -0.6280     2.7016    -2.8728 H       
  35 H35           -1.9256     1.4923    -3.1151 H       
  36 H36           -2.0810     4.5202    -3.2661 H       
  37 H37           -2.9736     3.2888    -4.2208 H       
  38 H38           -4.5330     2.9137    -2.5027 H       
  39 H39           -4.1017     4.5908    -2.0491 H       
  40 H40           -0.7869     1.2904     2.5610 H       
  41 H41           -2.0861     2.1290     3.2181 H       
@<TRIPOS>BOND
   1    1    2 2
   2    1    6 1
   3    1   18 1
   4    3    4 1
   5    3   15 1
   6    3   25 1
   7    3   26 1
   8    4    5 ar
   9    4    9 ar
  10    5    6 ar
  11    5   27 1
  12    6    7 ar
  13    7    8 ar
  14    7   28 1
  15    8    9 ar
  16    8   29 1
  17    9   10 1
  18   10   11 ar
  19   10   15 ar
  20   11   12 ar
  21   11   30 1
  22   12   13 ar
  23   12   31 1
  24   13   14 ar
  25   13   32 1
  26   14   15 ar
  27   14   33 1
  28   16   17 2
  29   16   20 1
  30   16   23 1
  31   17   18 1
  32   17   21 1
  33   18   19 2
  34   19   20 1
  35   19   24 1
  36   21   22 1
  37   21   34 1
  38   21   35 1
  39   22   23 1
  40   22   36 1
  41   22   37 1
  42   23   38 1
  43   23   39 1
  44   24   40 1
  45   24   41 1

#	End of record

