#	Name: ASD02500913
#	Creating user name:	WinNT
#	Creation time:	15. 06. 2019 20:23

#	Modifying user name:	WinNT
#	Modification time:	15. 06. 2019 20:23

#	Program:	/corina/corina34_cracker 3.40 0067  02.08.2006

@<TRIPOS>MOLECULE
ASD02500913
  40   43    0    0    0
SMALL
NO_CHARGES


@<TRIPOS>ATOM
   1 C1             0.0232     1.2175     0.4899 C.2     
   2 C2            -0.0215     0.1046    -0.3717 C.2     
   3 C3            -1.3183    -0.5374    -0.6409 C.ar    
   4 C4            -2.4704     0.1486    -0.2065 C.ar    
   5 O5            -2.3809     1.3547     0.4008 O.3     
   6 C6            -1.2561     1.6870     1.0757 C.2     
   7 C7            -1.4241    -1.7628    -1.2886 C.ar    
   8 C8            -2.6705    -2.3158    -1.4976 C.ar    
   9 C9            -3.8068    -1.6515    -1.0621 C.ar    
  10 C10           -3.7134    -0.4329    -0.4232 C.ar    
  11 C11            1.2973     1.7187     0.6562 C.2     
  12 C12            2.2480     1.0531    -0.0345 C.2     
  13 S13            1.5275    -0.2694    -0.9417 S.3     
  14 C14            3.6769     1.3858    -0.0286 C.2     
  15 N15            4.5969     0.4046     0.0572 N.am    
  16 O16            4.0314     2.5476    -0.1011 O.2     
  17 O17           -1.2917     2.3313     2.1072 O.2     
  18 C18            6.0295     0.7096    -0.0581 C.3     
  19 C19           -2.7971    -3.6429    -2.2004 C.3     
  20 C20            4.1866    -0.9894     0.2738 C.3     
  21 C21            4.8102    -1.8625    -0.8197 C.3     
  22 C22            6.3255    -1.6485    -0.8356 C.3     
  23 C23            6.6366    -0.1786    -1.1486 C.3     
  24 H24           -0.5369    -2.2780    -1.6260 H       
  25 H25           -4.7783    -2.0940    -1.2259 H       
  26 H26           -4.6089     0.0703    -0.0896 H       
  27 H27            1.5157     2.5699     1.2840 H       
  28 H28            6.1595     1.7581    -0.3264 H       
  29 H29            6.5233     0.5098     0.8929 H       
  30 H30           -2.7641    -4.4476    -1.4659 H       
  31 H31           -3.7445    -3.6803    -2.7382 H       
  32 H32           -1.9742    -3.7606    -2.9055 H       
  33 H33            4.5335    -1.3248     1.2512 H       
  34 H34            3.1002    -1.0625     0.2244 H       
  35 H35            4.5930    -2.9110    -0.6161 H       
  36 H36            4.3935    -1.5855    -1.7881 H       
  37 H37            6.7383    -1.9021     0.1408 H       
  38 H38            6.7745    -2.2870    -1.5964 H       
  39 H39            6.2033     0.0876    -2.1127 H       
  40 H40            7.7165    -0.0345    -1.1822 H       
@<TRIPOS>BOND
   1    1    2 2
   2    1   11 1
   3    1    6 1
   4    2    3 1
   5    2   13 1
   6    3    4 ar
   7    3    7 ar
   8    4    5 1
   9    4   10 ar
  10    5    6 1
  11    6   17 2
  12    7    8 ar
  13    7   24 1
  14    8    9 ar
  15    8   19 1
  16    9   10 ar
  17    9   25 1
  18   10   26 1
  19   11   12 2
  20   11   27 1
  21   12   13 1
  22   12   14 1
  23   14   15 am
  24   14   16 2
  25   15   20 1
  26   15   18 1
  27   18   23 1
  28   18   28 1
  29   18   29 1
  30   19   30 1
  31   19   31 1
  32   19   32 1
  33   20   21 1
  34   20   33 1
  35   20   34 1
  36   21   22 1
  37   21   35 1
  38   21   36 1
  39   22   23 1
  40   22   37 1
  41   22   38 1
  42   23   39 1
  43   23   40 1

#	End of record

