#	Name: ASD03910113
#	Creating user name:	WinNT
#	Creation time:	15. 06. 2019 20:47

#	Modifying user name:	WinNT
#	Modification time:	15. 06. 2019 20:47

#	Program:	/corina/corina34_cracker 3.40 0067  02.08.2006

@<TRIPOS>MOLECULE
ASD03910113
  41   42    0    0    0
SMALL
NO_CHARGES


@<TRIPOS>ATOM
   1 C1            -0.0173     1.4248     0.0099 C.3     
   2 O2             2.7380     3.9788    -0.0027 O.3     
   3 C3             2.8972     5.3237     0.0030 C.ar    
   4 C4             4.1883     5.8779    -0.0064 C.ar    
   5 C5             4.3469     7.2610    -0.0005 C.ar    
   6 C6             3.2214     8.0870     0.0147 C.ar    
   7 C7             1.9381     7.5217     0.0239 C.ar    
   8 C8             1.7833     6.1549     0.0123 C.ar    
   9 C9             3.3814     9.5473     0.0215 C.2     
  10 O10            2.4033    10.2645     0.0347 O.2     
  11 C11            5.3712     4.9977    -0.0219 C.2     
  12 O12            5.2303     3.7908    -0.0266 O.2     
  13 O13            6.6082     5.5316    -0.0308 O.3     
  14 O14            0.0021    -0.0041     0.0020 O.3     
  15 C15           -1.1985    -0.6365     0.0101 C.ar    
  16 C16           -1.2501    -2.0257     0.0031 C.ar    
  17 C17           -2.4661    -2.6713     0.0113 C.ar    
  18 C18           -3.6499    -1.9279     0.0270 C.ar    
  19 C19           -3.5934    -0.5311     0.0344 C.ar    
  20 C20           -2.3732     0.1065     0.0311 C.ar    
  21 C21            1.4181     1.9544    -0.0010 C.3     
  22 C22            1.3973     3.4842     0.0074 C.3     
  23 C23           -4.9546    -2.6152     0.0353 C.2     
  24 O24           -5.0017    -3.8293     0.0284 O.2     
  25 O25           -6.0944    -1.8968     0.0505 O.3     
  26 H26           -0.5445     1.7859    -0.8732 H       
  27 H27           -0.5275     1.7763     0.9067 H       
  28 H28            5.3366     7.6933    -0.0072 H       
  29 H29            1.0683     8.1617     0.0357 H       
  30 H30            0.7922     5.7258     0.0147 H       
  31 H31            4.3699     9.9823     0.0148 H       
  32 H32            7.3527     4.9145    -0.0409 H       
  33 H33           -0.3351    -2.5993    -0.0091 H       
  34 H34           -2.5054    -3.7506     0.0051 H       
  35 H35           -4.5056     0.0469     0.0463 H       
  36 H36           -2.3286     1.1856     0.0410 H       
  37 H37            1.9453     1.5933     0.8821 H       
  38 H38            1.9283     1.6028    -0.8978 H       
  39 H39            0.8871     3.8357     0.9042 H       
  40 H40            0.8701     3.8453    -0.8756 H       
  41 H41           -6.9252    -2.3916     0.0554 H       
@<TRIPOS>BOND
   1    1   14 1
   2    1   21 1
   3    1   26 1
   4    1   27 1
   5    2    3 1
   6    2   22 1
   7    3    4 ar
   8    3    8 ar
   9    4    5 ar
  10    4   11 1
  11    5    6 ar
  12    5   28 1
  13    6    7 ar
  14    6    9 1
  15    7    8 ar
  16    7   29 1
  17    8   30 1
  18    9   10 2
  19    9   31 1
  20   11   12 2
  21   11   13 1
  22   13   32 1
  23   14   15 1
  24   15   16 ar
  25   15   20 ar
  26   16   17 ar
  27   16   33 1
  28   17   18 ar
  29   17   34 1
  30   18   19 ar
  31   18   23 1
  32   19   20 ar
  33   19   35 1
  34   20   36 1
  35   21   22 1
  36   21   37 1
  37   21   38 1
  38   22   39 1
  39   22   40 1
  40   23   24 2
  41   23   25 1
  42   25   41 1

#	End of record

