#	Name: ASD01810340
#	Creating user name:	WinNT
#	Creation time:	15. 06. 2019 19:24

#	Modifying user name:	WinNT
#	Modification time:	15. 06. 2019 19:24

#	Program:	/corina/corina34_cracker 3.40 0067  02.08.2006

@<TRIPOS>MOLECULE
ASD01810340
  43   45    0    0    0
SMALL
NO_CHARGES


@<TRIPOS>ATOM
   1 C1            -1.5163     0.4167    -1.9530 C.3     
   2 O2            -1.5690    -1.0072    -1.8444 O.3     
   3 C3            -2.7666    -1.5567    -1.5116 C.ar    
   4 C4            -2.8894    -2.9331    -1.3889 C.ar    
   5 C5            -4.1079    -3.4892    -1.0506 C.ar    
   6 C6            -5.2045    -2.6753    -0.8344 C.ar    
   7 C7            -5.0848    -1.3033    -0.9565 C.ar    
   8 C8            -3.8670    -0.7418    -1.2886 C.ar    
   9 C9            -6.5325    -3.2846    -0.4654 C.3     
  10 N10           -6.6323    -3.3923     0.9922 N.am    
  11 C11           -7.7410    -3.9120     1.5552 C.2     
  12 O12           -8.6584    -4.2916     0.8534 O.2     
  13 C13           -7.8416    -4.0205     3.0238 C.ar    
  14 C14           -7.3976    -5.1745     3.6820 C.ar    
  15 C15           -6.8142    -6.3096     2.8807 C.3     
  16 N16           -7.4824    -5.2797     4.9847 N.ar    
  17 C17           -7.9896    -4.3082     5.7496 C.ar    
  18 C18           -8.4570    -3.1205     5.1706 C.ar    
  19 C19           -8.3740    -2.9744     3.7736 C.ar    
  20 C20           -8.8620    -1.7170     3.1014 C.3     
  21 C21           -8.9694    -2.1929     6.1702 C.2     
  22 N22           -9.4946    -0.9319     5.8363 N.pl3   
  23 C23           -8.9020    -2.6299     7.4148 C.2     
  24 S24           -8.1998    -4.2334     7.4959 S.3     
  25 H25           -0.5059     0.7233    -2.2232 H       
  26 H26           -2.2145     0.7486    -2.7215 H       
  27 H27           -1.7885     0.8643    -0.9971 H       
  28 H28           -2.0333    -3.5693    -1.5581 H       
  29 H29           -4.2041    -4.5607    -0.9553 H       
  30 H30           -5.9429    -0.6696    -0.7878 H       
  31 H31           -3.7740     0.3299    -1.3838 H       
  32 H32           -7.3384    -2.6530    -0.8391 H       
  33 H33           -6.6128    -4.2769    -0.9094 H       
  34 H34           -5.9004    -3.0895     1.5521 H       
  35 H35           -5.7378    -6.1693     2.7821 H       
  36 H36           -7.0126    -7.2530     3.3894 H       
  37 H37           -7.2704    -6.3277     1.8909 H       
  38 H38           -8.0810    -0.9575     3.1404 H       
  39 H39           -9.1074    -1.9326     2.0616 H       
  40 H40           -9.7505    -1.3512     3.6161 H       
  41 H41           -9.2983    -0.5381     4.9718 H       
  42 H42          -10.0532    -0.4558     6.4705 H       
  43 H43           -9.2373    -2.0691     8.2747 H       
@<TRIPOS>BOND
   1    1    2 1
   2    1   25 1
   3    1   26 1
   4    1   27 1
   5    2    3 1
   6    3    4 ar
   7    3    8 ar
   8    4    5 ar
   9    4   28 1
  10    5    6 ar
  11    5   29 1
  12    6    7 ar
  13    6    9 1
  14    7    8 ar
  15    7   30 1
  16    8   31 1
  17    9   10 1
  18    9   32 1
  19    9   33 1
  20   10   11 am
  21   10   34 1
  22   11   12 2
  23   11   13 1
  24   13   14 ar
  25   13   19 ar
  26   14   15 1
  27   14   16 ar
  28   15   35 1
  29   15   36 1
  30   15   37 1
  31   16   17 ar
  32   17   18 ar
  33   17   24 1
  34   18   19 ar
  35   18   21 1
  36   19   20 1
  37   20   38 1
  38   20   39 1
  39   20   40 1
  40   21   22 1
  41   21   23 2
  42   22   41 1
  43   22   42 1
  44   23   24 1
  45   23   43 1

#	End of record

