#	Name: ASD07931695
#	Creating user name:	WinNT
#	Creation time:	15. 06. 2019 21:13

#	Modifying user name:	WinNT
#	Modification time:	15. 06. 2019 21:13

#	Program:	/corina/corina34_cracker 3.40 0067  02.08.2006

@<TRIPOS>MOLECULE
ASD07931695
  62   65    0    0    0
SMALL
NO_CHARGES


@<TRIPOS>ATOM
   1 C1            -1.4571     0.5609     0.3520 C.2     
   2 C2            -0.9001    -0.8099     0.3382 C.2     
   3 N3            -0.6190     1.6157     0.0695 N.am    
   4 N4             0.4357    -0.9688     0.4964 N.am    
   5 C5             1.2692     0.2229     0.7100 C.3     
   6 C6             0.7886     1.3303    -0.2396 C.3     
   7 C7            -2.7725     0.7674     0.6334 C.2     
   8 C8            -3.3037     2.0630     0.6495 C.2     
   9 C9            -2.4889     3.1284     0.3804 C.2     
  10 C10           -1.0780     2.8793     0.0748 C.2     
  11 O11           -1.6264    -1.7734     0.1884 O.2     
  12 O12           -0.3278     3.8082    -0.1721 O.2     
  13 C13            1.0386    -2.3034     0.4547 C.3     
  14 C14            2.1307    -2.4529    -0.6176 C.3     
  15 C15            2.9198    -3.2772     0.4133 C.3     
  16 C16            2.1469    -2.5116     1.5002 C.3     
  17 O17            1.7146    -3.2083    -1.7570 O.3     
  18 C18            2.4281    -3.0419    -2.9016 C.ar    
  19 C19            2.0054    -3.6447    -4.0777 C.ar    
  20 C20            2.7323    -3.4741    -5.2398 C.ar    
  21 C21            3.8808    -2.7038    -5.2315 C.ar    
  22 C22            4.3042    -2.1026    -4.0609 C.ar    
  23 C23            3.5769    -2.2647    -2.8973 C.ar    
  24 C24            0.7545    -4.4851    -4.0872 C.3     
  25 F25            0.5362    -4.9818    -5.3767 F       
  26 F26            0.9032    -5.5526    -3.1953 F       
  27 F27           -0.3370    -3.7011    -3.6985 F       
  28 C28           -2.6513     5.4248     1.2522 C.2     
  29 N29           -3.3348     6.4939     0.9471 N.2     
  30 C30           -4.1279     6.2303    -0.1022 C.2     
  31 C31           -3.9324     4.9488    -0.4660 C.2     
  32 N32           -2.9950     4.4313     0.3909 N.pl3   
  33 C33           -5.0747     7.2009    -0.7600 C.3     
  34 H34            1.1713     0.5579     1.7426 H       
  35 H35            2.3111    -0.0159     0.4967 H       
  36 H36            0.8780     0.9942    -1.2726 H       
  37 H37            1.3878     2.2287    -0.0908 H       
  38 H38           -3.4129    -0.0760     0.8458 H       
  39 H39           -4.3487     2.2199     0.8724 H       
  40 H40            0.2981    -3.1031     0.4382 H       
  41 H41            2.6118    -1.5120    -0.8849 H       
  42 H42            2.6936    -4.3431     0.3855 H       
  43 H43            3.9900    -3.0703     0.4108 H       
  44 H44            2.6325    -1.5868     1.8119 H       
  45 H45            1.8426    -3.1352     2.3409 H       
  46 H46            2.4038    -3.9431    -6.1555 H       
  47 H47            4.4480    -2.5720    -6.1410 H       
  48 H48            5.2017    -1.5018    -4.0569 H       
  49 H49            3.9055    -1.7909    -1.9842 H       
  50 H50           -1.9300     5.3444     2.0520 H       
  51 H51           -4.4201     4.4283    -1.2770 H       
  52 H52           -4.5552     7.7306    -1.5585 H       
  53 H53           -5.9220     6.6562    -1.1766 H       
  54 H54           -5.4317     7.9178    -0.0206 H       
  55 C55           11.3731    14.9061     8.4877 C.2     
  56 C56           11.3935    13.3992     8.4794 C.3     
  57 O57           12.4111    15.5244     8.4811 O.2     
  58 O58           10.2017    15.5613     8.4968 O.3     
  59 F59           12.7187    12.9509     8.4643 F       
  60 F60           10.7514    12.9178     9.6253 F       
  61 F61           10.7295    12.9301     7.3409 F       
  62 H62           10.2392    16.5276     8.5019 H       
@<TRIPOS>BOND
   1    1    2 1
   2    1    3 1
   3    1    7 2
   4    2    4 am
   5    2   11 2
   6    3    6 1
   7    3   10 am
   8    4    5 1
   9    4   13 1
  10    5    6 1
  11    5   34 1
  12    5   35 1
  13    6   36 1
  14    6   37 1
  15    7    8 1
  16    7   38 1
  17    8    9 2
  18    8   39 1
  19    9   10 1
  20    9   32 1
  21   10   12 2
  22   13   14 1
  23   13   16 1
  24   13   40 1
  25   14   15 1
  26   14   17 1
  27   14   41 1
  28   15   16 1
  29   15   42 1
  30   15   43 1
  31   16   44 1
  32   16   45 1
  33   17   18 1
  34   18   19 ar
  35   18   23 ar
  36   19   20 ar
  37   19   24 1
  38   20   21 ar
  39   20   46 1
  40   21   22 ar
  41   21   47 1
  42   22   23 ar
  43   22   48 1
  44   23   49 1
  45   24   25 1
  46   24   26 1
  47   24   27 1
  48   28   29 2
  49   28   32 1
  50   28   50 1
  51   29   30 1
  52   30   31 2
  53   30   33 1
  54   31   32 1
  55   31   51 1
  56   33   52 1
  57   33   53 1
  58   33   54 1
  59   55   56 1
  60   55   57 2
  61   55   58 1
  62   56   59 1
  63   56   60 1
  64   56   61 1
  65   58   62 1

#	End of record

