#	Name: ASD03091952
#	Creating user name:	WinNT
#	Creation time:	15. 06. 2019 20:31

#	Modifying user name:	WinNT
#	Modification time:	15. 06. 2019 20:31

#	Program:	/corina/corina34_cracker 3.40 0067  02.08.2006

@<TRIPOS>MOLECULE
ASD03091952
  56   59    0    0    0
SMALL
NO_CHARGES


@<TRIPOS>ATOM
   1 C1            -0.0169     1.3981     0.0097 C.ar    
   2 C2            -1.2311     2.0674     0.0172 C.ar    
   3 C3            -2.4123     1.3474     0.0076 C.ar    
   4 C4            -2.3931    -0.0380    -0.0096 C.ar    
   5 C5            -1.1930    -0.7187    -0.0124 C.ar    
   6 C6             0.0021    -0.0041     0.0020 C.ar    
   7 O7             1.1601     2.0713     0.0021 O.3     
   8 C8             2.2747     1.4625     0.6521 C.3     
   9 N9             2.4123     0.0609     0.2541 N.am    
  10 C10            1.3113    -0.6873     0.0165 C.2     
  11 C11           -3.6900    -0.8053    -0.0247 C.3     
  12 C12           -4.1793    -0.9370    -1.4440 C.ar    
  13 C13           -5.0071     0.0317    -1.9811 C.ar    
  14 C14           -3.7948    -2.0233    -2.2084 C.ar    
  15 C15           -4.2416    -2.1467    -3.5095 C.ar    
  16 C16           -5.0775    -1.1787    -4.0497 C.ar    
  17 C17           -5.4575    -0.0865    -3.2814 C.ar    
  18 O18            1.3964    -1.8844    -0.1786 O.2     
  19 N19           -5.5326    -1.3012    -5.3699 N.pl3   
  20 C20           -6.3417    -0.4319    -6.0167 C.2     
  21 C21           -6.5435    -0.9093    -7.2667 C.2     
  22 C22           -5.8351    -2.1097    -7.3890 C.2     
  23 N23           -5.2249    -2.3426    -6.2548 N.2     
  24 F24           -1.2605     3.4180     0.0343 F       
  25 C25           -3.7314     2.0761     0.0162 C.3     
  26 C26            3.7444    -0.5322     0.1128 C.3     
  27 C27            4.1785    -1.1353     1.4502 C.3     
  28 C28            3.1807    -2.2166     1.8699 C.3     
  29 C29            5.5698    -1.7548     1.3027 C.3     
  30 C30            4.2193    -0.0378     2.5154 C.3     
  31 H31           -1.1806    -1.7985    -0.0252 H       
  32 H32            3.1835     2.0016     0.3844 H       
  33 H33            2.1327     1.5159     1.7315 H       
  34 H34           -3.5302    -1.7972     0.3980 H       
  35 H35           -4.4340    -0.2732     0.5682 H       
  36 H36           -5.3021     0.8812    -1.3831 H       
  37 H37           -3.1443    -2.7758    -1.7877 H       
  38 H38           -3.9407    -2.9951    -4.1061 H       
  39 H39           -6.1047     0.6700    -3.7002 H       
  40 H40           -6.7531     0.4796    -5.6088 H       
  41 H41           -7.1457    -0.4460    -8.0342 H       
  42 H42           -5.7956    -2.7346    -8.2690 H       
  43 H43           -4.0490     2.2648    -1.0092 H       
  44 H44           -4.4800     1.4663     0.5221 H       
  45 H45           -3.6193     3.0242     0.5422 H       
  46 H46            3.7154    -1.3141    -0.6460 H       
  47 H47            4.4553     0.2381    -0.1861 H       
  48 H48            3.1517    -2.9985     1.1110 H       
  49 H49            3.4900    -2.6463     2.8227 H       
  50 H50            2.1896    -1.7753     1.9750 H       
  51 H51            6.2806    -0.9844     1.0038 H       
  52 H52            5.8790    -2.1845     2.2555 H       
  53 H53            5.5408    -2.5367     0.5439 H       
  54 H54            3.2281     0.4035     2.6205 H       
  55 H55            4.5285    -0.4675     3.4682 H       
  56 H56            4.9301     0.7325     2.2165 H       
@<TRIPOS>BOND
   1    1    6 ar
   2    1    7 1
   3    1    2 ar
   4    2    3 ar
   5    2   24 1
   6    3    4 ar
   7    3   25 1
   8    4    5 ar
   9    4   11 1
  10    5    6 ar
  11    5   31 1
  12    6   10 1
  13    7    8 1
  14    8    9 1
  15    8   32 1
  16    8   33 1
  17    9   10 am
  18    9   26 1
  19   10   18 2
  20   11   12 1
  21   11   34 1
  22   11   35 1
  23   12   14 ar
  24   12   13 ar
  25   13   17 ar
  26   13   36 1
  27   14   15 ar
  28   14   37 1
  29   15   16 ar
  30   15   38 1
  31   16   17 ar
  32   16   19 1
  33   17   39 1
  34   19   23 1
  35   19   20 1
  36   20   21 2
  37   20   40 1
  38   21   22 1
  39   21   41 1
  40   22   23 2
  41   22   42 1
  42   25   43 1
  43   25   44 1
  44   25   45 1
  45   26   27 1
  46   26   46 1
  47   26   47 1
  48   27   28 1
  49   27   29 1
  50   27   30 1
  51   28   48 1
  52   28   49 1
  53   28   50 1
  54   29   51 1
  55   29   52 1
  56   29   53 1
  57   30   54 1
  58   30   55 1
  59   30   56 1

#	End of record

