#	Name: ASD01914348
#	Creating user name:	WinNT
#	Creation time:	15. 06. 2019 20:03

#	Modifying user name:	WinNT
#	Modification time:	15. 06. 2019 20:03

#	Program:	/corina/corina34_cracker 3.40 0067  02.08.2006

@<TRIPOS>MOLECULE
ASD01914348
  46   49    0    0    0
SMALL
NO_CHARGES


@<TRIPOS>ATOM
   1 C1             0.0478     1.2308    -0.2680 C.2     
   2 N2             0.0118    -0.1321    -0.2632 N.pl3   
   3 C3            -1.2092    -0.9360    -0.1617 C.3     
   4 C4            -2.3405    -0.0662     0.3975 C.3     
   5 N5            -2.3508     1.2271    -0.3024 N.am    
   6 C6            -1.1765     2.1070    -0.1511 C.3     
   7 C7            -3.0627     4.0599    -0.9006 C.ar    
   8 C8            -3.4441     2.9487    -1.6550 C.ar    
   9 C9            -3.4023     1.5976    -1.0598 C.2     
  10 C10           -3.1045     5.3186    -1.4622 C.ar    
  11 C11           -3.5231     5.4839    -2.7711 C.ar    
  12 C12           -3.8662     3.1214    -2.9772 C.ar    
  13 C13            1.3372     1.6113    -0.3866 C.2     
  14 C14            2.1210     0.4477    -0.4511 C.2     
  15 N15            1.3262    -0.5917    -0.3754 N.2     
  16 C16            3.6213     0.4020    -0.5852 C.3     
  17 O17            4.2157     0.3940     0.7143 O.3     
  18 C18            5.5729     0.3540     0.7718 C.ar    
  19 C19            6.2163     0.3440     2.0008 C.ar    
  20 C20            7.5960     0.3028     2.0565 C.ar    
  21 C21            8.3356     0.2716     0.8887 C.ar    
  22 C22            6.3171     0.3172    -0.3985 C.ar    
  23 O23           -4.3164     0.8198    -1.2529 O.2     
  24 C24            7.6967     0.2818    -0.3374 C.ar    
  25 C25           -3.9027     4.3900    -3.5263 C.ar    
  26 N26            1.8113     2.9362    -0.4365 N.pl3   
  27 F27           -4.2376     2.0524    -3.7152 F       
  28 H28           -1.4866    -1.3032    -1.1498 H       
  29 H29           -1.0350    -1.7800     0.5056 H       
  30 H30           -3.2953    -0.5696     0.2459 H       
  31 H31           -2.1803     0.0980     1.4631 H       
  32 H32           -1.1967     2.5899     0.8259 H       
  33 H33           -1.1717     2.8599    -0.9393 H       
  34 H34           -2.7399     3.9343     0.1224 H       
  35 H35           -2.8095     6.1783    -0.8788 H       
  36 H36           -3.5537     6.4726    -3.2046 H       
  37 H37            3.9107    -0.5011    -1.1226 H       
  38 H38            3.9637     1.2780    -1.1360 H       
  39 H39            5.6391     0.3688     2.9133 H       
  40 H40            8.0974     0.2954     3.0131 H       
  41 H41            9.4142     0.2394     0.9344 H       
  42 H42            5.8184     0.3203    -1.3564 H       
  43 H43            8.2767     0.2577    -1.2482 H       
  44 H44           -4.2286     4.5264    -4.5469 H       
  45 H45            1.1872     3.6769    -0.3841 H       
  46 H46            2.7619     3.1082    -0.5233 H       
@<TRIPOS>BOND
   1    1    2 1
   2    1   13 2
   3    1    6 1
   4    2    3 1
   5    2   15 1
   6    3    4 1
   7    3   28 1
   8    3   29 1
   9    4    5 1
  10    4   30 1
  11    4   31 1
  12    5    6 1
  13    5    9 am
  14    6   32 1
  15    6   33 1
  16    7    8 ar
  17    7   10 ar
  18    7   34 1
  19    8    9 1
  20    8   12 ar
  21    9   23 2
  22   10   11 ar
  23   10   35 1
  24   11   25 ar
  25   11   36 1
  26   12   27 1
  27   12   25 ar
  28   13   14 1
  29   13   26 1
  30   14   15 2
  31   14   16 1
  32   16   17 1
  33   16   37 1
  34   16   38 1
  35   17   18 1
  36   18   19 ar
  37   18   22 ar
  38   19   20 ar
  39   19   39 1
  40   20   21 ar
  41   20   40 1
  42   21   24 ar
  43   21   41 1
  44   22   24 ar
  45   22   42 1
  46   24   43 1
  47   25   44 1
  48   26   45 1
  49   26   46 1

#	End of record

