#	Name: ASD01820067
#	Creating user name:	WinNT
#	Creation time:	15. 06. 2019 19:36

#	Modifying user name:	WinNT
#	Modification time:	15. 06. 2019 19:36

#	Program:	/corina/corina34_cracker 3.40 0067  02.08.2006

@<TRIPOS>MOLECULE
ASD01820067
  65   70    0    0    0
SMALL
NO_CHARGES


@<TRIPOS>ATOM
   1 C1            -0.0167     1.3779     0.0096 C.ar    
   2 C2             0.0021    -0.0041     0.0020 C.ar    
   3 C3             1.2065    -0.6905    -0.0132 C.ar    
   4 C4             2.3989     0.0148    -0.0209 C.ar    
   5 C5             2.3798     1.4244    -0.0131 C.ar    
   6 C6             1.1686     2.0969     0.0022 C.ar    
   7 C7             3.8260    -0.3702    -0.0371 C.2     
   8 N8             4.5720     0.7493    -0.0385 N.am    
   9 C9             3.7959     1.8480    -0.0249 C.2     
  10 O10            4.1924     2.9959    -0.0234 O.2     
  11 O11            4.2534    -1.5069    -0.0471 O.2     
  12 C12            6.0368     0.7692    -0.0519 C.3     
  13 N13            6.5123     0.7827    -1.4375 N.ar    
  14 C14            6.7050     1.9402    -2.0390 C.ar    
  15 C15            7.1525     1.9922    -3.3456 C.ar    
  16 C16            7.3990     0.8077    -4.0229 C.ar    
  17 C17            7.1852    -0.3897    -3.3575 C.ar    
  18 C18            6.7414    -0.3631    -2.0489 C.ar    
  19 C19            7.8872     0.8215    -5.4485 C.3     
  20 C20            9.4169     0.8429    -5.4636 C.3     
  21 C21            9.9126     0.8569    -6.9110 C.3     
  22 C22           11.4194     0.8780    -6.9258 C.ar    
  23 C23           12.1456    -0.3030    -6.9387 C.ar    
  24 C24           13.5263    -0.2445    -6.9520 C.ar    
  25 N25           14.1523     0.9162    -6.9522 N.ar    
  26 C26           13.4943     2.0589    -6.9397 C.ar    
  27 C27           12.1124     2.0789    -6.9327 C.ar    
  28 C28           15.6171     0.9367    -6.9660 C.3     
  29 N29           16.0921     0.9504    -8.3518 N.am    
  30 C30           16.3235     2.0666    -9.0661 C.2     
  31 C31           16.7907     1.6756   -10.4128 C.ar    
  32 C32           16.8107     0.2661   -10.4200 C.ar    
  33 C33           16.3599    -0.1515    -9.0756 C.2     
  34 C34           17.1715     2.3758   -11.5461 C.ar    
  35 C35           17.5697     1.6843   -12.6797 C.ar    
  36 C36           17.5888     0.3024   -12.6869 C.ar    
  37 C37           17.2112    -0.4115   -11.5601 C.ar    
  38 O38           16.2438    -1.2976    -8.6911 O.2     
  39 O39           16.1736     3.2051    -8.6706 O.2     
  40 H40           -0.9613     1.9013     0.0169 H       
  41 H41           -0.9280    -0.5530     0.0083 H       
  42 H42            1.2151    -1.7704    -0.0187 H       
  43 H43            1.1479     3.1766     0.0078 H       
  44 H44            6.3927     1.6615     0.4630 H       
  45 H45            6.4169    -0.1183     0.4541 H       
  46 H46            6.5107     2.8584    -1.5045 H       
  47 H47            7.3078     2.9433    -3.8330 H       
  48 H48            7.3665    -1.3314    -3.8543 H       
  49 H49            6.5728    -1.2915    -1.5234 H       
  50 H50            7.5312    -0.0710    -5.9631 H       
  51 H51            7.5064     1.7088    -5.9544 H       
  52 H52            9.7729     1.7354    -4.9490 H       
  53 H53            9.7977    -0.0444    -4.9577 H       
  54 H54            9.5566    -0.0356    -7.4256 H       
  55 H55            9.5318     1.7442    -7.4169 H       
  56 H56           11.6387    -1.2567    -6.9379 H       
  57 H57           14.0993    -1.1599    -6.9620 H       
  58 H58           14.0415     2.9900    -6.9399 H       
  59 H59           11.5791     3.0180    -6.9229 H       
  60 H60           15.9729     1.8291    -6.4511 H       
  61 H61           15.9976     0.0493    -6.4602 H       
  62 H62           17.1579     3.4557   -11.5464 H       
  63 H63           17.8667     2.2293   -13.5636 H       
  64 H64           17.9007    -0.2250   -13.5763 H       
  65 H65           17.2283    -1.4913   -11.5713 H       
@<TRIPOS>BOND
   1    1    2 ar
   2    1    6 ar
   3    1   40 1
   4    2    3 ar
   5    2   41 1
   6    3    4 ar
   7    3   42 1
   8    4    5 ar
   9    4    7 1
  10    5    6 ar
  11    5    9 1
  12    6   43 1
  13    7    8 am
  14    7   11 2
  15    8    9 am
  16    8   12 1
  17    9   10 2
  18   12   13 1
  19   12   44 1
  20   12   45 1
  21   13   14 ar
  22   13   18 ar
  23   14   15 ar
  24   14   46 1
  25   15   16 ar
  26   15   47 1
  27   16   17 ar
  28   16   19 1
  29   17   18 ar
  30   17   48 1
  31   18   49 1
  32   19   20 1
  33   19   50 1
  34   19   51 1
  35   20   21 1
  36   20   52 1
  37   20   53 1
  38   21   22 1
  39   21   54 1
  40   21   55 1
  41   22   23 ar
  42   22   27 ar
  43   23   24 ar
  44   23   56 1
  45   24   25 ar
  46   24   57 1
  47   25   26 ar
  48   25   28 1
  49   26   27 ar
  50   26   58 1
  51   27   59 1
  52   28   29 1
  53   28   60 1
  54   28   61 1
  55   29   30 am
  56   29   33 am
  57   30   31 1
  58   30   39 2
  59   31   32 ar
  60   31   34 ar
  61   32   33 1
  62   32   37 ar
  63   33   38 2
  64   34   35 ar
  65   34   62 1
  66   35   36 ar
  67   35   63 1
  68   36   37 ar
  69   36   64 1
  70   37   65 1

#	End of record

