#	Name: ASD01910436
#	Creating user name:	WinNT
#	Creation time:	15. 06. 2019 19:55

#	Modifying user name:	WinNT
#	Modification time:	15. 06. 2019 19:55

#	Program:	/corina/corina34_cracker 3.40 0067  02.08.2006

@<TRIPOS>MOLECULE
ASD01910436
  42   45    0    0    0
SMALL
NO_CHARGES


@<TRIPOS>ATOM
   1 C1            -2.0444     5.9953     0.0539 C.ar    
   2 C2            -2.6630     4.7949     0.3646 C.ar    
   3 C3            -1.9035     3.6877     0.7067 C.ar    
   4 C4            -0.5271     3.7764     0.7399 C.ar    
   5 C5             0.0991     4.9816     0.4282 C.ar    
   6 C6            -0.6686     6.0926     0.0842 C.ar    
   7 F7            -4.0106     4.7040     0.3341 F       
   8 C8             1.5791     5.0819     0.4630 C.2     
   9 N9             2.3160     6.1813     0.1858 N.2     
  10 C10            3.5643     5.8167     0.3420 C.2     
  11 O11            3.5562     4.5299     0.7034 O.3     
  12 N12            2.4150     4.1251     0.7732 N.2     
  13 C13            4.7810     6.6849     0.1500 C.3     
  14 C14            5.5663     6.7611     1.4613 C.3     
  15 C15            6.7844     7.6689     1.2765 C.3     
  16 C16            7.6986     7.0770     0.1991 C.3     
  17 N17            6.9126     6.8654    -1.0240 N.am    
  18 C18            5.6725     6.0819    -0.9401 C.3     
  19 C19            7.3213     7.3802    -2.2006 C.2     
  20 C20            6.5943     7.0552    -3.4383 C.2     
  21 O21            8.2909     8.1134    -2.2396 O.2     
  22 C22            6.3467     7.8677    -4.5290 C.2     
  23 N23            5.6647     7.2426    -5.4599 N.2     
  24 N24            5.3161     6.0299    -5.2889 N.2     
  25 S25            5.8287     5.5232    -3.8982 S.3     
  26 C26            6.8050     9.2993    -4.6363 C.3     
  27 H27           -2.6399     6.8547    -0.2166 H       
  28 H28           -2.3896     2.7540     0.9482 H       
  29 H29            0.0641     2.9131     1.0074 H       
  30 H30           -0.1872     7.0285    -0.1584 H       
  31 H31            4.4701     7.6866    -0.1465 H       
  32 H32            4.9264     7.1670     2.2448 H       
  33 H33            5.8977     5.7620     1.7447 H       
  34 H34            6.4551     8.6615     0.9690 H       
  35 H35            7.3303     7.7414     2.2172 H       
  36 H36            8.5158     7.7683    -0.0067 H       
  37 H37            8.1010     6.1246     0.5442 H       
  38 H38            5.9097     5.0483    -0.6879 H       
  39 H39            5.1529     6.1165    -1.8977 H       
  40 H40            7.7933     9.3311    -5.0948 H       
  41 H41            6.1012     9.8610    -5.2505 H       
  42 H42            6.8518     9.7413    -3.6410 H       
@<TRIPOS>BOND
   1    1    2 ar
   2    1    6 ar
   3    1   27 1
   4    2    3 ar
   5    2    7 1
   6    3    4 ar
   7    3   28 1
   8    4    5 ar
   9    4   29 1
  10    5    6 ar
  11    5    8 1
  12    6   30 1
  13    8    9 1
  14    8   12 2
  15    9   10 2
  16   10   11 1
  17   10   13 1
  18   11   12 1
  19   13   14 1
  20   13   18 1
  21   13   31 1
  22   14   15 1
  23   14   32 1
  24   14   33 1
  25   15   16 1
  26   15   34 1
  27   15   35 1
  28   16   17 1
  29   16   36 1
  30   16   37 1
  31   17   18 1
  32   17   19 am
  33   18   38 1
  34   18   39 1
  35   19   20 1
  36   19   21 2
  37   20   22 2
  38   20   25 1
  39   22   23 1
  40   22   26 1
  41   23   24 2
  42   24   25 1
  43   26   40 1
  44   26   41 1
  45   26   42 1

#	End of record

