#	Name: ASD01915956
#	Creating user name:	WinNT
#	Creation time:	15. 06. 2019 20:06

#	Modifying user name:	WinNT
#	Modification time:	15. 06. 2019 20:06

#	Program:	/corina/corina34_cracker 3.40 0067  02.08.2006

@<TRIPOS>MOLECULE
ASD01915956
  36   38    0    0    0
SMALL
NO_CHARGES


@<TRIPOS>ATOM
   1 C1            -0.0165     1.3682     0.0096 C.2     
   2 C2             0.0021    -0.0041     0.0020 C.2     
   3 C3            -1.3075    -0.7746     0.0118 C.3     
   4 C4            -2.3563     0.0470     0.7582 C.3     
   5 N5            -2.3977     1.4368     0.3216 N.am    
   6 C6            -1.2721     2.1286     0.0202 C.2     
   7 O7            -1.3005     3.3207    -0.2220 O.2     
   8 S8             1.6342     1.9488    -0.0031 S.3     
   9 C9             2.2070     0.3364    -0.0181 C.2     
  10 N10            1.2149    -0.4958    -0.0130 N.2     
  11 O11            4.1065    -0.1763    -1.3884 O.3     
  12 C12            5.4046    -0.5290    -1.5821 C.ar    
  13 C13            5.9041    -0.6609    -2.8696 C.ar    
  14 C14            6.2340    -0.7522    -0.4926 C.ar    
  15 C15            7.5532    -1.1102    -0.6922 C.ar    
  16 C16            8.0473    -1.2456    -1.9764 C.ar    
  17 C17            7.2240    -1.0191    -3.0639 C.ar    
  18 C18            3.6610    -0.0593    -0.0356 C.3     
  19 C19           -3.6956     2.1053     0.2002 C.3     
  20 C20           -4.0524     2.7720     1.5303 C.3     
  21 H21           -1.6385    -0.9456    -1.0126 H       
  22 H22           -1.1653    -1.7304     0.5162 H       
  23 H23           -3.3361    -0.4021     0.5959 H       
  24 H24           -2.1313     0.0197     1.8244 H       
  25 H25            5.2614    -0.4840    -3.7194 H       
  26 H26            5.8487    -0.6458     0.5107 H       
  27 H27            8.1993    -1.2840     0.1556 H       
  28 H28            9.0791    -1.5252    -2.1304 H       
  29 H29            7.6122    -1.1259    -4.0660 H       
  30 H30            4.2507     0.7010     0.4766 H       
  31 H31            3.7832    -1.0165     0.4712 H       
  32 H32           -3.6428     2.8618    -0.5828 H       
  33 H33           -4.4599     1.3712    -0.0548 H       
  34 H34           -5.0181     3.2693     1.4399 H       
  35 H35           -4.1051     2.0154     2.3132 H       
  36 H36           -3.2880     3.5060     1.7853 H       
@<TRIPOS>BOND
   1    1    2 2
   2    1    8 1
   3    1    6 1
   4    2    3 1
   5    2   10 1
   6    3    4 1
   7    3   21 1
   8    3   22 1
   9    4    5 1
  10    4   23 1
  11    4   24 1
  12    5    6 am
  13    5   19 1
  14    6    7 2
  15    8    9 1
  16    9   10 2
  17    9   18 1
  18   11   12 1
  19   11   18 1
  20   12   13 ar
  21   12   14 ar
  22   13   17 ar
  23   13   25 1
  24   14   15 ar
  25   14   26 1
  26   15   16 ar
  27   15   27 1
  28   16   17 ar
  29   16   28 1
  30   17   29 1
  31   18   30 1
  32   18   31 1
  33   19   20 1
  34   19   32 1
  35   19   33 1
  36   20   34 1
  37   20   35 1
  38   20   36 1

#	End of record

