#	Name: ASD01208639
#	Creating user name:	WinNT
#	Creation time:	15. 06. 2019 19:10

#	Modifying user name:	WinNT
#	Modification time:	15. 06. 2019 19:10

#	Program:	/corina/corina34_cracker 3.40 0067  02.08.2006

@<TRIPOS>MOLECULE
ASD01208639
  19   19    0    0    0
SMALL
NO_CHARGES


@<TRIPOS>ATOM
   1 C1            -0.0167     1.3781     0.0096 C.ar    
   2 C2             0.0021    -0.0041     0.0020 C.ar    
   3 C3             1.2213    -0.6632    -0.0132 C.ar    
   4 C4             2.3826     0.0966    -0.0203 C.ar    
   5 C5             2.2848     1.4762    -0.0119 C.ar    
   6 N6             1.1067     2.0685     0.0026 N.ar    
   7 S7            -1.5603     2.2276     0.0215 S.o2    
   8 O8            -1.8443     2.5628    -1.3299 O.2     
   9 O9            -2.4366     1.4562     0.8316 O.2     
  10 N10           -1.3255     3.6598     0.8191 N.am    
  11 C11           -0.4339     4.6754     0.2538 C.3     
  12 Cl12           3.9378    -0.6746    -0.0387 Cl      
  13 H13           -0.9218    -0.5634     0.0082 H       
  14 H14            1.2664    -1.7422    -0.0191 H       
  15 H15            3.1835     2.0751    -0.0173 H       
  16 H16           -1.7784     3.8262     1.6606 H       
  17 H17           -0.8024     4.9773    -0.7266 H       
  18 H18           -0.4056     5.5422     0.9141 H       
  19 H19            0.5698     4.2624     0.1533 H       
@<TRIPOS>BOND
   1    1    2 ar
   2    1    6 ar
   3    1    7 1
   4    2    3 ar
   5    2   13 1
   6    3    4 ar
   7    3   14 1
   8    4    5 ar
   9    4   12 1
  10    5    6 ar
  11    5   15 1
  12    7    8 2
  13    7    9 2
  14    7   10 am
  15   10   11 1
  16   10   16 1
  17   11   17 1
  18   11   18 1
  19   11   19 1

#	End of record

