#	Name: ASD09116108
#	Creating user name:	WinNT
#	Creation time:	15. 06. 2019 21:20

#	Modifying user name:	WinNT
#	Modification time:	15. 06. 2019 21:20

#	Program:	/corina/corina34_cracker 3.40 0067  02.08.2006

@<TRIPOS>MOLECULE
ASD09116108
  66   71    0    0    0
SMALL
NO_CHARGES


@<TRIPOS>ATOM
   1 N1            -0.0294     1.4179     0.1432 N.2     
   2 N2            -0.0205     0.0188     0.2624 N.pl3   
   3 C3             1.2225     1.8075     0.1141 C.2     
   4 N4             2.0158     0.7339     0.2080 N.2     
   5 C5             1.2805    -0.3536     0.2983 C.2     
   6 C6            -1.1331    -0.8218     0.3307 C.ar    
   7 N7            -1.0314    -2.0872    -0.0473 N.ar    
   8 N8            -2.0271    -2.8997    -0.0136 N.ar    
   9 C9            -3.2226    -2.5150     0.4036 C.ar    
  10 C10           -3.4192    -1.2025     0.8424 C.ar    
  11 C11           -2.3524    -0.3298     0.8034 C.ar    
  12 C12           -4.3844    -3.4339     0.3924 C.ar    
  13 C13           -5.5811    -3.0014    -0.1811 C.ar    
  14 C14           -5.6437    -1.6411    -0.8200 C.3     
  15 C15           -5.7422    -0.5371     0.2293 C.3     
  16 C16           -4.7611    -0.7873     1.3714 C.3     
  17 C17           -4.2978    -4.7070     0.9448 C.ar    
  18 C18           -5.4062    -5.5315     0.9391 C.ar    
  19 C19           -6.5962    -5.0914     0.3885 C.ar    
  20 C20           -6.6841    -3.8279    -0.1700 C.ar    
  21 N21            1.6572     3.1283     0.0030 N.pl3   
  22 C22            3.0217     3.4263     0.0973 C.ar    
  23 C23            3.5419     4.5218    -0.5794 C.ar    
  24 C24            4.8880     4.8154    -0.4855 C.ar    
  25 C25            5.7205     4.0162     0.2841 C.ar    
  26 C26            5.2019     2.9215     0.9599 C.ar    
  27 C27            3.8549     2.6301     0.8721 C.ar    
  28 O28            7.0461     4.3058     0.3756 O.3     
  29 C29            7.8448     3.4406     1.1854 C.3     
  30 C30            9.2971     3.9215     1.1669 C.3     
  31 N31            9.3840     5.2415     1.8057 N.3     
  32 C32           10.7891     5.6327     2.0213 C.3     
  33 C33           11.0013     6.9854     1.3095 C.3     
  34 C34            9.5632     7.5593     1.2135 C.3     
  35 C35            8.7292     6.2756     0.9764 C.3     
  36 N36            1.7530    -1.6474     0.4099 N.pl3   
  37 H37           -2.4575     0.6979     1.1184 H       
  38 H38           -4.7453    -1.4861    -1.4175 H       
  39 H39           -6.5164    -1.5929    -1.4713 H       
  40 H40           -5.5140     0.4217    -0.2362 H       
  41 H41           -6.7567    -0.5096     0.6271 H       
  42 H42           -5.1527    -1.5760     2.0140 H       
  43 H43           -4.6494     0.1267     1.9547 H       
  44 H44           -3.3689    -5.0494     1.3763 H       
  45 H45           -5.3434    -6.5219     1.3653 H       
  46 H46           -7.4618    -5.7373     0.3942 H       
  47 H47           -7.6166    -3.4899    -0.5972 H       
  48 H48            1.0140     3.8402    -0.1395 H       
  49 H49            2.8940     5.1438    -1.1792 H       
  50 H50            5.2928     5.6673    -1.0117 H       
  51 H51            5.8509     2.2996     1.5586 H       
  52 H52            3.4512     1.7778     1.3984 H       
  53 H53            7.4708     3.4534     2.2091 H       
  54 H54            7.7932     2.4252     0.7924 H       
  55 H55            9.9215     3.2128     1.7109 H       
  56 H56            9.6429     3.9935     0.1357 H       
  57 H57           10.9846     5.7404     3.0882 H       
  58 H58           11.4530     4.8809     1.5945 H       
  59 H59           11.6381     7.6389     1.9058 H       
  60 H60           11.4237     6.8359     0.3158 H       
  61 H61            9.2741     8.0462     2.1449 H       
  62 H62            9.4719     8.2453     0.3714 H       
  63 H63            8.7587     5.9929    -0.0758 H       
  64 H64            7.6997     6.4266     1.3010 H       
  65 H65            2.7082    -1.8152     0.4269 H       
  66 H66            1.1294    -2.3879     0.4713 H       
@<TRIPOS>BOND
   1    1    2 1
   2    1    3 2
   3    2    6 1
   4    2    5 1
   5    3    4 1
   6    3   21 1
   7    4    5 2
   8    5   36 1
   9    6    7 ar
  10    6   11 ar
  11    7    8 ar
  12    8    9 ar
  13    9   10 ar
  14    9   12 1
  15   10   11 ar
  16   10   16 1
  17   11   37 1
  18   12   13 ar
  19   12   17 ar
  20   13   14 1
  21   13   20 ar
  22   14   15 1
  23   14   38 1
  24   14   39 1
  25   15   16 1
  26   15   40 1
  27   15   41 1
  28   16   42 1
  29   16   43 1
  30   17   18 ar
  31   17   44 1
  32   18   19 ar
  33   18   45 1
  34   19   20 ar
  35   19   46 1
  36   20   47 1
  37   21   22 1
  38   21   48 1
  39   22   23 ar
  40   22   27 ar
  41   23   24 ar
  42   23   49 1
  43   24   25 ar
  44   24   50 1
  45   25   26 ar
  46   25   28 1
  47   26   27 ar
  48   26   51 1
  49   27   52 1
  50   28   29 1
  51   29   30 1
  52   29   53 1
  53   29   54 1
  54   30   31 1
  55   30   55 1
  56   30   56 1
  57   31   32 1
  58   31   35 1
  59   32   33 1
  60   32   57 1
  61   32   58 1
  62   33   34 1
  63   33   59 1
  64   33   60 1
  65   34   35 1
  66   34   61 1
  67   34   62 1
  68   35   63 1
  69   35   64 1
  70   36   65 1
  71   36   66 1

#	End of record

