#	Name: ASD05430689
#	Creating user name:	WinNT
#	Creation time:	15. 06. 2019 21:00

#	Modifying user name:	WinNT
#	Modification time:	15. 06. 2019 21:00

#	Program:	/corina/corina34_cracker 3.40 0067  02.08.2006

@<TRIPOS>MOLECULE
ASD05430689
  24   24    0    0    0
SMALL
NO_CHARGES


@<TRIPOS>ATOM
   1 C1            -0.0167     1.3776     0.0096 C.ar    
   2 C2             0.0021    -0.0041     0.0020 C.ar    
   3 C3            -1.1877    -0.7128     0.0091 C.ar    
   4 C4            -2.4120     1.3469     0.0439 C.ar    
   5 C5            -1.2226     2.0532     0.0305 C.ar    
   6 C6             1.2783     2.1484     0.0014 C.3     
   7 C7            -2.3952    -0.0363     0.0243 C.ar    
   8 C8             2.0735     1.7961    -1.2574 C.3     
   9 C9             0.9789     3.6487     0.0123 C.3     
  10 C10            2.0973     1.7827     1.2409 C.3     
  11 Cl11          -3.9258     2.1963     0.0707 Cl      
  12 F12           -1.1698    -2.0636     0.0008 F       
  13 H13            0.9446    -0.5313    -0.0098 H       
  14 H14           -1.2360     3.1330     0.0462 H       
  15 H15           -3.3235    -0.5881     0.0343 H       
  16 H16            1.4900     2.0566    -2.1405 H       
  17 H17            3.0101     2.3536    -1.2634 H       
  18 H18            2.2868     0.7272    -1.2652 H       
  19 H19            0.4124     3.8997     0.9091 H       
  20 H20            1.9155     4.2062     0.0064 H       
  21 H21            0.3954     3.9092    -0.8708 H       
  22 H22            2.3106     0.7138     1.2331 H       
  23 H23            3.0339     2.3402     1.2350 H       
  24 H24            1.5308     2.0336     2.1377 H       
@<TRIPOS>BOND
   1    1    2 ar
   2    1    6 1
   3    1    5 ar
   4    2    3 ar
   5    2   13 1
   6    3   12 1
   7    3    7 ar
   8    4    5 ar
   9    4   11 1
  10    4    7 ar
  11    5   14 1
  12    6    8 1
  13    6    9 1
  14    6   10 1
  15    7   15 1
  16    8   16 1
  17    8   17 1
  18    8   18 1
  19    9   19 1
  20    9   20 1
  21    9   21 1
  22   10   22 1
  23   10   23 1
  24   10   24 1

#	End of record

