#	Name: ASD03330927
#	Creating user name:	WinNT
#	Creation time:	15. 06. 2019 20:38

#	Modifying user name:	WinNT
#	Modification time:	15. 06. 2019 20:38

#	Program:	/corina/corina34_cracker 3.40 0067  02.08.2006

@<TRIPOS>MOLECULE
ASD03330927
  58   61    0    0    0
SMALL
NO_CHARGES


@<TRIPOS>ATOM
   1 N1            -0.4247     1.5993     0.0252 N.pl3   
   2 C2            -0.2923     0.2460     0.0467 C.2     
   3 C3             1.0097    -0.5073     0.1277 C.3     
   4 N4             1.8405     0.0790     1.1910 N.3     
   5 C5             2.6721     1.1678     0.6747 C.3     
   6 C6             1.9506     1.9264    -0.4356 C.3     
   7 C7             0.6739     2.5651     0.1179 C.3     
   8 C8            -1.7560     1.8780    -0.0853 C.2     
   9 N9            -2.4200     0.7461    -0.1126 N.2     
  10 C10           -1.5454    -0.2808    -0.0301 C.2     
  11 C11           -1.8868    -1.7142    -0.0249 C.2     
  12 O12           -1.0057    -2.5489     0.0534 O.2     
  13 N13           -3.1755    -2.1003    -0.1070 N.am    
  14 C14           -2.3512     3.2295    -0.1611 C.ar    
  15 C15           -3.3147     3.5180    -1.1314 C.ar    
  16 C16           -3.8679     4.7824    -1.1974 C.ar    
  17 C17           -3.4688     5.7629    -0.3044 C.ar    
  18 C18           -2.5119     5.4817     0.6608 C.ar    
  19 C19           -1.9571     4.2196     0.7396 C.ar    
  20 F20           -2.1265     6.4431     1.5282 F       
  21 F21           -4.0125     6.9978    -0.3735 F       
  22 F22           -3.7041     2.5626    -2.0036 F       
  23 C23           -3.5085    -3.5230    -0.2134 C.3     
  24 C24           -5.0399    -3.7060    -0.2477 C.3     
  25 C25           -5.3785    -3.7915    -1.7567 C.3     
  26 C26           -4.1896    -4.6032    -2.3283 C.3     
  27 C27           -2.9679    -4.0934    -1.5363 C.3     
  28 C28           -2.9244    -4.2781     0.9526 C.2     
  29 N29           -2.8365    -3.6886     2.1614 N.am    
  30 O30           -2.5333    -5.4164     0.8032 O.2     
  31 C31           -2.1712    -4.3813     3.2676 C.3     
  32 C32            2.6636    -0.9485     1.8427 C.3     
  33 H33            0.8112    -1.5544     0.3560 H       
  34 H34            1.5330    -0.4340    -0.8257 H       
  35 H35            2.9045     1.8569     1.4867 H       
  36 H36            3.6002     0.7537     0.2808 H       
  37 H37            2.6052     2.7052    -0.8268 H       
  38 H38            1.6917     1.2352    -1.2377 H       
  39 H39            0.4286     3.4531    -0.4646 H       
  40 H40            0.8278     2.8429     1.1606 H       
  41 H41           -3.8824    -1.4362    -0.0956 H       
  42 H42           -4.6125     5.0066    -1.9468 H       
  43 H43           -1.2159     4.0006     1.4940 H       
  44 H44           -5.3255    -4.6273     0.2601 H       
  45 H45           -5.5369    -2.8490     0.2068 H       
  46 H46           -6.3183    -4.3214    -1.9123 H       
  47 H47           -5.4164    -2.7969    -2.2011 H       
  48 H48           -4.3378    -5.6693    -2.1565 H       
  49 H49           -4.0660    -4.4008    -3.3922 H       
  50 H50           -2.4577    -3.3117    -2.0991 H       
  51 H51           -2.2829    -4.9171    -1.3354 H       
  52 H52           -3.2139    -2.8056     2.2990 H       
  53 H53           -2.1983    -3.7535     4.1582 H       
  54 H54           -2.6853    -5.3209     3.4696 H       
  55 H55           -1.1348    -4.5848     2.9980 H       
  56 H56            3.2665    -1.4607     1.0929 H       
  57 H57            3.3186    -0.4781     2.5761 H       
  58 H58            2.0166    -1.6691     2.3429 H       
@<TRIPOS>BOND
   1    1    2 1
   2    1    7 1
   3    1    8 1
   4    2    3 1
   5    2   10 2
   6    3    4 1
   7    3   33 1
   8    3   34 1
   9    4    5 1
  10    4   32 1
  11    5    6 1
  12    5   35 1
  13    5   36 1
  14    6    7 1
  15    6   37 1
  16    6   38 1
  17    7   39 1
  18    7   40 1
  19    8    9 2
  20    8   14 1
  21    9   10 1
  22   10   11 1
  23   11   12 2
  24   11   13 am
  25   13   23 1
  26   13   41 1
  27   14   15 ar
  28   14   19 ar
  29   15   16 ar
  30   15   22 1
  31   16   17 ar
  32   16   42 1
  33   17   18 ar
  34   17   21 1
  35   18   19 ar
  36   18   20 1
  37   19   43 1
  38   23   24 1
  39   23   27 1
  40   23   28 1
  41   24   25 1
  42   24   44 1
  43   24   45 1
  44   25   26 1
  45   25   46 1
  46   25   47 1
  47   26   27 1
  48   26   48 1
  49   26   49 1
  50   27   50 1
  51   27   51 1
  52   28   29 am
  53   28   30 2
  54   29   31 1
  55   29   52 1
  56   31   53 1
  57   31   54 1
  58   31   55 1
  59   32   56 1
  60   32   57 1
  61   32   58 1

#	End of record

