#	Name: ASD01810763
#	Creating user name:	WinNT
#	Creation time:	15. 06. 2019 19:25

#	Modifying user name:	WinNT
#	Modification time:	15. 06. 2019 19:25

#	Program:	/corina/corina34_cracker 3.40 0067  02.08.2006

@<TRIPOS>MOLECULE
ASD01810763
  17   16    0    0    0
SMALL
NO_CHARGES


@<TRIPOS>ATOM
   1 C1            -0.0182     1.4901     0.0102 C.2     
   2 C2             0.0021    -0.0041     0.0020 C.2     
   3 O3             1.0235     2.1106     0.0036 O.2     
   4 O4            -1.1923     2.1469     0.0194 O.3     
   5 O5            -1.0405    -0.6250     0.0086 O.2     
   6 N6             1.1783    -0.6620    -0.0127 N.am    
   7 N7             1.1968    -2.0278    -0.0203 N.3     
   8 C8            -1.1360     3.5978     0.0270 C.3     
   9 C9            -2.5576     4.1633     0.0368 C.3     
  10 H10            2.0116    -0.1656    -0.0180 H       
  11 H11            2.1435    -2.3766    -0.0312 H       
  12 H12            0.6831    -2.4008     0.7641 H       
  13 H13           -0.6043     3.9361     0.9163 H       
  14 H14           -0.6127     3.9458    -0.8636 H       
  15 H15           -2.5154     5.2525     0.0425 H       
  16 H16           -3.0894     3.8250    -0.8525 H       
  17 H17           -3.0809     3.8153     0.9274 H       
@<TRIPOS>BOND
   1    1    2 1
   2    1    3 2
   3    1    4 1
   4    2    5 2
   5    2    6 am
   6    4    8 1
   7    6    7 1
   8    6   10 1
   9    7   11 1
  10    7   12 1
  11    8    9 1
  12    8   13 1
  13    8   14 1
  14    9   15 1
  15    9   16 1
  16    9   17 1

#	End of record

