#	Name: ASD05430146
#	Creating user name:	WinNT
#	Creation time:	15. 06. 2019 20:59

#	Modifying user name:	WinNT
#	Modification time:	15. 06. 2019 20:59

#	Program:	/corina/corina34_cracker 3.40 0067  02.08.2006

@<TRIPOS>MOLECULE
ASD05430146
  64   70    0    0    0
SMALL
NO_CHARGES


@<TRIPOS>ATOM
   1 C1             0.0664     1.3190    -0.7410 C.ar    
   2 C2             0.0188    -0.0149    -0.3187 C.ar    
   3 C3             1.1523    -0.6338     0.1864 C.ar    
   4 C4             2.3419     0.0556     0.2798 C.ar    
   5 C5             2.4024     1.3910    -0.1356 C.ar    
   6 C6             1.2603     2.0114    -0.6393 C.ar    
   7 O7             4.8986     0.1174    -0.1423 O.3     
   8 C8             4.8393     1.4720     0.0352 C.2     
   9 C9             3.6673     2.1373    -0.0410 C.2     
  10 C10            6.1799    -0.4270    -0.4749 C.3     
  11 C11            7.1487     0.5325    -1.1786 C.3     
  12 N12            7.2375     1.7567    -0.3798 N.pl3   
  13 C13            6.1059     2.1806     0.3141 C.2     
  14 C14            8.3914     3.6902    -1.2866 C.ar    
  15 C15            9.5133     4.0484    -2.0106 C.ar    
  16 C16            9.4480     5.0894    -2.9172 C.ar    
  17 C17            8.2583     5.7738    -3.1002 C.ar    
  18 C18            7.1354     5.4142    -2.3744 C.ar    
  19 C19            7.2031     4.3728    -1.4684 C.ar    
  20 N20           -1.1842    -0.7304    -0.4067 N.pl3   
  21 C21           -1.3555    -1.9708    -0.9643 C.2     
  22 C22           -2.6602    -2.2794    -0.8359 C.2     
  23 N23           -3.2729    -1.2590    -0.2178 N.2     
  24 C24           -2.3982    -0.3276     0.0498 C.2     
  25 C25           -3.3180    -3.5510    -1.3064 C.3     
  26 N26            6.1801     3.1396     1.1772 N.2     
  27 C27           -0.5409     3.4819    -1.1447 C.3     
  28 O28           -0.9135     2.0994    -1.2762 O.3     
  29 C29            8.4623     2.5508    -0.3028 C.3     
  30 C30            8.5892     3.1047     1.1207 C.3     
  31 O31            7.3934     3.7851     1.4874 O.3     
  32 F32            8.1934     6.7919    -3.9858 F       
  33 C33            8.8358     1.9507     2.0944 C.3     
  34 O34            9.0701     2.4737     3.4035 O.3     
  35 C35            6.7820    -1.4512     0.4882 C.3     
  36 C36            6.2401    -1.9029    -0.8696 C.3     
  37 C37            1.0051     3.4187    -1.1428 C.3     
  38 H38            1.1024    -1.6632     0.5092 H       
  39 H39            3.2225    -0.4315     0.6717 H       
  40 H40            3.6578     3.2172    -0.0325 H       
  41 H41            8.1331     0.0709    -1.2553 H       
  42 H42            6.7739     0.7692    -2.1744 H       
  43 H43           10.4412     3.5147    -1.8675 H       
  44 H44           10.3246     5.3692    -3.4825 H       
  45 H45            6.2069     5.9473    -2.5163 H       
  46 H46            6.3272     4.0921    -0.9022 H       
  47 H47           -0.5911    -2.5829    -1.4197 H       
  48 H48           -2.6065     0.6097     0.5442 H       
  49 H49           -3.2838    -4.2940    -0.5096 H       
  50 H50           -4.3561    -3.3474    -1.5691 H       
  51 H51           -2.7898    -3.9313    -2.1808 H       
  52 H52           -0.9027     4.0620    -1.9937 H       
  53 H53           -0.9123     3.8947    -0.2068 H       
  54 H54            9.3228     1.9216    -0.5302 H       
  55 H55            9.4285     3.7989     1.1652 H       
  56 H56            7.9621     1.2993     2.1145 H       
  57 H57            9.7064     1.3809     1.7696 H       
  58 H58            9.2344     1.7966     4.0740 H       
  59 H59            7.8639    -1.4423     0.6207 H       
  60 H60            6.2018    -1.7114     1.3735 H       
  61 H61            5.3035    -2.4604    -0.8775 H       
  62 H62            6.9655    -2.1912    -1.6304 H       
  63 H63            1.4239     4.1585    -0.4606 H       
  64 H64            1.4021     3.5503    -2.1494 H       
@<TRIPOS>BOND
   1    1    2 ar
   2    1    6 ar
   3    1   28 1
   4    2    3 ar
   5    2   20 1
   6    3    4 ar
   7    3   38 1
   8    4    5 ar
   9    4   39 1
  10    5    6 ar
  11    5    9 1
  12    6   37 1
  13    7    8 1
  14    7   10 1
  15    8    9 2
  16    8   13 1
  17    9   40 1
  18   10   11 1
  19   10   35 1
  20   10   36 1
  21   11   12 1
  22   11   41 1
  23   11   42 1
  24   12   13 1
  25   12   29 1
  26   13   26 2
  27   14   15 ar
  28   14   19 ar
  29   14   29 1
  30   15   16 ar
  31   15   43 1
  32   16   17 ar
  33   16   44 1
  34   17   18 ar
  35   17   32 1
  36   18   19 ar
  37   18   45 1
  38   19   46 1
  39   20   21 1
  40   20   24 1
  41   21   22 2
  42   21   47 1
  43   22   23 1
  44   22   25 1
  45   23   24 2
  46   24   48 1
  47   25   49 1
  48   25   50 1
  49   25   51 1
  50   26   31 1
  51   27   28 1
  52   27   37 1
  53   27   52 1
  54   27   53 1
  55   29   30 1
  56   29   54 1
  57   30   31 1
  58   30   33 1
  59   30   55 1
  60   33   34 1
  61   33   56 1
  62   33   57 1
  63   34   58 1
  64   35   36 1
  65   35   59 1
  66   35   60 1
  67   36   61 1
  68   36   62 1
  69   37   63 1
  70   37   64 1

#	End of record

