#	Name: ASD00170377
#	Creating user name:	WinNT
#	Creation time:	15. 06. 2019 18:32

#	Modifying user name:	WinNT
#	Modification time:	15. 06. 2019 18:32

#	Program:	/corina/corina34_cracker 3.40 0067  02.08.2006

@<TRIPOS>MOLECULE
ASD00170377
  32   34    0    0    0
SMALL
NO_CHARGES


@<TRIPOS>ATOM
   1 C1            -0.0108     1.3384    -0.1034 C.2     
   2 C2             0.0145     0.0005    -0.1307 C.2     
   3 C3            -1.3042    -0.5834     0.0237 C.2     
   4 C4            -2.2968     0.3543     0.1641 C.2     
   5 S5            -1.6480     1.9282     0.1175 S.3     
   6 C6            -1.5513    -2.0250     0.0288 C.2     
   7 C7            -1.5545    -2.7702     1.3061 C.ar    
   8 O8            -1.7545    -2.6117    -1.0188 O.2     
   9 C9            -1.8835    -4.1268     1.3252 C.ar    
  10 C10           -1.8848    -4.8164     2.5194 C.ar    
  11 C11           -1.5609    -4.1656     3.6984 C.ar    
  12 C12           -1.2337    -2.8198     3.6857 C.ar    
  13 C13           -1.2229    -2.1212     2.4968 C.ar    
  14 N14           -3.6358     0.0617     0.3259 N.pl3   
  15 C15            1.2256     2.2053    -0.2409 C.3     
  16 N16            2.4125     1.3702    -0.0041 N.3     
  17 C17            2.3788     0.1595    -0.8370 C.3     
  18 C18            1.3010    -0.7913    -0.3070 C.3     
  19 Cl19          -1.5658    -5.0401     5.1981 Cl      
  20 H20           -2.1369    -4.6351     0.4066 H       
  21 H21           -2.1392    -5.8659     2.5354 H       
  22 H22           -0.9820    -2.3176     4.6082 H       
  23 H23           -0.9672    -1.0719     2.4881 H       
  24 H24           -3.9421    -0.8567     0.2669 H       
  25 H25           -4.2705     0.7746     0.4986 H       
  26 H26            1.2682     2.6252    -1.2458 H       
  27 H27            1.1919     3.0099     0.4937 H       
  28 H28            3.2604     1.8939    -0.1616 H       
  29 H29            2.1477     0.4326    -1.8667 H       
  30 H30            3.3498    -0.3344    -0.8004 H       
  31 H31            1.6133    -1.2027     0.6529 H       
  32 H32            1.1411    -1.6001    -1.0199 H       
@<TRIPOS>BOND
   1    1    2 2
   2    1   15 1
   3    1    5 1
   4    2    3 1
   5    2   18 1
   6    3    4 2
   7    3    6 1
   8    4    5 1
   9    4   14 1
  10    6    7 1
  11    6    8 2
  12    7    9 ar
  13    7   13 ar
  14    9   10 ar
  15    9   20 1
  16   10   11 ar
  17   10   21 1
  18   11   12 ar
  19   11   19 1
  20   12   13 ar
  21   12   22 1
  22   13   23 1
  23   14   24 1
  24   14   25 1
  25   15   16 1
  26   15   26 1
  27   15   27 1
  28   16   17 1
  29   16   28 1
  30   17   18 1
  31   17   29 1
  32   17   30 1
  33   18   31 1
  34   18   32 1

#	End of record

