#	Name: ASD02038688
#	Creating user name:	WinNT
#	Creation time:	15. 06. 2019 20:17

#	Modifying user name:	WinNT
#	Modification time:	15. 06. 2019 20:17

#	Program:	/corina/corina34_cracker 3.40 0067  02.08.2006

@<TRIPOS>MOLECULE
ASD02038688
  41   42    0    0    0
SMALL
NO_CHARGES


@<TRIPOS>ATOM
   1 O1            -0.0164     1.3548     0.0095 O.3     
   2 C2             0.0230    -0.7053     1.1989 C.ar    
   3 C3             0.0412    -2.0865     1.1886 C.ar    
   4 C4             0.0391    -2.7702    -0.0132 C.ar    
   5 C5             0.0586    -4.2771    -0.0215 C.3     
   6 C6            -1.3772    -4.8057    -0.0112 C.3     
   7 C7            -1.3577    -6.3125    -0.0194 C.2     
   8 N8            -2.5161    -7.0015    -0.0125 N.am    
   9 N9            -2.4985    -8.3673    -0.0200 N.3     
  10 C10           -3.8629    -8.9115    -0.0104 C.3     
  11 C11           -5.2022   -10.9985    -0.0094 C.ar    
  12 C12            0.0021    -0.0041     0.0020 C.ar    
  13 C13           -0.0004    -0.6924    -1.2025 C.ar    
  14 C14            0.0179    -2.0737    -1.2074 C.ar    
  15 C15           -3.8024   -10.4402    -0.0192 C.3     
  16 O16           -0.2997    -6.9053    -0.0323 O.2     
  17 C17           -5.8549   -11.2480    -1.2025 C.ar    
  18 C18           -7.1386   -11.7599    -1.1948 C.ar    
  19 C19           -7.7713   -12.0230     0.0070 C.ar    
  20 C20           -7.1177   -11.7732     1.2017 C.ar    
  21 C21           -5.8306   -11.2660     1.1921 C.ar    
  22 Cl22          -7.9101   -12.1028     2.7107 Cl      
  23 Cl23          -9.3840   -12.6655     0.0172 Cl      
  24 H24            0.8616     1.7601     0.0033 H       
  25 H25            0.0201    -0.1718     2.1379 H       
  26 H26            0.0578    -2.6329     2.1201 H       
  27 H27            0.5689    -4.6289    -0.9181 H       
  28 H28            0.5852    -4.6385     0.8618 H       
  29 H29           -1.8875    -4.4538     0.8854 H       
  30 H30           -1.9038    -4.4443    -0.8944 H       
  31 H31           -3.3623    -6.5274    -0.0022 H       
  32 H32           -1.9749    -8.7179    -0.8081 H       
  33 H33           -4.3826    -8.5736     0.8862 H       
  34 H34           -4.3989    -8.5640    -0.8937 H       
  35 H35           -0.0170    -0.1488    -2.1356 H       
  36 H36            0.0159    -2.6100    -2.1448 H       
  37 H37           -3.2828   -10.7782    -0.9158 H       
  38 H38           -3.2665   -10.7877     0.8640 H       
  39 H39           -5.3615   -11.0423    -2.1409 H       
  40 H40           -7.6480   -11.9542    -2.1271 H       
  41 H41           -5.3200   -11.0712     2.1237 H       
@<TRIPOS>BOND
   1    1   12 1
   2    1   24 1
   3    2    3 ar
   4    2   12 ar
   5    2   25 1
   6    3    4 ar
   7    3   26 1
   8    4    5 1
   9    4   14 ar
  10    5    6 1
  11    5   27 1
  12    5   28 1
  13    6    7 1
  14    6   29 1
  15    6   30 1
  16    7    8 am
  17    7   16 2
  18    8    9 1
  19    8   31 1
  20    9   10 1
  21    9   32 1
  22   10   15 1
  23   10   33 1
  24   10   34 1
  25   11   17 ar
  26   11   15 1
  27   11   21 ar
  28   12   13 ar
  29   13   14 ar
  30   13   35 1
  31   14   36 1
  32   15   37 1
  33   15   38 1
  34   17   18 ar
  35   17   39 1
  36   18   19 ar
  37   18   40 1
  38   19   20 ar
  39   19   23 1
  40   20   21 ar
  41   20   22 1
  42   21   41 1

#	End of record

