#	Name: ASD01900197
#	Creating user name:	WinNT
#	Creation time:	15. 06. 2019 19:51

#	Modifying user name:	WinNT
#	Modification time:	15. 06. 2019 19:51

#	Program:	/corina/corina34_cracker 3.40 0067  02.08.2006

@<TRIPOS>MOLECULE
ASD01900197
  37   40    0    0    0
SMALL
NO_CHARGES


@<TRIPOS>ATOM
   1 C1             5.0004     0.7743    -0.0821 C.3     
   2 O2             4.6170    -0.6023    -0.0903 O.3     
   3 C3             3.7666     1.6392    -0.0515 C.ar    
   4 C4             2.5193     1.0469    -0.0364 C.ar    
   5 C5             1.3862     1.8486    -0.0077 C.ar    
   6 C6             1.5495     3.2224     0.0047 C.ar    
   7 C7             2.8359     3.7508    -0.0118 C.ar    
   8 N8             3.8923     2.9523    -0.0340 N.ar    
   9 N9             3.0147     5.1307    -0.0000 N.pl3   
  10 S10            4.6906     7.3766    -0.0097 S.3     
  11 C11            4.2918     5.6637     0.0953 C.2     
  12 N12            5.3797     4.9781     0.2763 N.2     
  13 C13            6.5122     5.6538     0.3596 C.2     
  14 C14            7.8752     5.1297     0.7064 C.2     
  15 C15            8.6852     5.8447     1.6122 C.2     
  16 C16            8.2052     7.0531     2.3570 C.3     
  17 C17            8.1461     8.3110     1.4732 C.3     
  18 C18            7.5663     7.9196     0.1048 C.3     
  19 C19            6.3940     6.9925     0.1808 C.2     
  20 N20            9.8294     5.2285     1.6815 N.2     
  21 N21            9.7675     4.0839     0.8703 N.pl3   
  22 C22            8.5433     4.0422     0.2880 C.2     
  23 H23            5.6081     0.9770     0.7998 H       
  24 H24            5.5774     0.9962    -0.9798 H       
  25 H25            5.3623    -1.2180    -0.1098 H       
  26 H26            2.4262    -0.0290    -0.0471 H       
  27 H27            0.3994     1.4097     0.0042 H       
  28 H28            0.6897     3.8756     0.0266 H       
  29 H29            2.2464     5.7198    -0.0585 H       
  30 H30            7.2085     6.8516     2.7495 H       
  31 H31            8.8788     7.2417     3.1929 H       
  32 H32            7.5057     9.0581     1.9420 H       
  33 H33            9.1502     8.7149     1.3434 H       
  34 H34            7.2577     8.8273    -0.4137 H       
  35 H35            8.3510     7.4396    -0.4800 H       
  36 H36           10.4780     3.4351     0.7474 H       
  37 H37            8.1760     3.2804    -0.3836 H       
@<TRIPOS>BOND
   1    1    2 1
   2    1    3 1
   3    1   23 1
   4    1   24 1
   5    2   25 1
   6    3    4 ar
   7    3    8 ar
   8    4    5 ar
   9    4   26 1
  10    5    6 ar
  11    5   27 1
  12    6    7 ar
  13    6   28 1
  14    7    8 ar
  15    7    9 1
  16    9   11 1
  17    9   29 1
  18   10   11 1
  19   10   19 1
  20   11   12 2
  21   12   13 1
  22   13   14 1
  23   13   19 2
  24   14   15 1
  25   14   22 2
  26   15   16 1
  27   15   20 2
  28   16   17 1
  29   16   30 1
  30   16   31 1
  31   17   18 1
  32   17   32 1
  33   17   33 1
  34   18   19 1
  35   18   34 1
  36   18   35 1
  37   20   21 1
  38   21   22 1
  39   21   36 1
  40   22   37 1

#	End of record

