#	Name: ASD03240409
#	Creating user name:	WinNT
#	Creation time:	15. 06. 2019 20:34

#	Modifying user name:	WinNT
#	Modification time:	15. 06. 2019 20:34

#	Program:	/corina/corina34_cracker 3.40 0067  02.08.2006

@<TRIPOS>MOLECULE
ASD03240409
  37   39    0    0    0
SMALL
NO_CHARGES


@<TRIPOS>ATOM
   1 C1            -0.0688     1.4761     0.0646 C.ar    
   2 C2            -0.1573     0.0988    -0.0108 C.ar    
   3 C3             2.2791     2.5202    -2.2617 C.ar    
   4 C4             1.3907     2.9284    -1.2833 C.ar    
   5 C5             1.2784     2.1486     0.0014 C.3     
   6 C6             2.3859     3.2308    -3.4402 C.ar    
   7 C7             1.5971     4.3609    -3.6432 C.ar    
   8 C8             0.7044     4.7679    -2.6543 C.ar    
   9 C9             0.6055     4.0500    -1.4795 C.ar    
  10 C10            1.7081     5.1294    -4.9087 C.2     
  11 C11           -1.3923    -0.5200     0.0466 C.ar    
  12 C12           -2.5406     0.2388     0.1795 C.ar    
  13 C13           -2.4525     1.6198     0.2551 C.ar    
  14 C14           -1.2155     2.2375     0.1922 C.ar    
  15 F15           -3.5734     2.3627     0.3850 F       
  16 C16            1.0001     6.2485    -5.2371 C.2     
  17 N17            1.3964     6.6358    -6.4662 N.pl3   
  18 N18            2.3732     5.7382    -6.9141 N.2     
  19 C19            2.5679     4.8393    -5.9859 C.2     
  20 Cl20          -4.0916    -0.5379     0.2510 Cl      
  21 C21            1.4299     3.0997     1.1902 C.3     
  22 N22            1.4403     2.3254     2.4386 N.3     
  23 H23            0.7391    -0.4945    -0.1149 H       
  24 H24            2.8934     1.6465    -2.1015 H       
  25 H25            2.0635     1.3934     0.0379 H       
  26 H26            3.0801     2.9114    -4.2034 H       
  27 H27            0.0905     5.6433    -2.8067 H       
  28 H28           -0.0866     4.3645    -0.7123 H       
  29 H29           -1.4602    -1.5963    -0.0127 H       
  30 H30           -1.1455     3.3136     0.2514 H       
  31 H31            0.2568     6.7358    -4.6236 H       
  32 H32            1.0622     7.4036    -6.9559 H       
  33 H33            3.2620     4.0135    -6.0386 H       
  34 H34            2.3652     3.6515     1.0972 H       
  35 H35            0.5947     3.8000     1.2040 H       
  36 H36            1.5394     2.9315     3.2392 H       
  37 H37            0.6117     1.7551     2.5172 H       
@<TRIPOS>BOND
   1    1    2 ar
   2    1    5 1
   3    1   14 ar
   4    2   11 ar
   5    2   23 1
   6    3    4 ar
   7    3    6 ar
   8    3   24 1
   9    4    5 1
  10    4    9 ar
  11    5   21 1
  12    5   25 1
  13    6    7 ar
  14    6   26 1
  15    7    8 ar
  16    7   10 1
  17    8    9 ar
  18    8   27 1
  19    9   28 1
  20   10   16 2
  21   10   19 1
  22   11   12 ar
  23   11   29 1
  24   12   13 ar
  25   12   20 1
  26   13   14 ar
  27   13   15 1
  28   14   30 1
  29   16   17 1
  30   16   31 1
  31   17   18 1
  32   17   32 1
  33   18   19 2
  34   19   33 1
  35   21   22 1
  36   21   34 1
  37   21   35 1
  38   22   36 1
  39   22   37 1

#	End of record

