#	Name: ASD01912632
#	Creating user name:	WinNT
#	Creation time:	15. 06. 2019 20:00

#	Modifying user name:	WinNT
#	Modification time:	15. 06. 2019 20:00

#	Program:	/corina/corina34_cracker 3.40 0067  02.08.2006

@<TRIPOS>MOLECULE
ASD01912632
  38   41    0    0    0
SMALL
NO_CHARGES


@<TRIPOS>ATOM
   1 C1            -0.1014     1.1731     0.6598 C.2     
   2 N2             0.0084     0.0098    -0.0435 N.pl3   
   3 C3            -1.0889    -0.5034    -0.6992 C.2     
   4 C4            -2.2654     0.1167    -0.6614 C.2     
   5 N5            -2.4405     1.2961     0.0319 N.am    
   6 C6            -1.4058     1.8501     0.7017 C.2     
   7 N7             1.0797     1.4377     1.1834 N.2     
   8 C8             1.9426     0.4911     0.8444 C.2     
   9 N9             1.3390    -0.4048     0.0953 N.2     
  10 O10           -1.5480     2.8910     1.3174 O.2     
  11 C11           -3.6946     1.9180     0.0463 C.ar    
  12 C12            3.3924     0.4486     1.2535 C.3     
  13 O13            3.5188    -0.2626     2.4865 O.3     
  14 C14            4.7711    -0.3927     2.9981 C.ar    
  15 C15            4.9668    -1.0714     4.1921 C.ar    
  16 C16            6.2407    -1.2023     4.7101 C.ar    
  17 C17            7.3203    -0.6577     4.0395 C.ar    
  18 C18            7.1278     0.0196     2.8496 C.ar    
  19 C19            5.8566     0.1479     2.3243 C.ar    
  20 C20           -4.6151     1.6041     1.0378 C.ar    
  21 C21           -5.8517     2.2187     1.0501 C.ar    
  22 C22           -6.1742     3.1475     0.0747 C.ar    
  23 C23           -5.2580     3.4616    -0.9151 C.ar    
  24 C24           -4.0180     2.8539    -0.9276 C.ar    
  25 F25           -7.3846     3.7476     0.0886 F       
  26 H26           -0.9925    -1.4250    -1.2540 H       
  27 H27           -3.1046    -0.3142    -1.1873 H       
  28 H28            3.9731    -0.0564     0.4816 H       
  29 H29            3.7639     1.4654     1.3808 H       
  30 H30            4.1238    -1.4968     4.7165 H       
  31 H31            6.3936    -1.7303     5.6398 H       
  32 H32            8.3155    -0.7611     4.4461 H       
  33 H33            7.9726     0.4448     2.3280 H       
  34 H34            5.7068     0.6770     1.3947 H       
  35 H35           -4.3642     0.8797     1.7984 H       
  36 H36           -6.5679     1.9747     1.8208 H       
  37 H37           -5.5117     4.1859    -1.6751 H       
  38 H38           -3.3036     3.0995    -1.6995 H       
@<TRIPOS>BOND
   1    1    2 1
   2    1    7 2
   3    1    6 1
   4    2    3 1
   5    2    9 1
   6    3    4 2
   7    3   26 1
   8    4    5 1
   9    4   27 1
  10    5    6 am
  11    5   11 1
  12    6   10 2
  13    7    8 1
  14    8    9 2
  15    8   12 1
  16   11   20 ar
  17   11   24 ar
  18   12   13 1
  19   12   28 1
  20   12   29 1
  21   13   14 1
  22   14   15 ar
  23   14   19 ar
  24   15   16 ar
  25   15   30 1
  26   16   17 ar
  27   16   31 1
  28   17   18 ar
  29   17   32 1
  30   18   19 ar
  31   18   33 1
  32   19   34 1
  33   20   21 ar
  34   20   35 1
  35   21   22 ar
  36   21   36 1
  37   22   23 ar
  38   22   25 1
  39   23   24 ar
  40   23   37 1
  41   24   38 1

#	End of record

