#	Name: ASD01914160
#	Creating user name:	WinNT
#	Creation time:	15. 06. 2019 20:02

#	Modifying user name:	WinNT
#	Modification time:	15. 06. 2019 20:02

#	Program:	/corina/corina34_cracker 3.40 0067  02.08.2006

@<TRIPOS>MOLECULE
ASD01914160
  45   48    0    0    0
SMALL
NO_CHARGES


@<TRIPOS>ATOM
   1 C1            -2.8294    -0.0747    -1.2490 C.2     
   2 C2            -2.1947    -1.3499    -0.8555 C.2     
   3 N3            -2.8122    -2.4163    -0.2947 N.2     
   4 C4            -1.8743    -3.3125    -0.1174 C.2     
   5 O5            -0.7316    -2.7824    -0.5649 O.3     
   6 N6            -0.9295    -1.6634    -0.9889 N.2     
   7 C7            -2.0501    -4.6847     0.4802 C.3     
   8 C8            -1.6356    -5.7444    -0.5432 C.3     
   9 C9            -0.1783    -5.5186    -0.9523 C.3     
  10 C10            0.7212    -5.6584     0.2798 C.3     
  11 N11            0.2389    -4.7440     1.3238 N.am    
  12 C12           -1.1718    -4.8151     1.7285 C.3     
  13 C13            1.0745    -3.8568     1.8992 C.2     
  14 C14            0.5489    -2.8578     2.8521 C.ar    
  15 O15            2.2607    -3.8786     1.6340 O.2     
  16 C16           -2.1994     0.9945    -1.8135 C.2     
  17 C17           -3.1685     1.9881    -2.0242 C.2     
  18 C18           -4.3540     1.5050    -1.5873 C.2     
  19 N19           -4.1579     0.2406    -1.1163 N.pl3   
  20 F20           -2.9554     3.2074    -2.5656 F       
  21 C21            0.8441    -1.4901     4.8041 C.ar    
  22 C22           -1.2280    -1.4185     3.5863 C.ar    
  23 C23           -0.7424    -2.3501     2.6940 C.ar    
  24 C24            1.3395    -2.4220     3.9176 C.ar    
  25 C25            2.1608    -5.2980    -0.0926 C.3     
  26 C26           -0.4368    -0.9853     4.6394 C.ar    
  27 F27           -0.9178    -0.0724     5.5114 F       
  28 H28           -3.0951    -4.8316     0.7531 H       
  29 H29           -1.7395    -6.7357    -0.1019 H       
  30 H30           -2.2754    -5.6698    -1.4226 H       
  31 H31            0.1091    -6.2593    -1.6985 H       
  32 H32           -0.0688    -4.5182    -1.3710 H       
  33 H33            0.6823    -6.6843     0.6462 H       
  34 H34           -1.3952    -4.0019     2.4191 H       
  35 H35           -1.3651    -5.7722     2.2130 H       
  36 H36           -1.1488     1.0642    -2.0541 H       
  37 H37           -5.2972     2.0305    -1.6113 H       
  38 H38           -4.8422    -0.3370    -0.7434 H       
  39 H39            1.4560    -1.1496     5.6263 H       
  40 H40           -2.2265    -1.0252     3.4650 H       
  41 H41           -1.3593    -2.6865     1.8739 H       
  42 H42            2.3372    -2.8148     4.0470 H       
  43 H43            2.2194    -4.2360    -0.3309 H       
  44 H44            2.8195    -5.5188     0.7474 H       
  45 H45            2.4690    -5.8825    -0.9594 H       
@<TRIPOS>BOND
   1    1    2 1
   2    1   16 2
   3    1   19 1
   4    2    3 1
   5    2    6 2
   6    3    4 2
   7    4    5 1
   8    4    7 1
   9    5    6 1
  10    7    8 1
  11    7   12 1
  12    7   28 1
  13    8    9 1
  14    8   29 1
  15    8   30 1
  16    9   10 1
  17    9   31 1
  18    9   32 1
  19   10   11 1
  20   10   25 1
  21   10   33 1
  22   11   12 1
  23   11   13 am
  24   12   34 1
  25   12   35 1
  26   13   14 1
  27   13   15 2
  28   14   24 ar
  29   14   23 ar
  30   16   17 1
  31   16   36 1
  32   17   18 2
  33   17   20 1
  34   18   19 1
  35   18   37 1
  36   19   38 1
  37   21   26 ar
  38   21   24 ar
  39   21   39 1
  40   22   23 ar
  41   22   26 ar
  42   22   40 1
  43   23   41 1
  44   24   42 1
  45   25   43 1
  46   25   44 1
  47   25   45 1
  48   26   27 1

#	End of record

