#	Name: ASD03200036
#	Creating user name:	WinNT
#	Creation time:	15. 06. 2019 20:34

#	Modifying user name:	WinNT
#	Modification time:	15. 06. 2019 20:34

#	Program:	/corina/corina34_cracker 3.40 0067  02.08.2006

@<TRIPOS>MOLECULE
ASD03200036
  54   57    0    0    0
SMALL
NO_CHARGES


@<TRIPOS>ATOM
   1 C1             0.6662    -2.4902    -0.0403 C.3     
   2 N2             0.1962    -1.1616     0.3727 N.3     
   3 C3             0.6930    -0.8148     1.7103 C.3     
   4 C4             2.2225    -0.7671     1.6913 C.3     
   5 C5             2.7656    -2.1332     1.2631 C.3     
   6 C6             2.1949    -2.4925    -0.1116 C.3     
   7 C7            -1.1949    -1.0855     0.3212 C.ar    
   8 C8            -1.9460    -0.9329     1.4840 C.ar    
   9 C9            -3.3212    -0.8616     1.3912 C.ar    
  10 N10           -3.9278    -0.9359     0.2217 N.ar    
  11 C11           -3.2566    -1.0805    -0.9055 C.ar    
  12 C12           -1.8736    -1.1546    -0.9013 C.ar    
  13 N13           -1.1654    -1.3077    -2.1009 N.am    
  14 C14           -1.6896    -2.0391    -3.1043 C.2     
  15 C15           -0.9102    -2.2776    -4.3213 C.2     
  16 O16           -2.8110    -2.5016    -2.9991 O.2     
  17 C17           -1.4252    -2.9270    -5.4210 C.2     
  18 S18           -0.1655    -2.9999    -6.6506 S.3     
  19 C19            0.9429    -2.1513    -5.5790 C.2     
  20 N20            0.3557    -1.8788    -4.4582 N.2     
  21 C21            2.3380    -1.7967    -5.9121 C.ar    
  22 N22            2.7198    -0.4408     3.0345 N.3     
  23 N23           -2.7044    -3.4329    -5.5391 N.pl3   
  24 C24            2.9018    -2.2273    -7.1142 C.ar    
  25 C25            4.2037    -1.8945    -7.4216 C.ar    
  26 C26            4.9558    -1.1316    -6.5377 C.ar    
  27 C27            4.4010    -0.7006    -5.3402 C.ar    
  28 C28            3.0959    -1.0238    -5.0266 C.ar    
  29 F29            2.5557    -0.6041    -3.8616 F       
  30 O30            6.2384    -0.8065    -6.8456 O.3     
  31 C31            6.9550    -0.0197    -5.8919 C.3     
  32 H32            0.3353    -3.2340     0.6845 H       
  33 H33            0.2565    -2.7316    -1.0211 H       
  34 H34            0.3029     0.1606     2.0011 H       
  35 H35            0.3620    -1.5665     2.4269 H       
  36 H36            2.5542    -0.0060     0.9850 H       
  37 H37            3.8533    -2.0913     1.2063 H       
  38 H38            2.4668    -2.8882     1.9902 H       
  39 H39            2.5441    -3.4831    -0.4030 H       
  40 H40            2.5261    -1.7585    -0.8462 H       
  41 H41           -1.4587    -0.8716     2.4458 H       
  42 H42           -3.9096    -0.7437     2.2892 H       
  43 H43           -3.7915    -1.1374    -1.8419 H       
  44 H44           -0.2979    -0.8873    -2.2091 H       
  45 H45            3.7274    -0.4831     3.0673 H       
  46 H46            2.3860     0.4631     3.3340 H       
  47 H47           -3.3306    -3.3447    -4.8036 H       
  48 H48           -2.9768    -3.8767    -6.3575 H       
  49 H49            2.3187    -2.8209    -7.8027 H       
  50 H50            4.6400    -2.2280    -8.3516 H       
  51 H51            4.9894    -0.1079    -4.6554 H       
  52 H52            6.4399     0.9293    -5.7434 H       
  53 H53            7.0082    -0.5564    -4.9447 H       
  54 H54            7.9636     0.1680    -6.2603 H       
@<TRIPOS>BOND
   1    1    2 1
   2    1    6 1
   3    1   32 1
   4    1   33 1
   5    2    3 1
   6    2    7 1
   7    3    4 1
   8    3   34 1
   9    3   35 1
  10    4    5 1
  11    4   22 1
  12    4   36 1
  13    5    6 1
  14    5   37 1
  15    5   38 1
  16    6   39 1
  17    6   40 1
  18    7    8 ar
  19    7   12 ar
  20    8    9 ar
  21    8   41 1
  22    9   10 ar
  23    9   42 1
  24   10   11 ar
  25   11   12 ar
  26   11   43 1
  27   12   13 1
  28   13   14 am
  29   13   44 1
  30   14   15 1
  31   14   16 2
  32   15   17 2
  33   15   20 1
  34   17   18 1
  35   17   23 1
  36   18   19 1
  37   19   20 2
  38   19   21 1
  39   21   24 ar
  40   21   28 ar
  41   22   45 1
  42   22   46 1
  43   23   47 1
  44   23   48 1
  45   24   25 ar
  46   24   49 1
  47   25   26 ar
  48   25   50 1
  49   26   27 ar
  50   26   30 1
  51   27   28 ar
  52   27   51 1
  53   28   29 1
  54   30   31 1
  55   31   52 1
  56   31   53 1
  57   31   54 1

#	End of record

