#	Name: ASD08150951
#	Creating user name:	WinNT
#	Creation time:	15. 06. 2019 21:16

#	Modifying user name:	WinNT
#	Modification time:	15. 06. 2019 21:16

#	Program:	/corina/corina34_cracker 3.40 0067  02.08.2006

@<TRIPOS>MOLECULE
ASD08150951
  61   65    0    0    0
SMALL
NO_CHARGES


@<TRIPOS>ATOM
   1 C1            -4.1263     1.2461    -3.7674 C.2     
   2 C2            -5.2476     1.1041    -4.7642 C.3     
   3 C3            -5.0517     2.1113    -5.8991 C.3     
   4 O4            -3.3970     0.3049    -3.5369 O.2     
   5 N5            -3.9305     2.4207    -3.1363 N.am    
   6 C6            -5.2451    -0.3152    -5.3358 C.3     
   7 N7            -2.1201     4.7162    -1.3177 N.3     
   8 C8            -3.1607     3.6774    -1.1584 C.3     
   9 C9            -2.8405     2.5588    -2.1672 C.3     
  10 C10           -1.5454     3.0146    -2.8778 C.3     
  11 C11           -0.9311     4.0172    -1.8689 C.3     
  12 N12           -1.2446     3.2126     0.8815 N.ar    
  13 C13           -0.8372     2.4808     1.8899 C.ar    
  14 C14           -0.5319     3.0436     3.1273 C.ar    
  15 C15           -0.6543     4.3913     3.3118 C.ar    
  16 C16           -1.0917     5.1735     2.2261 C.ar    
  17 C17           -1.2404     6.5657     2.3425 C.ar    
  18 C18           -1.6655     7.2952     1.2726 C.ar    
  19 C19           -1.9568     6.6815     0.0581 C.ar    
  20 C20           -1.8236     5.3186    -0.0946 C.ar    
  21 C21           -1.3853     4.5360     0.9958 C.ar    
  22 C22           -2.4250     7.5181    -1.1047 C.3     
  23 C23           -3.9494     7.4395    -1.2084 C.3     
  24 N24           -2.0207     8.9110    -0.8983 N.pl3   
  25 N25           -0.9393    11.7711    -0.5803 N.2     
  26 C26           -0.1118    12.7724    -0.6581 C.2     
  27 N27            1.0473    12.3735    -1.2545 N.pl3   
  28 C28            0.9160    11.0423    -1.5593 C.ar    
  29 N29            1.6932    10.1298    -2.1332 N.ar    
  30 C30            1.2720     8.8925    -2.2900 C.ar    
  31 N31            0.0765     8.4952    -1.8945 N.ar    
  32 C32           -0.7701     9.3368    -1.3101 C.ar    
  33 C33           -0.3656    10.6690    -1.1202 C.ar    
  34 Cl34          -0.8840     7.3554     3.8469 Cl      
  35 H35           -6.1999     1.2948    -4.2695 H       
  36 H36           -4.0994     1.9205    -6.3939 H       
  37 H37           -5.8627     2.0085    -6.6201 H       
  38 H38           -5.0535     3.1224    -5.4919 H       
  39 H39           -4.5113     3.1747    -3.3236 H       
  40 H40           -5.3847    -1.0327    -4.5273 H       
  41 H41           -6.0561    -0.4179    -6.0568 H       
  42 H42           -4.2928    -0.5060    -5.8306 H       
  43 H43           -3.1366     3.2802    -0.1436 H       
  44 H44           -4.1427     4.0997    -1.3715 H       
  45 H45           -2.6745     1.6158    -1.6464 H       
  46 H46           -0.8757     2.1697    -3.0383 H       
  47 H47           -1.7766     3.5094    -3.8211 H       
  48 H48           -0.2729     4.7210    -2.3783 H       
  49 H49           -0.3951     3.4895    -1.0800 H       
  50 H50           -0.7359     1.4136     1.7581 H       
  51 H51           -0.1991     2.4148     3.9399 H       
  52 H52           -0.4222     4.8444     4.2643 H       
  53 H53           -1.7777     8.3651     1.3687 H       
  54 H54           -1.9784     7.1428    -2.0255 H       
  55 H55           -4.2921     8.0826    -2.0189 H       
  56 H56           -4.2473     6.4106    -1.4103 H       
  57 H57           -4.3949     7.7692    -0.2698 H       
  58 H58           -2.6297     9.5348    -0.4729 H       
  59 H59           -0.3138    13.7723    -0.3031 H       
  60 H60            1.8226    12.9290    -1.4312 H       
  61 H61            1.9287     8.1756    -2.7604 H       
@<TRIPOS>BOND
   1    1    2 1
   2    1    4 2
   3    1    5 am
   4    2    3 1
   5    2    6 1
   6    2   35 1
   7    3   36 1
   8    3   37 1
   9    3   38 1
  10    5    9 1
  11    5   39 1
  12    6   40 1
  13    6   41 1
  14    6   42 1
  15    7    8 1
  16    7   11 1
  17    7   20 1
  18    8    9 1
  19    8   43 1
  20    8   44 1
  21    9   10 1
  22    9   45 1
  23   10   11 1
  24   10   46 1
  25   10   47 1
  26   11   48 1
  27   11   49 1
  28   12   13 ar
  29   12   21 ar
  30   13   14 ar
  31   13   50 1
  32   14   15 ar
  33   14   51 1
  34   15   16 ar
  35   15   52 1
  36   16   17 ar
  37   16   21 ar
  38   17   18 ar
  39   17   34 1
  40   18   19 ar
  41   18   53 1
  42   19   20 ar
  43   19   22 1
  44   20   21 ar
  45   22   23 1
  46   22   24 1
  47   22   54 1
  48   23   55 1
  49   23   56 1
  50   23   57 1
  51   24   32 1
  52   24   58 1
  53   25   26 2
  54   25   33 1
  55   26   27 1
  56   26   59 1
  57   27   28 1
  58   27   60 1
  59   28   29 ar
  60   28   33 ar
  61   29   30 ar
  62   30   31 ar
  63   30   61 1
  64   31   32 ar
  65   32   33 ar

#	End of record

