#	Name: ASD08150373
#	Creating user name:	WinNT
#	Creation time:	15. 06. 2019 21:15

#	Modifying user name:	WinNT
#	Modification time:	15. 06. 2019 21:15

#	Program:	/corina/corina34_cracker 3.40 0067  02.08.2006

@<TRIPOS>MOLECULE
ASD08150373
  66   71    0    0    0
SMALL
NO_CHARGES


@<TRIPOS>ATOM
   1 N1            -2.3048     0.2618     1.7732 N.am    
   2 C2            -2.6791    -1.0196     1.9539 C.2     
   3 C3            -1.7181    -2.0421     2.0878 C.2     
   4 C4            -0.3942    -1.7464     2.0359 C.2     
   5 C5             0.0030    -0.3994     1.8454 C.ar    
   6 C6             1.3627    -0.0386     1.7837 C.ar    
   7 N7             1.7262     1.2049     1.6079 N.ar    
   8 C8             0.8369     2.2009     1.4767 C.ar    
   9 C9            -0.5527     1.9300     1.5257 C.ar    
  10 C10           -0.9793     0.5945     1.7157 C.ar    
  11 C11           -1.4714     2.9752     1.3889 C.ar    
  12 C12           -1.0105     4.2691     1.2063 C.ar    
  13 C13            0.3664     4.5294     1.1589 C.ar    
  14 C14            1.2719     3.5233     1.2898 C.ar    
  15 O15           -3.8650    -1.2987     2.0028 O.2     
  16 C16           -1.9778     5.3833     1.0598 C.ar    
  17 C17           -3.2795     1.2592     1.6375 C.ar    
  18 C18           -3.8640     1.4952     0.3996 C.ar    
  19 C19           -4.8237     2.4778     0.2657 C.ar    
  20 C20           -5.2055     3.2308     1.3692 C.ar    
  21 C21           -4.6213     2.9945     2.6069 C.ar    
  22 C22           -3.6651     2.0079     2.7417 C.ar    
  23 N23           -6.1774     4.2266     1.2336 N.3     
  24 C24           -7.5197     3.6926     1.5030 C.3     
  25 C25           -6.1168     4.8436    -0.0988 C.3     
  26 C26           -7.1401     5.9789    -0.1794 C.3     
  27 N27           -8.4825     5.4449     0.0901 N.3     
  28 C28           -8.5430     4.8279     1.4225 C.3     
  29 C29           -2.8257     5.4543    -0.0441 C.ar    
  30 N30           -3.6755     6.4642    -0.1386 N.ar    
  31 C31           -3.7295     7.4001     0.7954 C.ar    
  32 N32           -2.9440     7.3735     1.8601 N.ar    
  33 C33           -2.0681     6.3928     2.0333 C.ar    
  34 C34           -5.0349     3.8114     3.8038 C.3     
  35 F35           -4.2136     3.4946     4.8911 F       
  36 F36           -4.9092     5.1725     3.5054 F       
  37 F37           -6.3660     3.5257     4.1260 F       
  38 O38           -4.6146     8.4159     0.6572 O.3     
  39 C39           -5.5049     8.3533    -0.4589 C.3     
  40 O40           -1.2666     6.3703     3.1250 O.3     
  41 C41           -1.4144     7.4404     4.0605 C.3     
  42 H42           -2.0361    -3.0640     2.2324 H       
  43 H43            0.3457    -2.5264     2.1387 H       
  44 H44            2.1191    -0.8030     1.8838 H       
  45 H45           -2.5321     2.7754     1.4249 H       
  46 H46            0.7125     5.5424     1.0157 H       
  47 H47            2.3288     3.7418     1.2509 H       
  48 H48           -3.5672     0.9098    -0.4581 H       
  49 H49           -5.2776     2.6617    -0.6969 H       
  50 H50           -3.2137     1.8214     3.7049 H       
  51 H51           -7.7632     2.9304     0.7628 H       
  52 H52           -7.5426     3.2524     2.4999 H       
  53 H53           -5.1169     5.2425    -0.2698 H       
  54 H54           -6.3443     4.0945    -0.8572 H       
  55 H55           -6.8967     6.7411     0.5608 H       
  56 H56           -7.1172     6.4191    -1.1762 H       
  57 H57           -9.1839     6.1636    -0.0078 H       
  58 H58           -9.5429     4.4290     1.5934 H       
  59 H59           -8.3155     5.5770     2.1808 H       
  60 H60           -2.7893     4.6957    -0.8120 H       
  61 H61           -6.3964     8.9432    -0.2461 H       
  62 H62           -5.0077     8.7523    -1.3430 H       
  63 H63           -5.7896     7.3167    -0.6389 H       
  64 H64           -0.7152     7.3012     4.8851 H       
  65 H65           -1.2066     8.3883     3.5641 H       
  66 H66           -2.4339     7.4478     4.4459 H       
@<TRIPOS>BOND
   1    1    2 am
   2    1   10 1
   3    1   17 1
   4    2    3 1
   5    2   15 2
   6    3    4 2
   7    3   42 1
   8    4    5 1
   9    4   43 1
  10    5    6 ar
  11    5   10 ar
  12    6    7 ar
  13    6   44 1
  14    7    8 ar
  15    8    9 ar
  16    8   14 ar
  17    9   10 ar
  18    9   11 ar
  19   11   12 ar
  20   11   45 1
  21   12   13 ar
  22   12   16 1
  23   13   14 ar
  24   13   46 1
  25   14   47 1
  26   16   29 ar
  27   16   33 ar
  28   17   18 ar
  29   17   22 ar
  30   18   19 ar
  31   18   48 1
  32   19   20 ar
  33   19   49 1
  34   20   21 ar
  35   20   23 1
  36   21   22 ar
  37   21   34 1
  38   22   50 1
  39   23   24 1
  40   23   25 1
  41   24   28 1
  42   24   51 1
  43   24   52 1
  44   25   26 1
  45   25   53 1
  46   25   54 1
  47   26   27 1
  48   26   55 1
  49   26   56 1
  50   27   28 1
  51   27   57 1
  52   28   58 1
  53   28   59 1
  54   29   30 ar
  55   29   60 1
  56   30   31 ar
  57   31   32 ar
  58   31   38 1
  59   32   33 ar
  60   33   40 1
  61   34   35 1
  62   34   36 1
  63   34   37 1
  64   38   39 1
  65   39   61 1
  66   39   62 1
  67   39   63 1
  68   40   41 1
  69   41   64 1
  70   41   65 1
  71   41   66 1

#	End of record

