#	Name: ASD03430671
#	Creating user name:	WinNT
#	Creation time:	15. 06. 2019 20:41

#	Modifying user name:	WinNT
#	Modification time:	15. 06. 2019 20:41

#	Program:	/corina/corina34_cracker 3.40 0067  02.08.2006

@<TRIPOS>MOLECULE
ASD03430671
  45   50    0    0    0
SMALL
NO_CHARGES


@<TRIPOS>ATOM
   1 C1             0.0550     1.3887    -0.1116 C.ar    
   2 C2             0.0528     0.0041    -0.0876 C.ar    
   3 C3             1.2438    -0.6909    -0.0598 C.ar    
   4 C4             2.4596    -0.0140    -0.0435 C.ar    
   5 C5             2.4588     1.3773    -0.0716 C.ar    
   6 C6             1.2661     2.0769    -0.1060 C.ar    
   7 O7             3.5086    -0.8840     0.0126 O.3     
   8 C8             1.5707    -2.1602    -0.0557 C.3     
   9 C9             3.0653    -2.1897    -0.4042 C.3     
  10 C10            0.3932    -3.8355     1.0065 C.ar    
  11 C11            1.2924    -2.8047     1.2697 C.ar    
  12 C12            0.7503    -2.9277    -1.0523 C.2     
  13 N13            0.0963    -3.8808    -0.3588 N.am    
  14 O14            0.6881    -2.7288    -2.2471 O.2     
  15 C15            1.7318    -2.5694     2.5529 C.ar    
  16 C16            1.2804    -3.3590     3.5960 C.ar    
  17 C17            0.3873    -4.3845     3.3464 C.ar    
  18 C18           -0.0560    -4.6245     2.0620 C.ar    
  19 C19           -0.7782    -4.8084    -0.9385 C.ar    
  20 O20           -0.9642     2.2969    -0.1475 O.3     
  21 C21           -0.3766     3.5497     0.2507 C.3     
  22 O22            1.0048     3.4169    -0.1381 O.3     
  23 C23           -0.4524    -6.1580    -0.9710 C.ar    
  24 N24           -1.2706    -7.0367    -1.5150 N.ar    
  25 C25           -2.4223    -6.6784    -2.0469 C.ar    
  26 C26           -2.8198    -5.3486    -2.0537 C.ar    
  27 C27           -1.9884    -4.3912    -1.4849 C.ar    
  28 O28           -4.0089    -4.9882    -2.6044 O.3     
  29 C29           -4.8082    -6.0327    -3.1631 C.3     
  30 H30           -0.8842    -0.5330    -0.0903 H       
  31 H31            3.3958     1.9145    -0.0662 H       
  32 H32            3.2103    -2.3238    -1.4761 H       
  33 H33            3.5784    -2.9703     0.1576 H       
  34 H34            2.4297    -1.7681     2.7457 H       
  35 H35            1.6253    -3.1748     4.6027 H       
  36 H36            0.0352    -5.0007     4.1604 H       
  37 H37           -0.7541    -5.4270     1.8749 H       
  38 H38           -0.8440     4.3782    -0.2814 H       
  39 H39           -0.4631     3.6879     1.3284 H       
  40 H40            0.4826    -6.4916    -0.5458 H       
  41 H41           -3.0645    -7.4291    -2.4833 H       
  42 H42           -2.2704    -3.3487    -1.4747 H       
  43 H43           -5.7277    -5.6098    -3.5677 H       
  44 H44           -4.2540    -6.5272    -3.9608 H       
  45 H45           -5.0527    -6.7579    -2.3869 H       
@<TRIPOS>BOND
   1    1    2 ar
   2    1    6 ar
   3    1   20 1
   4    2    3 ar
   5    2   30 1
   6    3    4 ar
   7    3    8 1
   8    4    5 ar
   9    4    7 1
  10    5    6 ar
  11    5   31 1
  12    6   22 1
  13    7    9 1
  14    8    9 1
  15    8   11 1
  16    8   12 1
  17    9   32 1
  18    9   33 1
  19   10   11 ar
  20   10   13 1
  21   10   18 ar
  22   11   15 ar
  23   12   13 am
  24   12   14 2
  25   13   19 1
  26   15   16 ar
  27   15   34 1
  28   16   17 ar
  29   16   35 1
  30   17   18 ar
  31   17   36 1
  32   18   37 1
  33   19   23 ar
  34   19   27 ar
  35   20   21 1
  36   21   22 1
  37   21   38 1
  38   21   39 1
  39   23   24 ar
  40   23   40 1
  41   24   25 ar
  42   25   26 ar
  43   25   41 1
  44   26   27 ar
  45   26   28 1
  46   27   42 1
  47   28   29 1
  48   29   43 1
  49   29   44 1
  50   29   45 1

#	End of record

