#	Name: ASD01913925
#	Creating user name:	WinNT
#	Creation time:	15. 06. 2019 20:02

#	Modifying user name:	WinNT
#	Modification time:	15. 06. 2019 20:02

#	Program:	/corina/corina34_cracker 3.40 0067  02.08.2006

@<TRIPOS>MOLECULE
ASD01913925
  42   44    0    0    0
SMALL
NO_CHARGES


@<TRIPOS>ATOM
   1 C1            -0.4191     1.3904     0.4091 C.ar    
   2 C2            -0.2930    -0.0315     0.2958 C.1     
   3 C3            -0.1897    -1.1973     0.2029 C.1     
   4 C4            -0.0636    -2.6192     0.0896 C.ar    
   5 C5             0.0416    -3.2183    -1.1740 C.ar    
   6 C6             0.1700    -5.3027    -0.0279 C.ar    
   7 N7             0.0712    -4.6539     1.1234 N.ar    
   8 N8            -0.0404    -3.3766     1.1822 N.ar    
   9 C9             0.1613    -4.5948    -1.2305 C.ar    
  10 C10           -0.6450     3.3580     1.7694 C.ar    
  11 C11           -0.4436     2.1868    -0.7390 C.ar    
  12 C12           -0.6628     4.1407     0.6283 C.ar    
  13 N13            0.2897    -6.6910    -0.0375 N.am    
  14 C14           -0.5240     1.9879     1.6681 C.ar    
  15 C15           -0.5652     3.5556    -0.6220 C.ar    
  16 C16           -0.8302    -7.4149    -0.0247 C.2     
  17 C17           -0.8466    -8.9160     0.0158 C.3     
  18 C18            0.5224    -9.4631    -0.3961 C.3     
  19 C19            1.6012    -8.7188     0.3998 C.3     
  20 C20            1.6309    -7.2608    -0.0666 C.3     
  21 O21           -1.8922    -6.8297    -0.0466 O.2     
  22 C22            0.5937   -10.9596    -0.0856 C.3     
  23 C23            0.7385    -9.2362    -1.8937 C.3     
  24 H24            0.0291    -2.6232    -2.0751 H       
  25 H25            0.2451    -5.1071    -2.1775 H       
  26 H26           -0.7216     3.8216     2.7418 H       
  27 H27           -0.3672     1.7316    -1.7153 H       
  28 H28           -0.7582     5.2131     0.7137 H       
  29 H29           -0.5106     1.3783     2.5594 H       
  30 H30           -0.5798     4.1728    -1.5081 H       
  31 H31           -1.0800    -9.2484     1.0273 H       
  32 H32           -1.6069    -9.2885    -0.6709 H       
  33 H33            1.3660    -8.7616     1.4633 H       
  34 H34            2.5724    -9.1794     0.2188 H       
  35 H35            2.0265    -7.2152    -1.0813 H       
  36 H36            2.2772    -6.6840     0.5950 H       
  37 H37           -0.1862   -11.4830    -0.6388 H       
  38 H38            1.5695   -11.3457    -0.3801 H       
  39 H39            0.4484   -11.1162     0.9833 H       
  40 H40            0.6961    -8.1686    -2.1092 H       
  41 H41            1.7139    -9.6269    -2.1833 H       
  42 H42           -0.0407    -9.7515    -2.4554 H       
@<TRIPOS>BOND
   1    1    2 1
   2    1   14 ar
   3    1   11 ar
   4    2    3 3
   5    3    4 1
   6    4    5 ar
   7    4    8 ar
   8    5    9 ar
   9    5   24 1
  10    6    7 ar
  11    6   13 1
  12    6    9 ar
  13    7    8 ar
  14    9   25 1
  15   10   12 ar
  16   10   14 ar
  17   10   26 1
  18   11   15 ar
  19   11   27 1
  20   12   15 ar
  21   12   28 1
  22   13   16 am
  23   13   20 1
  24   14   29 1
  25   15   30 1
  26   16   17 1
  27   16   21 2
  28   17   18 1
  29   17   31 1
  30   17   32 1
  31   18   19 1
  32   18   22 1
  33   18   23 1
  34   19   20 1
  35   19   33 1
  36   19   34 1
  37   20   35 1
  38   20   36 1
  39   22   37 1
  40   22   38 1
  41   22   39 1
  42   23   40 1
  43   23   41 1
  44   23   42 1

#	End of record

