#	Name: ASD03330879
#	Creating user name:	WinNT
#	Creation time:	15. 06. 2019 20:38

#	Modifying user name:	WinNT
#	Modification time:	15. 06. 2019 20:38

#	Program:	/corina/corina34_cracker 3.40 0067  02.08.2006

@<TRIPOS>MOLECULE
ASD03330879
  67   70    0    0    0
SMALL
NO_CHARGES


@<TRIPOS>ATOM
   1 N1            -0.1143     1.2730     0.4298 N.pl3   
   2 C2            -0.0295    -0.0795     0.3152 C.2     
   3 C3             1.2462    -0.8806     0.2991 C.3     
   4 N4             2.1116    -0.4312     1.4007 N.3     
   5 C5             2.9739     0.6748     0.9804 C.3     
   6 C6             2.2645     1.5639    -0.0370 C.3     
   7 C7             1.0188     2.1871     0.5987 C.3     
   8 C8            -1.4363     1.6060     0.3702 C.2     
   9 N9            -2.1401     0.5054     0.2425 N.2     
  10 C10           -1.3013    -0.5535     0.2082 C.2     
  11 C11           -1.6929    -1.9680     0.0775 C.2     
  12 O12           -0.8408    -2.8356     0.0579 O.2     
  13 N13           -2.9954    -2.3004    -0.0202 N.am    
  14 C14           -1.9845     2.9776     0.4386 C.ar    
  15 C15           -2.9538     3.3919    -0.4789 C.ar    
  16 C16           -3.4629     4.6746    -0.4101 C.ar    
  17 C17           -3.0139     5.5490     0.5655 C.ar    
  18 C18           -2.0511     5.1426     1.4788 C.ar    
  19 C19           -1.5400     3.8609     1.4230 C.ar    
  20 F20           -1.6169     6.0009     2.4274 F       
  21 F21           -3.5147     6.8022     0.6281 F       
  22 F22           -3.3919     2.5401    -1.4317 F       
  23 C23            2.9069    -1.5455     1.9335 C.3     
  24 C24           -4.7245    -3.7958    -0.8344 C.2     
  25 C25           -3.3847    -3.7067    -0.1501 C.3     
  26 C26           -3.4785    -4.3404     1.2393 C.3     
  27 C27           -4.0173    -5.7669     1.1140 C.3     
  28 N28           -4.9793    -4.8073    -1.6878 N.am    
  29 C29           -6.2720    -5.0784    -2.3337 C.3     
  30 C30           -6.0954    -6.3442    -3.1987 C.3     
  31 C31           -4.8704    -7.0407    -2.5495 C.3     
  32 C32           -4.0064    -5.8213    -2.1334 C.3     
  33 O33           -5.5734    -2.9574    -0.6170 O.2     
  34 C34           -2.0891    -4.3743     1.8792 C.3     
  35 C35           -4.4229    -3.5136     2.1142 C.3     
  36 H36            1.0140    -1.9380     0.4261 H       
  37 H37            1.7586    -0.7306    -0.6512 H       
  38 H38            3.2416     1.2716     1.8524 H       
  39 H39            3.8814     0.2709     0.5317 H       
  40 H40            2.9407     2.3552    -0.3605 H       
  41 H41            1.9704     0.9650    -0.8989 H       
  42 H42            0.7970     3.1364     0.1111 H       
  43 H43            1.1967     2.3546     1.6609 H       
  44 H44           -3.6750    -1.6084    -0.0045 H       
  45 H45           -4.2121     4.9959    -1.1186 H       
  46 H46           -0.7941     3.5444     2.1369 H       
  47 H47            3.4809    -2.0007     1.1265 H       
  48 H48            3.5880    -1.1727     2.6984 H       
  49 H49            2.2417    -2.2900     2.3710 H       
  50 H50           -2.6386    -4.2371    -0.7418 H       
  51 H51           -3.3038    -6.3774     0.5604 H       
  52 H52           -4.1623    -6.1892     2.1083 H       
  53 H53           -4.9695    -5.7503     0.5838 H       
  54 H54           -7.0361    -5.2510    -1.5758 H       
  55 H55           -6.5556    -4.2354    -2.9637 H       
  56 H56           -6.9784    -6.9801    -3.1364 H       
  57 H57           -5.8834    -6.0772    -4.2341 H       
  58 H58           -5.1693    -7.6267    -1.6805 H       
  59 H59           -4.3439    -7.6611    -3.2748 H       
  60 H60           -3.4347    -5.4505    -2.9842 H       
  61 H61           -3.3386    -6.0916    -1.3154 H       
  62 H62           -1.7053    -3.3581     1.9685 H       
  63 H63           -2.1559    -4.8258     2.8690 H       
  64 H64           -1.4164    -4.9633     1.2559 H       
  65 H65           -5.4127    -3.4894     1.6584 H       
  66 H66           -4.4897    -3.9650     3.1041 H       
  67 H67           -4.0390    -2.4973     2.2035 H       
@<TRIPOS>BOND
   1    1    2 1
   2    1    7 1
   3    1    8 1
   4    2    3 1
   5    2   10 2
   6    3    4 1
   7    3   36 1
   8    3   37 1
   9    4    5 1
  10    4   23 1
  11    5    6 1
  12    5   38 1
  13    5   39 1
  14    6    7 1
  15    6   40 1
  16    6   41 1
  17    7   42 1
  18    7   43 1
  19    8    9 2
  20    8   14 1
  21    9   10 1
  22   10   11 1
  23   11   12 2
  24   11   13 am
  25   13   25 1
  26   13   44 1
  27   14   15 ar
  28   14   19 ar
  29   15   16 ar
  30   15   22 1
  31   16   17 ar
  32   16   45 1
  33   17   18 ar
  34   17   21 1
  35   18   19 ar
  36   18   20 1
  37   19   46 1
  38   23   47 1
  39   23   48 1
  40   23   49 1
  41   24   28 am
  42   24   33 2
  43   24   25 1
  44   25   26 1
  45   25   50 1
  46   26   27 1
  47   26   34 1
  48   26   35 1
  49   27   51 1
  50   27   52 1
  51   27   53 1
  52   28   29 1
  53   28   32 1
  54   29   30 1
  55   29   54 1
  56   29   55 1
  57   30   31 1
  58   30   56 1
  59   30   57 1
  60   31   32 1
  61   31   58 1
  62   31   59 1
  63   32   60 1
  64   32   61 1
  65   34   62 1
  66   34   63 1
  67   34   64 1
  68   35   65 1
  69   35   66 1
  70   35   67 1

#	End of record

