#	Name: ASD01914365
#	Creating user name:	WinNT
#	Creation time:	15. 06. 2019 20:03

#	Modifying user name:	WinNT
#	Modification time:	15. 06. 2019 20:03

#	Program:	/corina/corina34_cracker 3.40 0067  02.08.2006

@<TRIPOS>MOLECULE
ASD01914365
  46   49    0    0    0
SMALL
NO_CHARGES


@<TRIPOS>ATOM
   1 C1            -0.0147     1.3498    -0.0024 C.ar    
   2 C2            -0.0103    -0.0267     0.0068 C.ar    
   3 C3            -1.2767    -0.8433     0.0092 C.3     
   4 C4            -2.4600    -0.0099     0.4983 C.3     
   5 N5            -2.4350     1.2777    -0.2152 N.am    
   6 C6            -1.2860     2.1580     0.0251 C.3     
   7 C7            -3.4270     1.6331    -1.0555 C.2     
   8 C8            -3.4396     2.9847    -1.6546 C.ar    
   9 O9            -4.3113     0.8425    -1.3207 O.2     
  10 C10           -3.9108     3.1702    -2.9555 C.ar    
  11 C11            1.1952     2.0351    -0.0240 C.ar    
  12 C12            2.3741     1.3085    -0.0270 C.ar    
  13 C13            2.3053    -0.0716    -0.0078 C.ar    
  14 N14            1.1422    -0.6853     0.0085 N.ar    
  15 C15            3.7076     2.0100    -0.0513 C.3     
  16 O16            4.1439     2.2502     1.2881 O.3     
  17 C17            5.3381     2.8798     1.4444 C.ar    
  18 C18            5.8222     3.1446     2.7170 C.ar    
  19 C19            6.0772     3.2534     0.3314 C.ar    
  20 C20            7.2915     3.8930     0.4915 C.ar    
  21 C21            7.7714     4.1610     1.7596 C.ar    
  22 C22            7.0384     3.7852     2.8732 C.ar    
  23 F23            7.5092     4.0480     4.1120 F       
  24 C24           -2.9858     4.0807    -0.9201 C.ar    
  25 C25           -3.0003     5.3414    -1.4864 C.ar    
  26 C26           -3.4646     5.5165    -2.7800 C.ar    
  27 C27           -3.9204     4.4333    -3.5099 C.ar    
  28 F28           -2.5615     6.4045    -0.7775 F       
  29 H29           -1.4792    -1.1940    -1.0028 H       
  30 H30           -1.1477    -1.7031     0.6667 H       
  31 H31           -3.3924    -0.5321     0.2836 H       
  32 H32           -2.3716     0.1616     1.5711 H       
  33 H33           -1.3918     2.6348     0.9996 H       
  34 H34           -1.2466     2.9230    -0.7503 H       
  35 H35           -4.2670     2.3260    -3.5271 H       
  36 H36            1.2150     3.1148    -0.0385 H       
  37 H37            3.2160    -0.6522    -0.0065 H       
  38 H38            4.4379     1.3845    -0.5647 H       
  39 H39            3.6090     2.9597    -0.5771 H       
  40 H40            5.2502     2.8513     3.5849 H       
  41 H41            5.7037     3.0439    -0.6600 H       
  42 H42            7.8664     4.1836    -0.3753 H       
  43 H43            8.7211     4.6605     1.8824 H       
  44 H44           -2.6245     3.9444     0.0885 H       
  45 H45           -3.4750     6.5034    -3.2187 H       
  46 H46           -4.2808     4.5763    -4.5179 H       
@<TRIPOS>BOND
   1    1    2 ar
   2    1   11 ar
   3    1    6 1
   4    2    3 1
   5    2   14 ar
   6    3    4 1
   7    3   29 1
   8    3   30 1
   9    4    5 1
  10    4   31 1
  11    4   32 1
  12    5    6 1
  13    5    7 am
  14    6   33 1
  15    6   34 1
  16    7    8 1
  17    7    9 2
  18    8   10 ar
  19    8   24 ar
  20   10   27 ar
  21   10   35 1
  22   11   12 ar
  23   11   36 1
  24   12   13 ar
  25   12   15 1
  26   13   14 ar
  27   13   37 1
  28   15   16 1
  29   15   38 1
  30   15   39 1
  31   16   17 1
  32   17   18 ar
  33   17   19 ar
  34   18   22 ar
  35   18   40 1
  36   19   20 ar
  37   19   41 1
  38   20   21 ar
  39   20   42 1
  40   21   22 ar
  41   21   43 1
  42   22   23 1
  43   24   25 ar
  44   24   44 1
  45   25   26 ar
  46   25   28 1
  47   26   27 ar
  48   26   45 1
  49   27   46 1

#	End of record

