#	Name: ASD04880449
#	Creating user name:	WinNT
#	Creation time:	15. 06. 2019 20:53

#	Modifying user name:	WinNT
#	Modification time:	15. 06. 2019 20:53

#	Program:	/corina/corina34_cracker 3.40 0067  02.08.2006

@<TRIPOS>MOLECULE
ASD04880449
  49   52    0    0    0
SMALL
NO_CHARGES


@<TRIPOS>ATOM
   1 C1            -0.0056     1.3762     0.3069 C.ar    
   2 C2             0.0099    -0.0227     0.2724 C.ar    
   3 C3            -1.1646    -0.7174     0.2240 C.ar    
   4 C4            -2.3835    -0.0307     0.2083 C.ar    
   5 C5            -2.3992     1.3679     0.2423 C.ar    
   6 C6            -1.2250     2.0628     0.2975 C.ar    
   7 C7            -3.6501    -0.7801     0.1556 C.2     
   8 N8            -3.7537    -2.0648     0.1212 N.2     
   9 N9            -5.0669    -2.5285     0.0742 N.am    
  10 C10           -5.9796    -1.3743     0.0778 C.3     
  11 C11           -5.0298    -0.1618     0.1399 C.3     
  12 C12           -5.4401    -3.8229     0.0319 C.2     
  13 C13           -4.4179    -4.8830    -0.0940 C.ar    
  14 O14           -6.6177    -4.1185     0.0973 O.2     
  15 C15           -3.0843    -4.5445    -0.3134 C.ar    
  16 C16           -2.1271    -5.5501    -0.4310 C.ar    
  17 C17           -2.5096    -6.8895    -0.3283 C.ar    
  18 C18           -3.8332    -7.2182    -0.1112 C.ar    
  19 C19           -4.7859    -6.2268     0.0125 C.ar    
  20 C20            1.2261     2.1049     0.3576 C.1     
  21 C21            2.2359     2.7024     0.3992 C.1     
  22 C22           -0.7096    -5.2001    -0.6644 C.2     
  23 O23           -0.3783    -4.0341    -0.7540 O.2     
  24 N24            0.2151    -6.1741    -0.7779 N.am    
  25 C25            3.4675     3.4311     0.4500 C.ar    
  26 C26            3.4560     4.8283     0.4845 C.ar    
  27 C27            4.6462     5.5232     0.5333 C.ar    
  28 C28            5.8499     4.8406     0.5476 C.ar    
  29 C29            5.8693     3.4573     0.5137 C.ar    
  30 C30            4.6870     2.7485     0.4711 C.ar    
  31 H31            0.9508    -0.5528     0.2838 H       
  32 H32           -1.1527    -1.7970     0.1974 H       
  33 H33           -3.3401     1.8979     0.2298 H       
  34 H34           -1.2371     3.1424     0.3240 H       
  35 H35           -6.5752    -1.3535    -0.8349 H       
  36 H36           -6.6238    -1.3975     0.9568 H       
  37 H37           -5.2064     0.4161     1.0470 H       
  38 H38           -5.1516     0.4649    -0.7436 H       
  39 H39           -2.7938    -3.5073    -0.3924 H       
  40 H40           -1.7685    -7.6699    -0.4192 H       
  41 H41           -4.1237    -8.2555    -0.0332 H       
  42 H42           -5.8192    -6.4906     0.1825 H       
  43 H43           -0.0493    -7.1046    -0.7064 H       
  44 H44            1.1450    -5.9445    -0.9310 H       
  45 H45            2.5173     5.3623     0.4726 H       
  46 H46            4.6389     6.6029     0.5600 H       
  47 H47            6.7788     5.3902     0.5852 H       
  48 H48            6.8125     2.9314     0.5248 H       
  49 H49            4.7037     1.6689     0.4447 H       
@<TRIPOS>BOND
   1    1    2 ar
   2    1   20 1
   3    1    6 ar
   4    2    3 ar
   5    2   31 1
   6    3    4 ar
   7    3   32 1
   8    4    5 ar
   9    4    7 1
  10    5    6 ar
  11    5   33 1
  12    6   34 1
  13    7    8 2
  14    7   11 1
  15    8    9 1
  16    9   10 1
  17    9   12 am
  18   10   11 1
  19   10   35 1
  20   10   36 1
  21   11   37 1
  22   11   38 1
  23   12   13 1
  24   12   14 2
  25   13   15 ar
  26   13   19 ar
  27   15   16 ar
  28   15   39 1
  29   16   17 ar
  30   16   22 1
  31   17   18 ar
  32   17   40 1
  33   18   19 ar
  34   18   41 1
  35   19   42 1
  36   20   21 3
  37   21   25 1
  38   22   23 2
  39   22   24 am
  40   24   43 1
  41   24   44 1
  42   25   26 ar
  43   25   30 ar
  44   26   27 ar
  45   26   45 1
  46   27   28 ar
  47   27   46 1
  48   28   29 ar
  49   28   47 1
  50   29   30 ar
  51   29   48 1
  52   30   49 1

#	End of record

