#	Name: ASD03091258
#	Creating user name:	WinNT
#	Creation time:	15. 06. 2019 20:30

#	Modifying user name:	WinNT
#	Modification time:	15. 06. 2019 20:30

#	Program:	/corina/corina34_cracker 3.40 0067  02.08.2006

@<TRIPOS>MOLECULE
ASD03091258
  55   59    0    0    0
SMALL
NO_CHARGES


@<TRIPOS>ATOM
   1 N1             0.0503     1.1897     0.0784 N.2     
   2 C2             0.0566    -0.1070     0.0227 C.2     
   3 N3             1.1953    -0.8478    -0.0310 N.am    
   4 C4             2.4082    -0.2472    -0.0284 C.2     
   5 C5             2.4361     1.2217     0.0341 C.ar    
   6 C6             3.6319     1.9360     0.0423 C.ar    
   7 C7             3.5953     3.3188     0.1028 C.ar    
   8 C8             2.3741     3.9907     0.1550 C.ar    
   9 C9             1.1944     3.3028     0.1481 C.ar    
  10 C10            1.2022     1.9074     0.0872 C.ar    
  11 O11            3.4361    -0.8978    -0.0756 O.2     
  12 C12            1.1087    -2.3090    -0.0915 C.3     
  13 C13            0.9108    -2.7484    -1.5437 C.3     
  14 O14            2.0694    -2.4063    -2.3070 O.3     
  15 C15            1.9874    -2.7753    -3.6851 C.3     
  16 C16           -1.2664    -0.8286     0.0176 C.3     
  17 C17           -2.4580    -0.1238     0.6690 C.3     
  18 C18           -2.3831    -0.2504    -0.8540 C.3     
  19 N19            7.5092     4.8237    -0.7628 N.3     
  20 C20            7.2565     3.8995     0.3533 C.3     
  21 C21            5.9506     3.1489     0.1440 C.3     
  22 N22            4.7891     4.0456     0.1121 N.3     
  23 C23            4.8642     4.9496    -1.0442 C.3     
  24 C24            5.5101     6.2682    -0.6459 C.3     
  25 C25            7.0063     6.1640    -0.4291 C.3     
  26 C26            7.0904     4.3748    -2.0733 C.3     
  27 C27            5.5800     4.2444    -2.1817 C.3     
  28 H28            4.5779     1.4165     0.0023 H       
  29 H29            2.3613     5.0696     0.2019 H       
  30 H30            0.2567     3.8369     0.1897 H       
  31 H31            2.0294    -2.7439     0.2974 H       
  32 H32            0.2646    -2.6481     0.5089 H       
  33 H33            0.7577    -3.8270    -1.5793 H       
  34 H34            0.0392    -2.2437    -1.9604 H       
  35 H35            1.8566    -3.8545    -3.7651 H       
  36 H36            1.1381    -2.2712    -4.1462 H       
  37 H37            2.9049    -2.4817    -4.1951 H       
  38 H38           -1.2107    -1.9132     0.1108 H       
  39 H39           -3.1864    -0.7448     1.1904 H       
  40 H40           -2.2850     0.8617     1.1012 H       
  41 H41           -2.1608     0.6519    -1.4236 H       
  42 H42           -3.0623    -0.9546    -1.3345 H       
  43 H43            8.0757     3.1835     0.4191 H       
  44 H44            7.2001     4.4660     1.2828 H       
  45 H45            6.0031     2.6054    -0.7994 H       
  46 H46            5.8213     2.4325     0.9553 H       
  47 H47            3.8471     5.1576    -1.3762 H       
  48 H48            5.3209     7.0010    -1.4303 H       
  49 H49            5.0471     6.6198     0.2761 H       
  50 H50            7.2302     6.3781     0.6159 H       
  51 H51            7.5090     6.8993    -1.0574 H       
  52 H52            7.4379     5.0893    -2.8194 H       
  53 H53            7.5444     3.4050    -2.2766 H       
  54 H54            5.3137     3.1875    -2.1667 H       
  55 H55            5.2540     4.6769    -3.1276 H       
@<TRIPOS>BOND
   1    1    2 2
   2    1   10 1
   3    2    3 1
   4    2   16 1
   5    3    4 am
   6    3   12 1
   7    4    5 1
   8    4   11 2
   9    5    6 ar
  10    5   10 ar
  11    6    7 ar
  12    6   28 1
  13    7    8 ar
  14    7   22 1
  15    8    9 ar
  16    8   29 1
  17    9   10 ar
  18    9   30 1
  19   12   13 1
  20   12   31 1
  21   12   32 1
  22   13   14 1
  23   13   33 1
  24   13   34 1
  25   14   15 1
  26   15   35 1
  27   15   36 1
  28   15   37 1
  29   16   17 1
  30   16   18 1
  31   16   38 1
  32   17   18 1
  33   17   39 1
  34   17   40 1
  35   18   41 1
  36   18   42 1
  37   19   20 1
  38   19   25 1
  39   19   26 1
  40   20   21 1
  41   20   43 1
  42   20   44 1
  43   21   22 1
  44   21   45 1
  45   21   46 1
  46   22   23 1
  47   23   24 1
  48   23   27 1
  49   23   47 1
  50   24   25 1
  51   24   48 1
  52   24   49 1
  53   25   50 1
  54   25   51 1
  55   26   27 1
  56   26   52 1
  57   26   53 1
  58   27   54 1
  59   27   55 1

#	End of record

