#	Name: ASD01880879
#	Creating user name:	WinNT
#	Creation time:	15. 06. 2019 19:41

#	Modifying user name:	WinNT
#	Modification time:	15. 06. 2019 19:41

#	Program:	/corina/corina34_cracker 3.40 0067  02.08.2006

@<TRIPOS>MOLECULE
ASD01880879
  57   60    0    0    0
SMALL
NO_CHARGES


@<TRIPOS>ATOM
   1 N1            -0.0159     1.3184     0.0093 N.ar    
   2 C2             0.0021    -0.0041     0.0020 C.ar    
   3 N3             1.1373    -0.6838    -0.0120 N.ar    
   4 C4             2.3057    -0.0588    -0.0198 C.ar    
   5 C5             2.3330     1.3221    -0.0131 C.ar    
   6 C6             1.1188     2.0113     0.0022 C.ar    
   7 C7             3.6427     2.0675    -0.0211 C.3     
   8 O8             4.7230     1.1322    -0.0355 O.3     
   9 C9             5.9802     1.6431    -0.0442 C.ar    
  10 C10            7.0779     0.7880    -0.0584 C.ar    
  11 C11            8.3491     1.3062    -0.0677 C.ar    
  12 C12            8.5493     2.6906    -0.0630 C.ar    
  13 C13            7.4433     3.5449    -0.0491 C.ar    
  14 C14            6.1701     3.0198    -0.0448 C.ar    
  15 C15            9.7204     0.6779    -0.0833 C.3     
  16 N16           10.6797     1.7882    -0.0869 N.am    
  17 C17            9.9998     2.9475    -0.0751 C.2     
  18 O18           10.5095     4.0513    -0.0750 O.2     
  19 C19            7.6435     5.0386    -0.0433 C.3     
  20 N20            1.0967     3.3965     0.0089 N.pl3   
  21 C21           -0.1834     4.1086     0.0250 C.3     
  22 C22            0.0683     5.5944     0.0295 C.ar    
  23 C23            0.1719     6.2815    -1.1655 C.ar    
  24 C24            0.4028     7.6445    -1.1614 C.ar    
  25 C25            0.5298     8.3203     0.0378 C.ar    
  26 C26            0.4253     7.6334     1.2328 C.ar    
  27 C27            0.1900     6.2712     1.2287 C.ar    
  28 O28           -1.1717    -0.6800     0.0096 O.3     
  29 C29           -1.0986    -2.1071     0.0012 C.3     
  30 C30           12.6336     1.6151    -1.5477 C.3     
  31 C31           12.1386     1.6549    -0.1005 C.3     
  32 H32            3.2266    -0.6230    -0.0309 H       
  33 H33            3.6964     2.6982    -0.9085 H       
  34 H34            3.7124     2.6893     0.8714 H       
  35 H35            6.9300    -0.2818    -0.0618 H       
  36 H36            5.3159     3.6806    -0.0345 H       
  37 H37            9.8613     0.0638     0.8062 H       
  38 H38            9.8449     0.0722    -0.9810 H       
  39 H39            7.6830     5.4039    -1.0696 H       
  40 H40            6.8142     5.5143     0.4801 H       
  41 H41            8.5783     5.2779     0.4637 H       
  42 H42            1.9289     3.8948     0.0030 H       
  43 H43           -0.7595     3.8404    -0.8606 H       
  44 H44           -0.7419     3.8320     0.9193 H       
  45 H45            0.0727     5.7535    -2.1024 H       
  46 H46            0.4845     8.1812    -2.0950 H       
  47 H47            0.7109     9.3850     0.0410 H       
  48 H48            0.5248     8.1614     2.1697 H       
  49 H49            0.1083     5.7345     2.1623 H       
  50 H50           -0.5584    -2.4484     0.8843 H       
  51 H51           -2.1063    -2.5226     0.0086 H       
  52 H52           -0.5754    -2.4389    -0.8956 H       
  53 H53           12.1862     0.7641    -2.0614 H       
  54 H54           12.3481     2.5367    -2.0548 H       
  55 H55           13.7190     1.5159    -1.5578 H       
  56 H56           12.5860     2.5059     0.4132 H       
  57 H57           12.4241     0.7333     0.4067 H       
@<TRIPOS>BOND
   1    1    2 ar
   2    1    6 ar
   3    2    3 ar
   4    2   28 1
   5    3    4 ar
   6    4    5 ar
   7    4   32 1
   8    5    6 ar
   9    5    7 1
  10    6   20 1
  11    7    8 1
  12    7   33 1
  13    7   34 1
  14    8    9 1
  15    9   10 ar
  16    9   14 ar
  17   10   11 ar
  18   10   35 1
  19   11   12 ar
  20   11   15 1
  21   12   13 ar
  22   12   17 1
  23   13   14 ar
  24   13   19 1
  25   14   36 1
  26   15   16 1
  27   15   37 1
  28   15   38 1
  29   16   17 am
  30   16   31 1
  31   17   18 2
  32   19   39 1
  33   19   40 1
  34   19   41 1
  35   20   21 1
  36   20   42 1
  37   21   22 1
  38   21   43 1
  39   21   44 1
  40   22   23 ar
  41   22   27 ar
  42   23   24 ar
  43   23   45 1
  44   24   25 ar
  45   24   46 1
  46   25   26 ar
  47   25   47 1
  48   26   27 ar
  49   26   48 1
  50   27   49 1
  51   28   29 1
  52   29   50 1
  53   29   51 1
  54   29   52 1
  55   30   31 1
  56   30   53 1
  57   30   54 1
  58   30   55 1
  59   31   56 1
  60   31   57 1

#	End of record

