#	Name: ASD05740108
#	Creating user name:	WinNT
#	Creation time:	15. 06. 2019 21:02

#	Modifying user name:	WinNT
#	Modification time:	15. 06. 2019 21:02

#	Program:	/corina/corina34_cracker 3.40 0067  02.08.2006

@<TRIPOS>MOLECULE
ASD05740108
  51   52    0    0    0
SMALL
NO_CHARGES


@<TRIPOS>ATOM
   1 C1            -0.0184     1.5028     0.0103 C.3     
   2 C2            -2.6630     1.2503    -2.1331 C.ar    
   3 C3             1.2723    -0.7394    -0.0141 C.2     
   4 C4             1.2401    -2.1567    -0.0209 C.2     
   5 C5             0.0021    -0.0041     0.0020 C.2     
   6 C6            -1.1522    -0.7148     0.0097 C.2     
   7 C7            -1.1124    -2.1265     0.0026 C.2     
   8 O8             0.0472    -2.8008    -0.0125 O.3     
   9 C9            -2.4780     0.0014     0.0262 C.3     
  10 C10           -2.9925     0.1384    -1.3836 C.ar    
  11 C11           -3.7948    -0.8496    -1.9251 C.ar    
  12 O12           -2.1591    -2.7485     0.0101 O.2     
  13 C13           -3.1378     1.3757    -3.4327 C.ar    
  14 C14           -3.9424     0.3813    -3.9737 C.ar    
  15 C15           -4.2686    -0.7281    -3.2183 C.ar    
  16 N16           -2.8063     2.4991    -4.1936 N.am    
  17 S17           -3.9736     3.2766    -5.0741 S.o2    
  18 O18           -3.3354     4.3817    -5.6992 O.2     
  19 O19           -4.6683     2.2695    -5.7970 O.2     
  20 C20            2.5291    -2.5940    -0.0352 C.2     
  21 N21            3.3374    -1.5108    -0.0373 N.pl3   
  22 N22            2.5367    -0.3610    -0.0197 N.2     
  23 O23            2.9323    -3.8915    -0.0451 O.3     
  24 N24           -5.0590     3.9116    -3.9966 N.am    
  25 C25           -4.6391     4.9643    -3.0683 C.3     
  26 C26            4.3406    -4.1331    -0.0596 C.3     
  27 H27            1.0042     1.8801     0.0026 H       
  28 H28           -0.5455     1.8639    -0.8728 H       
  29 H29           -0.5286     1.8543     0.9071 H       
  30 H30           -2.0404     2.0237    -1.7079 H       
  31 H31           -3.1920    -0.5695     0.6198 H       
  32 H32           -2.3507     0.9914     0.4643 H       
  33 H33           -4.0513    -1.7181    -1.3367 H       
  34 H34           -4.3126     0.4754    -4.9839 H       
  35 H35           -4.8943    -1.5017    -3.6384 H       
  36 H36           -1.8924     2.8239    -4.2063 H       
  37 H37            4.3072    -1.5266    -0.0466 H       
  38 H38           -5.9727     3.5865    -3.9800 H       
  39 H39           -5.4827     5.2541    -2.4419 H       
  40 H40           -3.8302     4.5927    -2.4393 H       
  41 H41           -4.2919     5.8295    -3.6331 H       
  42 H42            4.5249    -5.2074    -0.0664 H       
  43 H43            4.7772    -3.6840    -0.9517 H       
  44 H44            4.7941    -3.6923     0.8282 H       
  45 C45           10.3213    13.4988     7.7754 C.3     
  46 N46           10.3411    12.0340     7.7673 N.2     
  47 C47           10.8819    11.4215     6.8213 C.1     
  48 O48           11.4044    10.8295     5.9071 O.2     
  49 H49           11.3439    13.8761     7.7676 H       
  50 H50            9.7941    13.8599     6.8923 H       
  51 H51            9.8111    13.8503     8.6722 H       
@<TRIPOS>BOND
   1    1    5 1
   2    1   27 1
   3    1   28 1
   4    1   29 1
   5    2   10 ar
   6    2   13 ar
   7    2   30 1
   8    3    4 1
   9    3    5 1
  10    3   22 2
  11    4   20 2
  12    4    8 1
  13    5    6 2
  14    6    7 1
  15    6    9 1
  16    7    8 1
  17    7   12 2
  18    9   10 1
  19    9   31 1
  20    9   32 1
  21   10   11 ar
  22   11   15 ar
  23   11   33 1
  24   13   14 ar
  25   13   16 1
  26   14   15 ar
  27   14   34 1
  28   15   35 1
  29   16   17 am
  30   16   36 1
  31   17   18 2
  32   17   19 2
  33   17   24 am
  34   20   21 1
  35   20   23 1
  36   21   22 1
  37   21   37 1
  38   23   26 1
  39   24   25 1
  40   24   38 1
  41   25   39 1
  42   25   40 1
  43   25   41 1
  44   26   42 1
  45   26   43 1
  46   26   44 1
  47   45   46 1
  48   45   49 1
  49   45   50 1
  50   45   51 1
  51   46   47 2
  52   47   48 2

#	End of record

