#	Name: ASD00842175
#	Creating user name:	WinNT
#	Creation time:	15. 06. 2019 18:43

#	Modifying user name:	WinNT
#	Modification time:	15. 06. 2019 18:43

#	Program:	/corina/corina34_cracker 3.40 0067  02.08.2006

@<TRIPOS>MOLECULE
ASD00842175
  89   94    0    0    0
SMALL
NO_CHARGES


@<TRIPOS>ATOM
   1 C1             0.9565     1.5347    -0.4684 C.ar    
   2 C2             1.2721     0.2014    -0.6841 C.ar    
   3 C3             1.2245    -0.6998     0.3699 C.ar    
   4 C4             0.8631    -0.2673     1.6309 C.ar    
   5 C5             0.5484     1.0624     1.8433 C.ar    
   6 C6             0.5956     1.9623     0.7949 C.ar    
   7 C7             1.5664    -2.1492     0.1389 C.3     
   8 C8             1.3206    -2.9584     1.3943 C.2     
   9 C9             0.7525    -2.7108    -1.0286 C.3     
  10 C10           -0.7155    -2.4899    -0.7698 C.2     
  11 N11           -1.6328    -2.9946    -1.6185 N.am    
  12 O12           -1.0716    -1.8579     0.2021 O.2     
  13 C13           -3.0601    -2.6926    -1.4443 C.3     
  14 C14           -3.8402    -4.0100    -1.3931 C.3     
  15 C15           -3.5204    -4.8363    -2.6409 C.3     
  16 C16           -2.0252    -5.1612    -2.6703 C.3     
  17 C17           -1.2240    -3.8522    -2.7392 C.3     
  18 N18           -4.2922    -6.0859    -2.6115 N.3     
  19 C19           -4.1016    -6.8520    -3.8510 C.3     
  20 C20           -4.8563    -8.1795    -3.7482 C.3     
  21 N21           -6.2819    -7.9125    -3.5115 N.3     
  22 C22           -6.4725    -7.1464    -2.2720 C.3     
  23 C23           -5.7178    -5.8189    -2.3747 C.3     
  24 C24           -7.0537    -9.1621    -3.4820 C.3     
  25 O25            0.2574    -3.1060     1.9591 O.2     
  26 N26            2.5003    -3.4832     1.7653 N.am    
  27 C27            3.0476    -2.3094    -0.1189 C.ar    
  28 C28            3.5354    -3.1223     0.8992 C.ar    
  29 C29            3.8813    -1.8227    -1.1015 C.ar    
  30 C30            5.7369    -2.9542    -0.0714 C.ar    
  31 C31            4.8872    -3.4444     0.9198 C.ar    
  32 C32            2.4583    -6.1125     2.5775 C.ar    
  33 C33            3.5302    -6.8602     2.1263 C.ar    
  34 C34            1.1947    -6.6715     2.6275 C.ar    
  35 C35            1.0002    -7.9791     2.2265 C.ar    
  36 C36            2.0741    -8.7314     1.7733 C.ar    
  37 C37            3.3409    -8.1680     1.7237 C.ar    
  38 O38            1.8855   -10.0181     1.3786 O.3     
  39 H39            4.5163    -6.4213     2.0882 H       
  40 C40            3.0364   -10.7325     0.9237 C.3     
  41 C41            5.2284    -2.1400    -1.0885 C.ar    
  42 F42            6.0477    -1.6644    -2.0517 F       
  43 C43            7.1298    -3.2860    -0.0489 C.1     
  44 N44            8.2347    -3.5492    -0.0310 N.1     
  45 O45            1.6270    -0.2218    -1.9259 O.3     
  46 C46            2.0757     0.1100    -4.2773 C.3     
  47 C47            1.5456     0.7342    -2.9849 C.3     
  48 S48            2.7043    -4.4467     3.0966 S.o2    
  49 O49            4.0727    -4.3389     3.4642 O.2     
  50 O50            1.6354    -4.1402     3.9814 O.2     
  51 H51            0.9971     2.2389    -1.2862 H       
  52 H52            0.8259    -0.9683     2.4516 H       
  53 H53            0.2654     1.3985     2.8299 H       
  54 H54            0.3493     3.0003     0.9633 H       
  55 H55            1.0397    -2.2029    -1.9493 H       
  56 H56            0.9474    -3.7788    -1.1269 H       
  57 H57           -3.2067    -2.1447    -0.5134 H       
  58 H58           -3.4117    -2.0921    -2.2833 H       
  59 H59           -3.5522    -4.5690    -0.5029 H       
  60 H60           -4.9091    -3.7988    -1.3607 H       
  61 H61           -3.7858    -4.2667    -3.5316 H       
  62 H62           -1.7542    -5.7094    -1.7680 H       
  63 H63           -1.8022    -5.7694    -3.5469 H       
  64 H64           -1.4269    -3.3489    -3.6845 H       
  65 H65           -0.1591    -4.0711    -2.6607 H       
  66 H66           -4.4861    -6.2795    -4.6951 H       
  67 H67           -3.0395    -7.0479    -3.9977 H       
  68 H68           -4.7402    -8.7367    -4.6778 H       
  69 H69           -4.4535    -8.7637    -2.9209 H       
  70 H70           -7.5347    -6.9505    -2.1252 H       
  71 H71           -6.0880    -7.7189    -1.4279 H       
  72 H72           -5.8339    -5.2617    -1.4451 H       
  73 H73           -6.1207    -5.2347    -3.2020 H       
  74 H74           -6.6802    -9.8010    -2.6818 H       
  75 H75           -8.1052    -8.9356    -3.3053 H       
  76 H76           -6.9485    -9.6767    -4.4371 H       
  77 H77            3.4831    -1.1930    -1.8833 H       
  78 H78            5.2803    -4.0731     1.7050 H       
  79 H79            0.3590    -6.0855     2.9807 H       
  80 H80            0.0130    -8.4154     2.2660 H       
  81 H81            4.1786    -8.7518     1.3717 H       
  82 H82            3.4639   -10.2213     0.0611 H       
  83 H83            3.7760   -10.7768     1.7231 H       
  84 H84            2.7472   -11.7443     0.6398 H       
  85 H85            2.0955     0.8644    -5.0637 H       
  86 H86            3.0845    -0.2680    -4.1111 H       
  87 H87            1.4249    -0.7112    -4.5778 H       
  88 H88            0.5069     1.0333    -3.1253 H       
  89 H89            2.1446     1.6089    -2.7316 H       
@<TRIPOS>BOND
   1    1    2 ar
   2    1    6 ar
   3    1   51 1
   4    2    3 ar
   5    2   45 1
   6    3    4 ar
   7    3    7 1
   8    4    5 ar
   9    4   52 1
  10    5    6 ar
  11    5   53 1
  12    6   54 1
  13    7    8 1
  14    7    9 1
  15    7   27 1
  16    8   25 2
  17    8   26 am
  18    9   10 1
  19    9   55 1
  20    9   56 1
  21   10   11 am
  22   10   12 2
  23   11   13 1
  24   11   17 1
  25   13   14 1
  26   13   57 1
  27   13   58 1
  28   14   15 1
  29   14   59 1
  30   14   60 1
  31   15   16 1
  32   15   18 1
  33   15   61 1
  34   16   17 1
  35   16   62 1
  36   16   63 1
  37   17   64 1
  38   17   65 1
  39   18   19 1
  40   18   23 1
  41   19   20 1
  42   19   66 1
  43   19   67 1
  44   20   21 1
  45   20   68 1
  46   20   69 1
  47   21   22 1
  48   21   24 1
  49   22   23 1
  50   22   70 1
  51   22   71 1
  52   23   72 1
  53   23   73 1
  54   24   74 1
  55   24   75 1
  56   24   76 1
  57   26   48 am
  58   26   28 1
  59   27   28 ar
  60   27   29 ar
  61   28   31 ar
  62   29   41 ar
  63   29   77 1
  64   30   31 ar
  65   30   43 1
  66   30   41 ar
  67   31   78 1
  68   32   33 ar
  69   32   34 ar
  70   32   48 1
  71   33   39 1
  72   33   37 ar
  73   34   35 ar
  74   34   79 1
  75   35   36 ar
  76   35   80 1
  77   36   37 ar
  78   36   38 1
  79   37   81 1
  80   38   40 1
  81   40   82 1
  82   40   83 1
  83   40   84 1
  84   41   42 1
  85   43   44 3
  86   45   47 1
  87   46   47 1
  88   46   85 1
  89   46   86 1
  90   46   87 1
  91   47   88 1
  92   47   89 1
  93   48   49 2
  94   48   50 2

#	End of record

