#	Name: ASD01470014
#	Creating user name:	WinNT
#	Creation time:	15. 06. 2019 19:21

#	Modifying user name:	WinNT
#	Modification time:	15. 06. 2019 19:21

#	Program:	/corina/corina34_cracker 3.40 0067  02.08.2006

@<TRIPOS>MOLECULE
ASD01470014
  76   81    0    0    0
SMALL
NO_CHARGES


@<TRIPOS>ATOM
   1 N1             1.8385     1.7679    -0.1973 N.am    
   2 C2             1.4670     0.3585    -0.1081 C.3     
   3 C3             0.2015     0.1825     0.7431 C.3     
   4 C4            -1.0651     0.3632    -0.0791 C.3     
   5 C5            -0.8557     1.3497    -1.2161 C.3     
   6 N6            -0.3220     2.6166    -0.7143 N.am    
   7 C7             0.9789     2.7528    -0.4034 C.2     
   8 O8             1.4075     3.8870    -0.3126 O.2     
   9 C9            -1.2236     3.7583    -0.5417 C.3     
  10 C10            3.2535     2.1146    -0.0428 C.3     
  11 C11            3.8873     2.2567    -1.4027 C.ar    
  12 C12           -1.7579     3.7681     0.8673 C.ar    
  13 C13           -0.9996     4.2915     1.8740 C.ar    
  14 C14           -1.4970     4.3005     3.1821 C.ar    
  15 C15           -2.7743     3.7693     3.4454 C.ar    
  16 C16           -3.5253     3.2422     2.3975 C.ar    
  17 C17           -3.0203     3.2492     1.1284 C.ar    
  18 C18            3.7418     3.4338    -2.1129 C.ar    
  19 C19            4.3217     3.5671    -3.3612 C.ar    
  20 C20            5.0481     2.5239    -3.9015 C.ar    
  21 C21            5.1960     1.3416    -3.1905 C.ar    
  22 C22            4.6180     1.2124    -1.9362 C.ar    
  23 C23           -0.9745     4.7661     4.4626 C.2     
  24 N24           -1.8742     4.5216     5.3719 N.2     
  25 N25           -2.9911     3.9120     4.7910 N.pl3   
  26 C26            1.2076    -0.1845    -1.5148 C.3     
  27 O27            0.2030    -1.1285     1.3115 O.3     
  28 C28            1.8754    -1.5269    -1.6662 C.ar    
  29 C29            1.2660    -2.6623    -1.1658 C.ar    
  30 C30            1.8786    -3.8938    -1.3046 C.ar    
  31 C31            3.1003    -3.9898    -1.9441 C.ar    
  32 C32            3.7093    -2.8546    -2.4453 C.ar    
  33 C33            3.0946    -1.6237    -2.3104 C.ar    
  34 C34           -2.1933     1.6071    -1.9127 C.3     
  35 O35           -2.1086     0.8444     0.7704 O.3     
  36 C36           -2.6604     0.3425    -2.5864 C.ar    
  37 C37           -3.4527    -0.5560    -1.8966 C.ar    
  38 C38           -3.8810    -1.7160    -2.5146 C.ar    
  39 C39           -3.5175    -1.9772    -3.8224 C.ar    
  40 C40           -2.7259    -1.0782    -4.5125 C.ar    
  41 C41           -2.3012     0.0838    -3.8959 C.ar    
  42 O42            5.9098     0.3136    -3.7202 O.3     
  43 H43            2.2854    -0.2006     0.3454 H       
  44 H44            0.2101     0.9189     1.5467 H       
  45 H45           -1.3612    -0.6005    -0.4936 H       
  46 H46           -0.1554     0.9250    -1.9354 H       
  47 H47           -0.6787     4.6833    -0.7301 H       
  48 H48           -2.0530     3.6757    -1.2442 H       
  49 H49            3.3398     3.0568     0.4984 H       
  50 H50            3.7617     1.3276     0.5144 H       
  51 H51           -0.0210     4.6963     1.6624 H       
  52 H52           -4.5060     2.8318     2.5875 H       
  53 H53           -3.6064     2.8397     0.3189 H       
  54 H54            3.1739     4.2505    -1.6923 H       
  55 H55            4.2063     4.4876    -3.9142 H       
  56 H56            5.5002     2.6283    -4.8768 H       
  57 H57            4.7317     0.2932    -1.3808 H       
  58 H58           -0.0134     5.2306     4.6268 H       
  59 H59           -3.7910     3.6349     5.2646 H       
  60 H60            0.1343    -0.2930    -1.6703 H       
  61 H61            1.6133     0.5083    -2.2522 H       
  62 H62           -0.5669    -1.3180     1.8652 H       
  63 H63            0.3115    -2.5873    -0.6661 H       
  64 H64            1.4028    -4.7807    -0.9130 H       
  65 H65            3.5792    -4.9518    -2.0519 H       
  66 H66            4.6639    -2.9296    -2.9447 H       
  67 H67            3.5704    -0.7367    -2.7020 H       
  68 H68           -2.9326     1.9203    -1.1755 H       
  69 H69           -2.0693     2.3918    -2.6590 H       
  70 H70           -2.3226     0.2525     1.5045 H       
  71 H71           -3.7367    -0.3520    -0.8748 H       
  72 H72           -4.4994    -2.4184    -1.9754 H       
  73 H73           -3.8516    -2.8838    -4.3050 H       
  74 H74           -2.4416    -1.2825    -5.5342 H       
  75 H75           -1.6827     0.7862    -4.4351 H       
  76 H76            6.8344     0.2902    -3.4378 H       
@<TRIPOS>BOND
   1    1    2 1
   2    1   10 1
   3    1    7 am
   4    2    3 1
   5    2   26 1
   6    2   43 1
   7    3    4 1
   8    3   27 1
   9    3   44 1
  10    4    5 1
  11    4   35 1
  12    4   45 1
  13    5    6 1
  14    5   34 1
  15    5   46 1
  16    6    7 am
  17    6    9 1
  18    7    8 2
  19    9   12 1
  20    9   47 1
  21    9   48 1
  22   10   11 1
  23   10   49 1
  24   10   50 1
  25   11   18 ar
  26   11   22 ar
  27   12   13 ar
  28   12   17 ar
  29   13   14 ar
  30   13   51 1
  31   14   15 ar
  32   14   23 1
  33   15   16 ar
  34   15   25 1
  35   16   17 ar
  36   16   52 1
  37   17   53 1
  38   18   19 ar
  39   18   54 1
  40   19   20 ar
  41   19   55 1
  42   20   21 ar
  43   20   56 1
  44   21   22 ar
  45   21   42 1
  46   22   57 1
  47   23   24 2
  48   23   58 1
  49   24   25 1
  50   25   59 1
  51   26   28 1
  52   26   60 1
  53   26   61 1
  54   27   62 1
  55   28   29 ar
  56   28   33 ar
  57   29   30 ar
  58   29   63 1
  59   30   31 ar
  60   30   64 1
  61   31   32 ar
  62   31   65 1
  63   32   33 ar
  64   32   66 1
  65   33   67 1
  66   34   36 1
  67   34   68 1
  68   34   69 1
  69   35   70 1
  70   36   37 ar
  71   36   41 ar
  72   37   38 ar
  73   37   71 1
  74   38   39 ar
  75   38   72 1
  76   39   40 ar
  77   39   73 1
  78   40   41 ar
  79   40   74 1
  80   41   75 1
  81   42   76 1

#	End of record

