#	Name: ASD00060033
#	Creating user name:	WinNT
#	Creation time:	15. 06. 2019 18:29

#	Modifying user name:	WinNT
#	Modification time:	15. 06. 2019 18:29

#	Program:	/corina/corina34_cracker 3.40 0067  02.08.2006

@<TRIPOS>MOLECULE
ASD00060033
  42   43    0    0    0
SMALL
NO_CHARGES


@<TRIPOS>ATOM
   1 C1             0.5125     2.9416    -0.6745 C.ar    
   2 C2             0.1729     1.6476    -0.3266 C.ar    
   3 C3             1.1607     0.6951    -0.1588 C.ar    
   4 C4             2.4879     1.0366    -0.3395 C.ar    
   5 C5             2.8275     2.3304    -0.6883 C.ar    
   6 C6             1.8398     3.2832    -0.8547 C.ar    
   7 C7             3.5648    -0.0015    -0.1556 C.3     
   8 C8             4.3449    -0.1639    -1.4617 C.3     
   9 C9             4.5177     0.4435     0.9557 C.3     
  10 C10            5.0833     1.7993     0.6194 C.2     
  11 C11            3.7667     0.5218     2.2599 C.2     
  12 C12            5.3354    -1.2906    -1.3184 C.2     
  13 C13            6.3173    -1.5472    -2.3842 C.ar    
  14 C14            6.3382    -0.7439    -3.5289 C.ar    
  15 C15            7.2381    -2.5918    -2.2550 C.ar    
  16 C16            8.1552    -2.8255    -3.2577 C.ar    
  17 C17            8.1664    -2.0292    -4.3896 C.ar    
  18 C18            7.2616    -0.9904    -4.5228 C.ar    
  19 C19            9.1726    -2.2913    -5.4805 C.3     
  20 F20            8.6344    -3.1936    -6.4043 F       
  21 F21            9.4821    -1.0902    -6.1278 F       
  22 F22           10.3352    -2.8332    -4.9222 F       
  23 O23            5.3233    -1.9858    -0.3251 O.2     
  24 O24            4.8958     2.7333     1.3626 O.2     
  25 O25            5.7953     1.9692    -0.5056 O.3     
  26 O26            3.4187     1.5947     2.6931 O.2     
  27 O27            3.4845    -0.6003     2.9403 O.3     
  28 H28           -0.2595     3.6846    -0.8100 H       
  29 H29           -0.8640     1.3808    -0.1854 H       
  30 H30            0.8954    -0.3157     0.1137 H       
  31 H31            3.8644     2.5973    -0.8291 H       
  32 H32            2.1051     4.2941    -1.1269 H       
  33 H33            3.1091    -0.9536     0.1162 H       
  34 H34            3.6526    -0.3896    -2.2728 H       
  35 H35            4.8767     0.7611    -1.6848 H       
  36 H36            5.3307    -0.2768     1.0472 H       
  37 H37            5.6328     0.0670    -3.6342 H       
  38 H38            7.2310    -3.2137    -1.3720 H       
  39 H39            8.8670    -3.6319    -3.1594 H       
  40 H40            7.2790    -0.3710    -5.4074 H       
  41 H41            6.1377     2.8569    -0.6786 H       
  42 H42            2.9368    -0.5078     3.7318 H       
@<TRIPOS>BOND
   1    1    2 ar
   2    1    6 ar
   3    1   28 1
   4    2    3 ar
   5    2   29 1
   6    3    4 ar
   7    3   30 1
   8    4    5 ar
   9    4    7 1
  10    5    6 ar
  11    5   31 1
  12    6   32 1
  13    7    8 1
  14    7    9 1
  15    7   33 1
  16    8   12 1
  17    8   34 1
  18    8   35 1
  19    9   10 1
  20    9   11 1
  21    9   36 1
  22   10   24 2
  23   10   25 1
  24   11   26 2
  25   11   27 1
  26   12   13 1
  27   12   23 2
  28   13   15 ar
  29   13   14 ar
  30   14   18 ar
  31   14   37 1
  32   15   16 ar
  33   15   38 1
  34   16   17 ar
  35   16   39 1
  36   17   18 ar
  37   17   19 1
  38   18   40 1
  39   19   20 1
  40   19   21 1
  41   19   22 1
  42   25   41 1
  43   27   42 1

#	End of record

