#	Name: ASD01450001
#	Creating user name:	WinNT
#	Creation time:	15. 06. 2019 19:21

#	Modifying user name:	WinNT
#	Modification time:	15. 06. 2019 19:21

#	Program:	/corina/corina34_cracker 3.40 0067  02.08.2006

@<TRIPOS>MOLECULE
ASD01450001
  77   81    0    0    0
SMALL
NO_CHARGES


@<TRIPOS>ATOM
   1 S1            -0.7327     0.4257    -0.0054 S.3     
   2 F2            -0.0373    -5.8524     2.0391 F       
   3 F3             1.5231    -5.8093     0.3710 F       
   4 F4            -0.6712    -6.2047    -0.1273 F       
   5 O5            10.4483    -2.2138    -2.2763 O.3     
   6 N6             6.1815    -3.2705     0.8463 N.3     
   7 N7             8.6969    -3.5763    -0.4516 N.3     
   8 N8             1.8983    -0.9048     0.7491 N.pl3   
   9 C9             7.3998    -3.5354     1.6243 C.3     
  10 C10            6.4934    -2.5123    -0.3733 C.3     
  11 C11            8.3850    -4.3345     0.7680 C.3     
  12 C12            7.4787    -3.3114    -1.2296 C.3     
  13 C13            5.1792    -2.5696     1.6600 C.3     
  14 C14            4.0364    -2.0920     0.7617 C.3     
  15 C15            9.6992    -4.2772    -1.2653 C.3     
  16 C16            2.9925    -1.3621     1.6092 C.3     
  17 C17            9.9238    -3.5102    -2.5700 C.3     
  18 C18            0.8212    -1.7666     0.5555 C.ar    
  19 C19            2.0056     0.3625     0.1811 C.ar    
  20 C20           -0.4421    -1.2972     0.2094 C.ar    
  21 C21            0.8849     1.0892    -0.2103 C.ar    
  22 C22            1.0208    -3.1342     0.7145 C.ar    
  23 C23            3.2708     0.9112     0.0020 C.ar    
  24 C24           -0.0258    -4.0180     0.5329 C.ar    
  25 C25           -1.4887    -2.1918     0.0286 C.ar    
  26 C26            1.0373     2.3509    -0.7691 C.ar    
  27 C27           -1.2798    -3.5488     0.1904 C.ar    
  28 C28            3.4144     2.1674    -0.5565 C.ar    
  29 C29            2.3000     2.8879    -0.9411 C.ar    
  30 C30            0.2013    -5.4976     0.7070 C.3     
  31 H31            7.8565    -2.5902     1.9178 H       
  32 H32            7.1446    -4.1086     2.5156 H       
  33 H33            5.5775    -2.3396    -0.9384 H       
  34 H34            6.9399    -1.5555    -0.1025 H       
  35 H35            7.9386    -5.2913     0.4972 H       
  36 H36            9.3010    -4.5071     1.3331 H       
  37 H37            7.7338    -2.7382    -2.1209 H       
  38 H38            7.0219    -4.2566    -1.5231 H       
  39 H39            4.7868    -3.2484     2.4172 H       
  40 H40            5.6421    -1.7110     2.1465 H       
  41 H41            4.4288    -1.4133     0.0045 H       
  42 H42            3.5736    -2.9507     0.2753 H       
  43 H43           10.6373    -4.3379    -0.7135 H       
  44 H44            9.3449    -5.2829    -1.4914 H       
  45 H45            3.4554    -0.5034     2.0957 H       
  46 H46            2.6001    -2.0408     2.3665 H       
  47 H47            8.9762    -3.4075    -3.0988 H       
  48 H48           10.6313    -4.0554    -3.1948 H       
  49 H49            1.9987    -3.5069     0.9812 H       
  50 H50            4.1457     0.3526     0.3002 H       
  51 H51           -2.4691    -1.8262    -0.2389 H       
  52 H52           10.6155    -1.6706    -3.0586 H       
  53 H53            0.1669     2.9146    -1.0709 H       
  54 H54           -2.0959    -4.2418     0.0489 H       
  55 H55            4.4002     2.5872    -0.6917 H       
  56 H56            2.4150     3.8697    -1.3761 H       
  57 N57           21.1569     9.8786    12.0282 N.3     
  58 C58           20.2543    11.9201    10.7665 C.3     
  59 C59           20.3730    10.4006    10.9008 C.3     
  60 C60           21.1316    11.1321     9.7916 C.3     
  61 C61           18.9542    12.4728    10.2418 C.ar    
  62 C62           18.2079    13.3392    11.0186 C.ar    
  63 C63           18.5107    12.1179     8.9816 C.ar    
  64 C64           17.0153    13.8461    10.5374 C.ar    
  65 C65           17.3181    12.6248     8.5004 C.ar    
  66 C66           16.5692    13.4871     9.2792 C.ar    
  67 H67           20.7578    12.5324    11.5146 H       
  68 H68           19.5106     9.8008    10.6101 H       
  69 H69           20.7683    11.0135     8.7708 H       
  70 H70           22.2123    11.2260     9.8984 H       
  71 H71           21.1705     8.8697    12.0227 H       
  72 H72           22.0938    10.2530    12.0213 H       
  73 H73           18.5564    13.6197    12.0016 H       
  74 H74           19.0961    11.4447     8.3728 H       
  75 H75           16.4319    14.5225    11.1445 H       
  76 H76           16.9718    12.3478     7.5156 H       
  77 H77           15.6373    13.8829     8.9034 H       
@<TRIPOS>BOND
   1    1   20 1
   2    1   21 1
   3    2   30 1
   4    3   30 1
   5    4   30 1
   6    5   17 1
   7    5   52 1
   8    6    9 1
   9    6   10 1
  10    6   13 1
  11    7   11 1
  12    7   12 1
  13    7   15 1
  14    8   16 1
  15    8   18 1
  16    8   19 1
  17    9   11 1
  18    9   31 1
  19    9   32 1
  20   10   12 1
  21   10   33 1
  22   10   34 1
  23   11   35 1
  24   11   36 1
  25   12   37 1
  26   12   38 1
  27   13   14 1
  28   13   39 1
  29   13   40 1
  30   14   16 1
  31   14   41 1
  32   14   42 1
  33   15   17 1
  34   15   43 1
  35   15   44 1
  36   16   45 1
  37   16   46 1
  38   17   47 1
  39   17   48 1
  40   18   20 ar
  41   18   22 ar
  42   19   21 ar
  43   19   23 ar
  44   20   25 ar
  45   21   26 ar
  46   22   24 ar
  47   22   49 1
  48   23   28 ar
  49   23   50 1
  50   24   27 ar
  51   24   30 1
  52   25   27 ar
  53   25   51 1
  54   26   29 ar
  55   26   53 1
  56   27   54 1
  57   28   29 ar
  58   28   55 1
  59   29   56 1
  60   57   71 1
  61   57   72 1
  62   57   59 1
  63   58   59 1
  64   58   60 1
  65   58   61 1
  66   58   67 1
  67   59   60 1
  68   59   68 1
  69   60   69 1
  70   60   70 1
  71   61   62 ar
  72   61   63 ar
  73   62   64 ar
  74   62   73 1
  75   63   65 ar
  76   63   74 1
  77   64   66 ar
  78   64   75 1
  79   65   66 ar
  80   65   76 1
  81   66   77 1

#	End of record

