#	Name: ASD01916375
#	Creating user name:	WinNT
#	Creation time:	15. 06. 2019 20:07

#	Modifying user name:	WinNT
#	Modification time:	15. 06. 2019 20:07

#	Program:	/corina/corina34_cracker 3.40 0067  02.08.2006

@<TRIPOS>MOLECULE
ASD01916375
  42   46    0    0    0
SMALL
NO_CHARGES


@<TRIPOS>ATOM
   1 C1            -0.0171     1.4097     0.0098 C.ar    
   2 C2             0.0021    -0.0041     0.0020 C.ar    
   3 C3            -1.1922    -0.7253     0.0083 C.ar    
   4 C4            -2.3853    -0.0643     0.0207 C.ar    
   5 C5            -2.4225     1.3384     0.0274 C.ar    
   6 C6            -1.2411     2.0761     0.0193 C.ar    
   7 N7             1.1591     2.0805     0.0022 N.2     
   8 C8             2.3131     1.4698    -0.0199 C.2     
   9 N9             2.4209     0.1128    -0.0328 N.am    
  10 C10            1.3109    -0.6681    -0.0151 C.2     
  11 C11            3.7029     2.0918    -0.0368 C.3     
  12 C12            4.6345     0.9349     0.3350 C.3     
  13 C13            3.8353    -0.3061    -0.0686 C.3     
  14 C14           -3.6838     2.0162     0.0391 C.1     
  15 C15           -4.7180     2.5719     0.0488 C.1     
  16 C16           -5.9793     3.2497     0.0605 C.ar    
  17 N17           -6.0144     4.5788     0.0669 N.ar    
  18 C18           -7.1540     5.2385     0.0778 C.ar    
  19 C19           -8.3639     4.5679     0.0834 C.ar    
  20 C20           -8.3744     3.1796     0.0771 C.ar    
  21 C21           -7.1645     2.5096     0.0595 C.ar    
  22 O22            1.3982    -1.8824    -0.0130 O.2     
  23 C23            6.0631     1.0217    -0.1914 C.3     
  24 C24            6.4976     0.3852     1.1421 C.3     
  25 C25            5.1996     0.9479     1.7510 C.3     
  26 H26           -1.1721    -1.8051     0.0030 H       
  27 H27           -3.3084    -0.6248     0.0249 H       
  28 H28           -1.2732     3.1556     0.0253 H       
  29 H29            3.9405     2.4686    -1.0317 H       
  30 H30            3.7727     2.8906     0.7016 H       
  31 H31            4.0080    -1.1143     0.6420 H       
  32 H32            4.1104    -0.6217    -1.0750 H       
  33 H33           -7.1439     6.3185     0.0827 H       
  34 H34           -9.2923     5.1196     0.0930 H       
  35 H35           -9.3070     2.6348     0.0813 H       
  36 H36           -7.1362     1.4300     0.0537 H       
  37 H37            6.2490     0.3894    -1.0595 H       
  38 H38            6.4190     2.0433    -0.3254 H       
  39 H39            6.5301    -0.7040     1.1151 H       
  40 H40            7.4024     0.8257     1.5610 H       
  41 H41            5.3100     1.9485     2.1691 H       
  42 H42            4.6984     0.2568     2.4287 H       
@<TRIPOS>BOND
   1    1    2 ar
   2    1    7 1
   3    1    6 ar
   4    2    3 ar
   5    2   10 1
   6    3    4 ar
   7    3   26 1
   8    4    5 ar
   9    4   27 1
  10    5    6 ar
  11    5   14 1
  12    6   28 1
  13    7    8 2
  14    8    9 1
  15    8   11 1
  16    9   10 am
  17    9   13 1
  18   10   22 2
  19   11   12 1
  20   11   29 1
  21   11   30 1
  22   12   13 1
  23   12   23 1
  24   12   25 1
  25   13   31 1
  26   13   32 1
  27   14   15 3
  28   15   16 1
  29   16   17 ar
  30   16   21 ar
  31   17   18 ar
  32   18   19 ar
  33   18   33 1
  34   19   20 ar
  35   19   34 1
  36   20   21 ar
  37   20   35 1
  38   21   36 1
  39   23   24 1
  40   23   37 1
  41   23   38 1
  42   24   25 1
  43   24   39 1
  44   24   40 1
  45   25   41 1
  46   25   42 1

#	End of record

