#	Name: ASD00111051
#	Creating user name:	WinNT
#	Creation time:	15. 06. 2019 18:30

#	Modifying user name:	WinNT
#	Modification time:	15. 06. 2019 18:30

#	Program:	/corina/corina34_cracker 3.40 0067  02.08.2006

@<TRIPOS>MOLECULE
ASD00111051
  30   31    0    0    0
SMALL
NO_CHARGES


@<TRIPOS>ATOM
   1 C1            -0.0167     1.3779     0.0096 C.ar    
   2 C2             0.0021    -0.0041     0.0020 C.ar    
   3 C3            -1.1856    -0.7138     0.0089 C.ar    
   4 C4            -2.3884    -0.0325     0.0232 C.ar    
   5 C5            -2.4069     1.3409     0.0312 C.ar    
   6 C6            -1.2233     2.0548     0.0305 C.ar    
   7 C7            -3.6913    -0.8050     0.0286 C.3     
   8 C8            -4.3545    -0.6198     1.3972 C.3     
   9 N9            -5.1334     0.6072     1.4329 N.3     
  10 C10           -4.3875     1.8548     1.4140 C.3     
  11 C11           -3.7307     2.0771     0.0471 C.3     
  12 C12           -3.4921     3.5722    -0.1734 C.3     
  13 C13            1.2785     2.1483     0.0014 C.3     
  14 F14            2.3535     1.2531    -0.0137 F       
  15 F15            1.3313     2.9596    -1.1371 F       
  16 F16            1.3531     2.9473     1.1473 F       
  17 H17            0.9449    -0.5306    -0.0097 H       
  18 H18           -1.1731    -1.7937     0.0027 H       
  19 H19           -1.2402     3.1347     0.0370 H       
  20 H20           -4.3482    -0.4229    -0.7527 H       
  21 H21           -3.4920    -1.8628    -0.1429 H       
  22 H22           -5.0110    -1.4671     1.5950 H       
  23 H23           -3.5834    -0.5774     2.1665 H       
  24 H24           -5.8483     0.6025     0.7208 H       
  25 H25           -5.0661     2.6814     1.6243 H       
  26 H26           -3.6148     1.8221     2.1822 H       
  27 H27           -4.3776     1.6878    -0.7390 H       
  28 H28           -2.8366     3.9548     0.6089 H       
  29 H29           -3.0250     3.7260    -1.1462 H       
  30 H30           -4.4447     4.1009    -0.1400 H       
@<TRIPOS>BOND
   1    1    2 ar
   2    1   13 1
   3    1    6 ar
   4    2    3 ar
   5    2   17 1
   6    3    4 ar
   7    3   18 1
   8    4    5 ar
   9    4    7 1
  10    5    6 ar
  11    5   11 1
  12    6   19 1
  13    7    8 1
  14    7   20 1
  15    7   21 1
  16    8    9 1
  17    8   22 1
  18    8   23 1
  19    9   10 1
  20    9   24 1
  21   10   11 1
  22   10   25 1
  23   10   26 1
  24   11   12 1
  25   11   27 1
  26   12   28 1
  27   12   29 1
  28   12   30 1
  29   13   14 1
  30   13   15 1
  31   13   16 1

#	End of record

