#	Name: ASD00069313
#	Creating user name:	WinNT
#	Creation time:	15. 06. 2019 18:29

#	Modifying user name:	WinNT
#	Modification time:	15. 06. 2019 18:29

#	Program:	/corina/corina34_cracker 3.40 0067  02.08.2006

@<TRIPOS>MOLECULE
ASD00069313
  35   36    0    0    0
SMALL
NO_CHARGES


@<TRIPOS>ATOM
   1 N1            -0.0178     1.4642     0.0101 N.3     
   2 C2             0.0021    -0.0041     0.0020 C.3     
   3 C3             0.7039    -0.5130     1.2631 C.3     
   4 C4             2.1331     0.0352     1.3025 C.3     
   5 C5             2.0858     1.5651     1.2611 C.3     
   6 C6             1.3439     2.0138     0.0000 C.3     
   7 C7             2.8099    -0.4136     2.5720 C.2     
   8 O8             2.2116    -1.1015     3.3649 O.2     
   9 O9             4.0773    -0.0491     2.8218 O.3     
  10 C10           -0.7687     1.9625    -1.0640 C.ar    
  11 C11           -1.8871     2.7596    -0.8251 C.ar    
  12 C12           -2.6256     3.2499    -1.8918 C.ar    
  13 C13           -2.2528     2.9478    -3.1886 C.ar    
  14 C14           -1.1443     2.1571    -3.4273 C.ar    
  15 C15           -0.3974     1.6683    -2.3687 C.ar    
  16 F16            0.6890     0.9008    -2.6055 F       
  17 N17           -2.2642     3.0641     0.4886 N.pl3   
  18 C18            4.6654    -0.5178     4.0639 C.3     
  19 H19           -1.0204    -0.3810    -0.0218 H       
  20 H20            0.5390    -0.3552    -0.8792 H       
  21 H21            0.1597    -0.1738     2.1445 H       
  22 H22            0.7324    -1.6025     1.2493 H       
  23 H23            2.6892    -0.3354     0.4414 H       
  24 H24            1.5633     1.9370     2.1425 H       
  25 H25            3.1015     1.9603     1.2458 H       
  26 H26            1.8745     1.6533    -0.8812 H       
  27 H27            1.2960     3.1025    -0.0252 H       
  28 H28           -3.4925     3.8677    -1.7094 H       
  29 H29           -2.8296     3.3305    -4.0176 H       
  30 H30           -0.8577     1.9235    -4.4420 H       
  31 H31           -1.7471     2.7203     1.2337 H       
  32 H32           -3.0427     3.6189     0.6535 H       
  33 H33            4.6661    -1.6077     4.0770 H       
  34 H34            5.6896    -0.1529     4.1414 H       
  35 H35            4.0820    -0.1447     4.9056 H       
@<TRIPOS>BOND
   1    1    2 1
   2    1    6 1
   3    1   10 1
   4    2    3 1
   5    2   19 1
   6    2   20 1
   7    3    4 1
   8    3   21 1
   9    3   22 1
  10    4    5 1
  11    4    7 1
  12    4   23 1
  13    5    6 1
  14    5   24 1
  15    5   25 1
  16    6   26 1
  17    6   27 1
  18    7    8 2
  19    7    9 1
  20    9   18 1
  21   10   11 ar
  22   10   15 ar
  23   11   12 ar
  24   11   17 1
  25   12   13 ar
  26   12   28 1
  27   13   14 ar
  28   13   29 1
  29   14   15 ar
  30   14   30 1
  31   15   16 1
  32   17   31 1
  33   17   32 1
  34   18   33 1
  35   18   34 1
  36   18   35 1

#	End of record

