#	Name: ASD02030436
#	Creating user name:	WinNT
#	Creation time:	15. 06. 2019 20:15

#	Modifying user name:	WinNT
#	Modification time:	15. 06. 2019 20:15

#	Program:	/corina/corina34_cracker 3.40 0067  02.08.2006

@<TRIPOS>MOLECULE
ASD02030436
  47   48    0    0    0
SMALL
NO_CHARGES


@<TRIPOS>ATOM
   1 C1            -0.0514     1.1291    -0.0204 C.2     
   2 O2             0.0912    -0.0778    -0.0028 O.2     
   3 N3             1.0281     1.9346    -0.0696 N.am    
   4 C4             2.3873     1.3826     0.0353 C.3     
   5 C5             3.2219     1.9187    -1.1327 C.3     
   6 N6             3.1469     3.3857    -1.1511 N.3     
   7 C7             1.7721     3.8461    -1.3871 C.3     
   8 C8             0.8783     3.3883    -0.2356 C.3     
   9 C9             3.0178     1.8174     1.3598 C.3     
  10 C10            2.3285    -0.1448    -0.0335 C.3     
  11 N11           -2.5533     1.0588    -0.0824 N.2     
  12 N12           -3.5079     1.9223    -0.0192 N.pl3   
  13 N13           -3.0087     3.1021     0.1063 N.2     
  14 N14           -1.7220     3.0138     0.1257 N.2     
  15 C15           -1.4104     1.7139     0.0062 C.2     
  16 C16           -4.8763     1.6234    -0.0785 C.ar    
  17 C17           -5.8150     2.6434     0.0002 C.ar    
  18 C18           -7.1633     2.3454    -0.0590 C.ar    
  19 C19           -7.5774     1.0317    -0.1961 C.ar    
  20 C20           -6.6442     0.0149    -0.2747 C.ar    
  21 C21           -5.2951     0.3075    -0.2218 C.ar    
  22 Cl22          -8.3384     3.6195     0.0393 Cl      
  23 H23            4.2598     1.6091    -1.0104 H       
  24 H24            2.8318     1.5228    -2.0703 H       
  25 H25            3.5181     3.7775    -0.2985 H       
  26 H26            1.7585     4.9342    -1.4493 H       
  27 H27            1.4022     3.4234    -2.3212 H       
  28 H28           -0.1609     3.6256    -0.4637 H       
  29 H29            1.1796     3.8945     0.6814 H       
  30 H30            2.4128     1.4493     2.1884 H       
  31 H31            4.0248     1.4070     1.4348 H       
  32 H32            3.0651     2.9056     1.3998 H       
  33 H33            1.8011    -0.4477    -0.9381 H       
  34 H34            3.3414    -0.5469    -0.0516 H       
  35 H35            1.8010    -0.5278     0.8401 H       
  36 H36           -5.4920     3.6683     0.1079 H       
  37 H37           -8.6314     0.8007    -0.2415 H       
  38 H38           -6.9701    -1.0092    -0.3813 H       
  39 H39           -4.5668    -0.4872    -0.2877 H       
  40 C40           10.4312    11.9225     8.3352 C.2     
  41 C41           10.4517    10.4156     8.3269 C.3     
  42 O42           11.4693    12.5408     8.3286 O.2     
  43 O43            9.2598    12.5778     8.3443 O.3     
  44 F44           11.7768     9.9673     8.3119 F       
  45 F45            9.8095     9.9342     9.4728 F       
  46 F46            9.7877     9.9465     7.1884 F       
  47 H47            9.2973    13.5440     8.3494 H       
@<TRIPOS>BOND
   1    1    2 2
   2    1    3 am
   3    1   15 1
   4    3    4 1
   5    3    8 1
   6    4    5 1
   7    4    9 1
   8    4   10 1
   9    5    6 1
  10    5   23 1
  11    5   24 1
  12    6    7 1
  13    6   25 1
  14    7    8 1
  15    7   26 1
  16    7   27 1
  17    8   28 1
  18    8   29 1
  19    9   30 1
  20    9   31 1
  21    9   32 1
  22   10   33 1
  23   10   34 1
  24   10   35 1
  25   11   12 1
  26   11   15 2
  27   12   13 1
  28   12   16 1
  29   13   14 2
  30   14   15 1
  31   16   17 ar
  32   16   21 ar
  33   17   18 ar
  34   17   36 1
  35   18   19 ar
  36   18   22 1
  37   19   20 ar
  38   19   37 1
  39   20   21 ar
  40   20   38 1
  41   21   39 1
  42   40   41 1
  43   40   42 2
  44   40   43 1
  45   41   44 1
  46   41   45 1
  47   41   46 1
  48   43   47 1

#	End of record

