#	Name: ASD01813977
#	Creating user name:	WinNT
#	Creation time:	15. 06. 2019 19:31

#	Modifying user name:	WinNT
#	Modification time:	15. 06. 2019 19:31

#	Program:	/corina/corina34_cracker 3.40 0067  02.08.2006

@<TRIPOS>MOLECULE
ASD01813977
  49   52    0    0    0
SMALL
NO_CHARGES


@<TRIPOS>ATOM
   1 C1            -0.4381     0.8850     0.1885 C.ar    
   2 C2            -0.2398    -0.4868     0.1733 C.ar    
   3 C3             1.0315    -1.0149     0.1016 C.ar    
   4 C4             2.1351    -0.1691     0.0429 C.ar    
   5 C5             1.9346     1.2222     0.0577 C.ar    
   6 C6             0.6410     1.7447     0.1312 C.ar    
   7 N7             3.4107    -0.6865    -0.0286 N.pl3   
   8 C8             4.5043     0.0845    -0.0861 C.2     
   9 C9             4.4335     1.4628    -0.0784 C.2     
  10 C10            3.1115     2.1066    -0.0050 C.2     
  11 F11            0.4472     3.0816     0.1456 F       
  12 O12            2.9956     3.3197     0.0044 O.2     
  13 C13            5.6572     2.2741    -0.1419 C.2     
  14 O14            5.5751     3.6196    -0.1337 O.3     
  15 O15            6.7436     1.7318    -0.2019 O.2     
  16 C16            3.5773    -2.1419    -0.0418 C.3     
  17 C17            3.5566    -2.6371    -1.4649 C.ar    
  18 C18            4.7360    -2.7270    -2.1813 C.ar    
  19 C19            4.7205    -3.1804    -3.4858 C.ar    
  20 C20            3.5184    -3.5462    -4.0781 C.ar    
  21 C21            2.3355    -3.4546    -3.3555 C.ar    
  22 C22            2.3589    -3.0058    -2.0497 C.ar    
  23 N23            3.4991    -4.0047    -5.3973 N.am    
  24 S24            4.3910    -5.3325    -5.8561 S.o2    
  25 C25            3.1835    -6.3360    -6.7759 C.3     
  26 C26            2.4674    -5.4288    -7.7828 C.3     
  27 C27            1.7136    -4.3276    -7.0407 C.3     
  28 C28            2.6854    -3.3323    -6.4207 C.3     
  29 O29            5.3826    -4.8113    -6.7303 O.2     
  30 O30            4.7441    -5.9648    -4.6335 O.2     
  31 H31           -1.4407     1.2831     0.2409 H       
  32 H32           -1.0913    -1.1497     0.2186 H       
  33 H33            1.1713    -2.0858     0.0913 H       
  34 H34            5.4739    -0.3881    -0.1399 H       
  35 H35            6.4070     4.1105    -0.1771 H       
  36 H36            4.5297    -2.4028     0.4198 H       
  37 H37            2.7640    -2.6058     0.5162 H       
  38 H38            5.6701    -2.4421    -1.7204 H       
  39 H39            5.6419    -3.2501    -4.0448 H       
  40 H40            1.3993    -3.7383    -3.8131 H       
  41 H41            1.4396    -2.9347    -1.4872 H       
  42 H42            3.6993    -7.1369    -7.3055 H       
  43 H43            2.4569    -6.7616    -6.0837 H       
  44 H44            3.2014    -4.9786    -8.4510 H       
  45 H45            1.7623    -6.0207    -8.3664 H       
  46 H46            1.0606    -3.8054    -7.7400 H       
  47 H47            1.1092    -4.7750    -6.2517 H       
  48 H48            2.1266    -2.5159    -5.9631 H       
  49 H49            3.3412    -2.9343    -7.1950 H       
@<TRIPOS>BOND
   1    1    2 ar
   2    1    6 ar
   3    1   31 1
   4    2    3 ar
   5    2   32 1
   6    3    4 ar
   7    3   33 1
   8    4    5 ar
   9    4    7 1
  10    5    6 ar
  11    5   10 1
  12    6   11 1
  13    7    8 1
  14    7   16 1
  15    8    9 2
  16    8   34 1
  17    9   10 1
  18    9   13 1
  19   10   12 2
  20   13   14 1
  21   13   15 2
  22   14   35 1
  23   16   17 1
  24   16   36 1
  25   16   37 1
  26   17   18 ar
  27   17   22 ar
  28   18   19 ar
  29   18   38 1
  30   19   20 ar
  31   19   39 1
  32   20   21 ar
  33   20   23 1
  34   21   22 ar
  35   21   40 1
  36   22   41 1
  37   23   24 am
  38   23   28 1
  39   24   25 1
  40   24   29 2
  41   24   30 2
  42   25   26 1
  43   25   42 1
  44   25   43 1
  45   26   27 1
  46   26   44 1
  47   26   45 1
  48   27   28 1
  49   27   46 1
  50   27   47 1
  51   28   48 1
  52   28   49 1

#	End of record

