#	Name: ASD01911380
#	Creating user name:	WinNT
#	Creation time:	15. 06. 2019 19:57

#	Modifying user name:	WinNT
#	Modification time:	15. 06. 2019 19:57

#	Program:	/corina/corina34_cracker 3.40 0067  02.08.2006

@<TRIPOS>MOLECULE
ASD01911380
  46   49    0    0    0
SMALL
NO_CHARGES


@<TRIPOS>ATOM
   1 C1            -0.0173     1.4278     0.0099 C.ar    
   2 C2             0.0021    -0.0041     0.0020 C.1     
   3 C3             0.0180    -1.1779    -0.0044 C.1     
   4 C4             0.0374    -2.6098    -0.0123 C.ar    
   5 N5            -1.1123    -3.2809    -0.0049 N.ar    
   6 C6            -1.1401    -4.5951    -0.0116 C.ar    
   7 C7             0.0510    -5.3260    -0.0431 C.ar    
   8 C8             1.2768    -4.6527    -0.0440 C.ar    
   9 C9             1.2641    -3.2817    -0.0334 C.ar    
  10 C10           -2.4537    -5.3331     0.0363 C.3     
  11 C11           -2.3549    -6.6309    -0.7610 C.3     
  12 N12           -1.1818    -7.4043    -0.3602 N.am    
  13 C13           -0.0079    -6.7992    -0.0957 C.2     
  14 O14            0.9937    -7.4608     0.0972 O.2     
  15 C15           -1.2840    -8.8611    -0.2442 C.3     
  16 C16           -0.2947    -9.5201    -1.2075 C.3     
  17 C17           -0.4015   -11.0415    -1.0864 C.3     
  18 C18           -0.0748   -11.4632     0.3476 C.3     
  19 C19           -1.0641   -10.8042     1.3109 C.3     
  20 C20           -0.9573    -9.2827     1.1898 C.3     
  21 N21            1.1277     2.1034     0.0026 N.ar    
  22 C22            1.1517     3.4197     0.0094 C.ar    
  23 C23           -0.0219     4.1525     0.0246 C.ar    
  24 C24           -1.2408     3.4881     0.0326 C.ar    
  25 C25           -1.2395     2.1048     0.0194 C.ar    
  26 H26            2.2088    -5.1982    -0.0565 H       
  27 H27            2.1907    -2.7270    -0.0332 H       
  28 H28           -2.7014    -5.5633     1.0725 H       
  29 H29           -3.2366    -4.7057    -0.3899 H       
  30 H30           -3.2518    -7.2259    -0.5888 H       
  31 H31           -2.2819    -6.3942    -1.8225 H       
  32 H32           -2.2976    -9.1751    -0.4933 H       
  33 H33           -0.5275    -9.2197    -2.2291 H       
  34 H34            0.7189    -9.2060    -0.9584 H       
  35 H35           -1.4151   -11.3556    -1.3354 H       
  36 H36            0.3033   -11.5110    -1.7726 H       
  37 H37           -0.1509   -12.5471     0.4339 H       
  38 H38            0.9388   -11.1491     0.5967 H       
  39 H39           -2.0777   -11.1182     1.0619 H       
  40 H40           -0.8314   -11.1045     2.3325 H       
  41 H41            0.0563    -8.9687     1.4389 H       
  42 H42           -1.6621    -8.8132     1.8760 H       
  43 H43            2.1009     3.9349     0.0035 H       
  44 H44            0.0100     5.2320     0.0304 H       
  45 H45           -2.1696     4.0391     0.0445 H       
  46 H46           -2.1697     1.5560     0.0248 H       
@<TRIPOS>BOND
   1    1    2 1
   2    1   21 ar
   3    1   25 ar
   4    2    3 3
   5    3    4 1
   6    4    5 ar
   7    4    9 ar
   8    5    6 ar
   9    6    7 ar
  10    6   10 1
  11    7    8 ar
  12    7   13 1
  13    8    9 ar
  14    8   26 1
  15    9   27 1
  16   10   11 1
  17   10   28 1
  18   10   29 1
  19   11   12 1
  20   11   30 1
  21   11   31 1
  22   12   13 am
  23   12   15 1
  24   13   14 2
  25   15   16 1
  26   15   20 1
  27   15   32 1
  28   16   17 1
  29   16   33 1
  30   16   34 1
  31   17   18 1
  32   17   35 1
  33   17   36 1
  34   18   19 1
  35   18   37 1
  36   18   38 1
  37   19   20 1
  38   19   39 1
  39   19   40 1
  40   20   41 1
  41   20   42 1
  42   21   22 ar
  43   22   23 ar
  44   22   43 1
  45   23   24 ar
  46   23   44 1
  47   24   25 ar
  48   24   45 1
  49   25   46 1

#	End of record

