#	Name: ASD02440036
#	Creating user name:	WinNT
#	Creation time:	15. 06. 2019 20:21

#	Modifying user name:	WinNT
#	Modification time:	15. 06. 2019 20:21

#	Program:	/corina/corina34_cracker 3.40 0067  02.08.2006

@<TRIPOS>MOLECULE
ASD02440036
  81   85    0    0    0
SMALL
NO_CHARGES


@<TRIPOS>ATOM
   1 C1             0.4100     3.2760     0.3011 C.3     
   2 C2            -0.3835     2.2111     1.0542 C.3     
   3 C3            -0.6184     1.0020     0.1549 C.3     
   4 C4             0.7084     0.4053    -0.3289 C.3     
   5 C5             1.5918     1.4761    -0.9325 C.3     
   6 C6             1.7976     2.7202    -0.0747 C.3     
   7 C7             2.5014     3.7765    -0.9327 C.3     
   8 C8             2.9356     0.9440    -1.4204 C.3     
   9 C9             3.5426     1.9921    -2.3667 C.3     
  10 C10            3.7765     3.3011    -1.6114 C.3     
  11 C11            3.2626     6.1482    -1.1061 C.3     
  12 C12            2.7603     5.0585    -0.1483 C.3     
  13 C13            4.2535     4.3883    -2.5923 C.3     
  14 C14            4.5320     5.6774    -1.8181 C.3     
  15 C15            5.0676     6.7253    -2.7878 C.3     
  16 C16            5.4930     3.9040    -3.3512 C.3     
  17 C17            6.0733     4.9983    -4.2476 C.3     
  18 C18            6.3709     8.6478    -3.3583 C.3     
  19 C19            5.5207     8.0785    -2.2057 C.3     
  20 C20            6.3840     6.2198    -3.3837 C.3     
  21 C21            6.8844     7.4497    -4.1495 C.3     
  22 C22            1.3792    -0.3800     0.7921 C.3     
  23 C23            0.3435    -0.6075    -1.4420 C.3     
  24 O24           -1.3424     0.0025     0.8795 O.3     
  25 C25            2.5581     2.4536     1.2159 C.3     
  26 C26            4.9087     3.0654    -0.6000 C.3     
  27 H27            5.2853     5.4977    -1.0407 H       
  28 C28            7.3985     5.8730    -2.3252 C.2     
  29 H29            1.0595     1.8319    -1.8522 H       
  30 H30            1.7566     4.0323    -1.7164 H       
  31 C31            3.1572     4.6445    -3.6319 C.3     
  32 H32            4.3472     6.9185    -3.5892 H       
  33 C33            4.3409     8.9952    -1.9751 C.2     
  34 C34            4.1623     9.5503    -0.8021 C.2     
  35 C35            3.3704     9.2704    -3.0947 C.3     
  36 O36            7.1227     6.0083    -1.1566 O.2     
  37 O37            8.6087     5.4136    -2.6803 O.3     
  38 H38           -0.1175     3.5541    -0.6097 H       
  39 H39            0.5389     4.1516     0.9352 H       
  40 H40            0.1201     1.9174     1.9690 H       
  41 H41           -1.3592     2.6355     1.3310 H       
  42 H42           -1.2075     1.3047    -0.7149 H       
  43 H43            3.6091     0.7470    -0.5955 H       
  44 H44            2.7992     0.0207    -1.9883 H       
  45 H45            4.4955     1.6138    -2.7407 H       
  46 H46            2.8581     2.1377    -3.1978 H       
  47 H47            2.4862     6.4095    -1.8128 H       
  48 H48            3.5031     7.0268    -0.4954 H       
  49 H49            1.8244     5.4047     0.3019 H       
  50 H50            3.4931     4.9106     0.6380 H       
  51 H51            6.2561     3.5375    -2.6778 H       
  52 H52            5.1872     3.0681    -3.9976 H       
  53 H53            6.9997     4.6359    -4.7068 H       
  54 H54            5.3732     5.2647    -5.0374 H       
  55 H55            5.7554     9.2854    -3.9915 H       
  56 H56            7.2065     9.2174    -2.9511 H       
  57 H57            6.1006     7.9631    -1.2993 H       
  58 H58            6.4757     7.4520    -5.1583 H       
  59 H59            7.9736     7.4492    -4.1785 H       
  60 H60            0.7809    -1.2601     1.0276 H       
  61 H61            2.3737    -0.6915     0.4729 H       
  62 H62            1.4626     0.2501     1.6776 H       
  63 H63           -0.1720    -0.0888    -2.2503 H       
  64 H64            1.2535    -1.0673    -1.8274 H       
  65 H65           -0.3079    -1.3791    -1.0318 H       
  66 H66           -2.2079     0.2955     1.1957 H       
  67 H67            1.9280     1.8822     1.8975 H       
  68 H68            3.4618     1.8859     0.9944 H       
  69 H69            2.8292     3.4017     1.6803 H       
  70 H70            4.6659     2.2045     0.0229 H       
  71 H71            5.8397     2.8762    -1.1344 H       
  72 H72            5.0237     3.9481     0.0289 H       
  73 H73            2.2500     4.9785    -3.1284 H       
  74 H74            3.4901     5.4136    -4.3289 H       
  75 H75            2.9519     3.7237    -4.1778 H       
  76 H76            4.8578     9.3531     0.0002 H       
  77 H77            3.3195    10.2052    -0.6374 H       
  78 H78            2.5688     8.5322    -3.0703 H       
  79 H79            2.9492    10.2683    -2.9733 H       
  80 H80            3.8913     9.2097    -4.0502 H       
  81 H81            9.2259     5.2046    -1.9658 H       
@<TRIPOS>BOND
   1    1    2 1
   2    1    6 1
   3    1   38 1
   4    1   39 1
   5    2    3 1
   6    2   40 1
   7    2   41 1
   8    3    4 1
   9    3   24 1
  10    3   42 1
  11    4    5 1
  12    4   22 1
  13    4   23 1
  14    5    6 1
  15    5    8 1
  16    5   29 1
  17    6    7 1
  18    6   25 1
  19    7   10 1
  20    7   30 1
  21    7   12 1
  22    8    9 1
  23    8   43 1
  24    8   44 1
  25    9   10 1
  26    9   45 1
  27    9   46 1
  28   10   13 1
  29   10   26 1
  30   11   12 1
  31   11   14 1
  32   11   47 1
  33   11   48 1
  34   12   49 1
  35   12   50 1
  36   13   14 1
  37   13   16 1
  38   13   31 1
  39   14   15 1
  40   14   27 1
  41   15   20 1
  42   15   32 1
  43   15   19 1
  44   16   17 1
  45   16   51 1
  46   16   52 1
  47   17   20 1
  48   17   53 1
  49   17   54 1
  50   18   19 1
  51   18   21 1
  52   18   55 1
  53   18   56 1
  54   19   33 1
  55   19   57 1
  56   20   21 1
  57   20   28 1
  58   21   58 1
  59   21   59 1
  60   22   60 1
  61   22   61 1
  62   22   62 1
  63   23   63 1
  64   23   64 1
  65   23   65 1
  66   24   66 1
  67   25   67 1
  68   25   68 1
  69   25   69 1
  70   26   70 1
  71   26   71 1
  72   26   72 1
  73   28   36 2
  74   28   37 1
  75   31   73 1
  76   31   74 1
  77   31   75 1
  78   33   34 2
  79   33   35 1
  80   34   76 1
  81   34   77 1
  82   35   78 1
  83   35   79 1
  84   35   80 1
  85   37   81 1

#	End of record

