#	Name: ASD03731852
#	Creating user name:	WinNT
#	Creation time:	15. 06. 2019 20:46

#	Modifying user name:	WinNT
#	Modification time:	15. 06. 2019 20:46

#	Program:	/corina/corina34_cracker 3.40 0067  02.08.2006

@<TRIPOS>MOLECULE
ASD03731852
  35   36    0    0    0
SMALL
NO_CHARGES


@<TRIPOS>ATOM
   1 C1            -0.0180     1.4742     0.0101 C.2     
   2 C2             0.0021    -0.0041     0.0020 C.ar    
   3 C3             1.2184    -0.6885    -0.0133 C.ar    
   4 C4             1.2301    -2.0680    -0.0203 C.ar    
   5 C5             0.0396    -2.7730    -0.0127 C.ar    
   6 C6            -1.1695    -2.1007     0.0024 C.ar    
   7 C7            -1.1952    -0.7214     0.0154 C.ar    
   8 O8             1.0263     2.0963     0.0035 O.2     
   9 N9            -1.1942     2.1322     0.0193 N.am    
  10 S10           -1.2167     3.7880     0.0284 S.o2    
  11 O11           -2.5980     4.1195     0.0625 O.2     
  12 O12           -0.3511     4.1443     1.0976 O.2     
  13 C13           -0.4880     4.2593    -1.5646 C.3     
  14 C14            0.0601    -4.2798    -0.0215 C.3     
  15 C15            0.0807    -4.7902     1.3963 C.ar    
  16 C16           -1.1071    -5.0404     2.0579 C.ar    
  17 C17           -1.0886    -5.5092     3.3589 C.ar    
  18 C18            0.1203    -5.7277     3.9982 C.ar    
  19 C19            1.3077    -5.4768     3.3349 C.ar    
  20 C20            1.2873    -5.0132     2.0326 C.ar    
  21 Cl21           0.1452    -6.3156     5.6314 Cl      
  22 Cl22          -2.5799    -5.8231     4.1902 Cl      
  23 H23            2.1484    -0.1393    -0.0199 H       
  24 H24            2.1706    -2.5988    -0.0321 H       
  25 H25           -2.0953    -2.6569     0.0083 H       
  26 H26           -2.1396    -0.1978     0.0318 H       
  27 H27           -2.0276     1.6358     0.0206 H       
  28 H28           -1.0900     3.8487    -2.3752 H       
  29 H29           -0.4629     5.3461    -1.6453 H       
  30 H30            0.5266     3.8665    -1.6305 H       
  31 H31           -0.8299    -4.6523    -0.5288 H       
  32 H32            0.9498    -4.6281    -0.5460 H       
  33 H33           -2.0495    -4.8695     1.5588 H       
  34 H34            2.2508    -5.6470     3.8329 H       
  35 H35            2.2148    -4.8213     1.5135 H       
@<TRIPOS>BOND
   1    1    2 1
   2    1    8 2
   3    1    9 am
   4    2    3 ar
   5    2    7 ar
   6    3    4 ar
   7    3   23 1
   8    4    5 ar
   9    4   24 1
  10    5    6 ar
  11    5   14 1
  12    6    7 ar
  13    6   25 1
  14    7   26 1
  15    9   10 am
  16    9   27 1
  17   10   11 2
  18   10   12 2
  19   10   13 1
  20   13   28 1
  21   13   29 1
  22   13   30 1
  23   14   15 1
  24   14   31 1
  25   14   32 1
  26   15   16 ar
  27   15   20 ar
  28   16   17 ar
  29   16   33 1
  30   17   18 ar
  31   17   22 1
  32   18   19 ar
  33   18   21 1
  34   19   20 ar
  35   19   34 1
  36   20   35 1

#	End of record

