#	Name: ASD08150917
#	Creating user name:	WinNT
#	Creation time:	15. 06. 2019 21:16

#	Modifying user name:	WinNT
#	Modification time:	15. 06. 2019 21:16

#	Program:	/corina/corina34_cracker 3.40 0067  02.08.2006

@<TRIPOS>MOLECULE
ASD08150917
  44   48    0    0    0
SMALL
NO_CHARGES


@<TRIPOS>ATOM
   1 N1            -0.2690     1.4083     0.0705 N.2     
   2 C2            -0.6718     0.2765     0.5708 C.2     
   3 N3            -0.3403     0.2067     1.8912 N.pl3   
   4 C4             0.3064     1.3725     2.2151 C.ar    
   5 N5             0.8496     1.8680     3.3221 N.ar    
   6 C6             1.4167     3.0561     3.3175 C.ar    
   7 N7             1.4766     3.8087     2.2341 N.ar    
   8 C8             0.9606     3.3969     1.0806 C.ar    
   9 C9             0.3448     2.1348     1.0352 C.ar    
  10 N10            1.0279     4.1930    -0.0495 N.pl3   
  11 C11            1.6735     5.5064     0.0171 C.3     
  12 C12            2.1577     5.9079    -1.3776 C.3     
  13 N13            0.6007     9.7969     2.1281 N.ar    
  14 N14           -0.2541    10.6580     2.5508 N.ar    
  15 C15           -1.5652    10.4832     2.4636 C.ar    
  16 C16           -2.0827     9.3475     1.9051 C.ar    
  17 C17           -1.1733     8.3834     1.4313 C.ar    
  18 C18           -1.5993     7.1829     0.8414 C.ar    
  19 C19           -0.6778     6.2803     0.3968 C.ar    
  20 C20            0.6850     6.5272     0.5189 C.ar    
  21 C21            1.1456     7.6978     1.0956 C.ar    
  22 C22            0.2125     8.6523     1.5647 C.ar    
  23 C23            4.5706     9.1956     0.6710 C.ar    
  24 C24            3.2096     8.9971     0.5254 C.ar    
  25 C25            2.6000     7.9489     1.2203 C.ar    
  26 C26            3.4011     7.1430     2.0378 C.ar    
  27 C27            4.7503     7.4109     2.1263 C.ar    
  28 N28            5.2892     8.4106     1.4535 N.ar    
  29 F29            5.1734    10.2017     0.0006 F       
  30 Cl30          -3.2948     6.8480     0.6770 Cl      
  31 H31           -1.1923    -0.4938     0.0211 H       
  32 H32           -0.5277    -0.5317     2.4918 H       
  33 H33            1.8488     3.4294     4.2342 H       
  34 H34            0.6476     3.8813    -0.8856 H       
  35 H35            2.5239     5.4591     0.6973 H       
  36 H36            1.3073     5.9551    -2.0578 H       
  37 H37            2.6381     6.8851    -1.3281 H       
  38 H38            2.8727     5.1696    -1.7405 H       
  39 H39           -2.2318    11.2458     2.8381 H       
  40 H40           -3.1494     9.1958     1.8303 H       
  41 H41           -1.0123     5.3586    -0.0560 H       
  42 H42            2.6269     9.6422    -0.1155 H       
  43 H43            2.9681     6.3231     2.5915 H       
  44 H44            5.3755     6.7939     2.7548 H       
@<TRIPOS>BOND
   1    1    2 2
   2    1    9 1
   3    2    3 1
   4    2   31 1
   5    3    4 1
   6    3   32 1
   7    4    5 ar
   8    4    9 ar
   9    5    6 ar
  10    6    7 ar
  11    6   33 1
  12    7    8 ar
  13    8    9 ar
  14    8   10 1
  15   10   11 1
  16   10   34 1
  17   11   12 1
  18   11   20 1
  19   11   35 1
  20   12   36 1
  21   12   37 1
  22   12   38 1
  23   13   14 ar
  24   13   22 ar
  25   14   15 ar
  26   15   16 ar
  27   15   39 1
  28   16   17 ar
  29   16   40 1
  30   17   18 ar
  31   17   22 ar
  32   18   19 ar
  33   18   30 1
  34   19   20 ar
  35   19   41 1
  36   20   21 ar
  37   21   22 ar
  38   21   25 1
  39   23   24 ar
  40   23   28 ar
  41   23   29 1
  42   24   25 ar
  43   24   42 1
  44   25   26 ar
  45   26   27 ar
  46   26   43 1
  47   27   28 ar
  48   27   44 1

#	End of record

