#	Name: ASD01200388
#	Creating user name:	WinNT
#	Creation time:	15. 06. 2019 19:09

#	Modifying user name:	WinNT
#	Modification time:	15. 06. 2019 19:09

#	Program:	/corina/corina34_cracker 3.40 0067  02.08.2006

@<TRIPOS>MOLECULE
ASD01200388
  39   41    0    0    0
SMALL
NO_CHARGES


@<TRIPOS>ATOM
   1 N1            -0.0169     1.3967     0.0097 N.pl3   
   2 N2             0.0021    -0.0041     0.0020 N.2     
   3 C3             1.2508    -0.3963    -0.0120 C.2     
   4 C4             2.0667     0.7401    -0.0137 C.2     
   5 C5             1.2638     1.8296    -0.0002 C.2     
   6 C6             3.5736     0.7495    -0.0276 C.3     
   7 F7             4.0481    -0.5665    -0.0393 F       
   8 F8             4.0253     1.4183    -1.1704 F       
   9 F9             4.0464     1.4055     1.1140 F       
  10 C10           -1.1622     2.2068     0.0198 C.ar    
  11 C11           -2.4236     1.6262     0.0233 C.ar    
  12 C12           -3.5503     2.4238     0.0332 C.ar    
  13 C13           -3.4225     3.8055     0.0395 C.ar    
  14 C14           -2.1625     4.3860     0.0354 C.ar    
  15 C15           -1.0349     3.5890     0.0319 C.ar    
  16 C16           -4.9193     1.7938     0.0365 C.3     
  17 O17           -4.5322     4.5905     0.0491 O.3     
  18 C18           -4.3266     6.0047     0.0552 C.3     
  19 C19           -5.6603     6.7062     0.0656 C.ar    
  20 C20           -6.2658     7.0219     1.2675 C.ar    
  21 C21           -7.4893     7.6654     1.2771 C.ar    
  22 C22           -8.1069     7.9935     0.0847 C.ar    
  23 C23           -7.5010     7.6786    -1.1172 C.ar    
  24 C24           -6.2755     7.0390    -1.1267 C.ar    
  25 H25            1.5924    -1.4208    -0.0205 H       
  26 H26            1.5880     2.8598     0.0019 H       
  27 H27           -2.5232     0.5508     0.0181 H       
  28 H28           -2.0636     5.4615     0.0396 H       
  29 H29           -0.0540     4.0410     0.0336 H       
  30 H30           -5.2443     1.6364     1.0650 H       
  31 H31           -5.6239     2.4532    -0.4703 H       
  32 H32           -4.8798     0.8362    -0.4826 H       
  33 H33           -3.7612     6.2858     0.9437 H       
  34 H34           -3.7704     6.2948    -0.8362 H       
  35 H35           -5.7833     6.7655     2.1991 H       
  36 H36           -7.9627     7.9114     2.2161 H       
  37 H37           -9.0631     8.4956     0.0922 H       
  38 H38           -7.9837     7.9347    -2.0487 H       
  39 H39           -5.8004     6.7963    -2.0657 H       
@<TRIPOS>BOND
   1    1    2 1
   2    1    5 1
   3    1   10 1
   4    2    3 2
   5    3    4 1
   6    3   25 1
   7    4    5 2
   8    4    6 1
   9    5   26 1
  10    6    7 1
  11    6    8 1
  12    6    9 1
  13   10   11 ar
  14   10   15 ar
  15   11   12 ar
  16   11   27 1
  17   12   13 ar
  18   12   16 1
  19   13   14 ar
  20   13   17 1
  21   14   15 ar
  22   14   28 1
  23   15   29 1
  24   16   30 1
  25   16   31 1
  26   16   32 1
  27   17   18 1
  28   18   19 1
  29   18   33 1
  30   18   34 1
  31   19   20 ar
  32   19   24 ar
  33   20   21 ar
  34   20   35 1
  35   21   22 ar
  36   21   36 1
  37   22   23 ar
  38   22   37 1
  39   23   24 ar
  40   23   38 1
  41   24   39 1

#	End of record

