#	Name: ASD01820120
#	Creating user name:	WinNT
#	Creation time:	15. 06. 2019 19:36

#	Modifying user name:	WinNT
#	Modification time:	15. 06. 2019 19:36

#	Program:	/corina/corina34_cracker 3.40 0067  02.08.2006

@<TRIPOS>MOLECULE
ASD01820120
  66   69    0    0    0
SMALL
NO_CHARGES


@<TRIPOS>ATOM
   1 C1            -0.0131     1.5748     0.4551 C.3     
   2 C2            -0.3235     0.1809    -0.0941 C.3     
   3 C3             0.0545    -0.8736     0.9480 C.3     
   4 C4            -1.8177     0.0767    -0.4062 C.3     
   5 C5             0.4823    -0.0544    -1.3732 C.3     
   6 N6             1.9019     0.1928    -1.1085 N.am    
   7 C7             2.3931     1.4456    -1.1834 C.2     
   8 O8             1.6439     2.3814    -1.3901 O.2     
   9 C9             3.8356     1.6814    -1.0152 C.2     
  10 C10            4.3696     2.9369    -1.2153 C.2     
  11 N11            5.6795     3.1886    -1.0710 N.pl3   
  12 C12            6.5911     2.2202    -0.7131 C.ar    
  13 N13            7.8767     2.5251    -0.5839 N.ar    
  14 C14            8.7729     1.6150    -0.2411 C.ar    
  15 N15           10.1027     1.9851    -0.1193 N.3     
  16 C16           10.9489     1.2611    -1.1022 C.3     
  17 C17           12.2207     2.1414    -1.1914 C.3     
  18 H18           12.8923     1.9345    -0.3581 H       
  19 O19           12.8885     1.9401    -2.4386 O.3     
  20 C20           11.6550     3.5769    -1.0948 C.3     
  21 H21           11.5387     4.0055    -2.0902 H       
  22 O22           12.5149     4.3964    -0.3003 O.3     
  23 C23           10.2818     3.4231    -0.4151 C.3     
  24 C24            8.4074     0.2872     0.0017 C.ar    
  25 F25            9.3412    -0.6244     0.3511 F       
  26 C26            7.0931    -0.0799    -0.1179 C.ar    
  27 C27            6.1629     0.9012    -0.4819 C.ar    
  28 C28            4.7340     0.5825    -0.6240 C.2     
  29 O29            4.3121    -0.5448    -0.4304 O.2     
  30 C30            6.1404     4.4937    -1.2945 C.ar    
  31 C31            6.5421     4.8819    -2.5675 C.ar    
  32 F32            6.4890     4.0018    -3.5911 F       
  33 C33            6.9959     6.1704    -2.7851 C.ar    
  34 C34            7.0503     7.0731    -1.7365 C.ar    
  35 F35            7.4935     8.3310    -1.9521 F       
  36 C36            6.6508     6.6892    -0.4674 C.ar    
  37 C37            6.1911     5.4037    -0.2448 C.ar    
  38 F38            5.7966     5.0314     0.9925 F       
  39 C39            0.2941    -1.5005    -1.8359 C.3     
  40 F40            0.8362    -2.3694    -0.8828 F       
  41 F41           -1.0708    -1.7677    -1.9876 F       
  42 C42            1.0056    -1.7043    -3.1750 C.3     
  43 F43            2.3704    -1.4371    -3.0232 F       
  44 F44            0.8335    -3.0267    -3.5980 F       
  45 F45            0.4635    -0.8355    -4.1281 F       
  46 H46            1.0514     1.6490     0.6775 H       
  47 H47           -0.2825     2.3261    -0.2873 H       
  48 H48           -0.5872     1.7424     1.3664 H       
  49 H49           -0.3963    -0.6155     1.9062 H       
  50 H50           -0.3096    -1.8493     0.6262 H       
  51 H51            1.1389    -0.9074     1.0540 H       
  52 H52           -2.0461     0.6698    -1.2918 H       
  53 H53           -2.0788    -0.9655    -0.5897 H       
  54 H54           -2.3927     0.4517     0.4404 H       
  55 H55            0.1344     0.6244    -2.1519 H       
  56 H56            2.4882    -0.5452    -0.8794 H       
  57 H57            3.7112     3.7449    -1.4983 H       
  58 H58           11.1958     0.2643    -0.7367 H       
  59 H59           10.4513     1.2046    -2.0704 H       
  60 H60           13.1947     1.0337    -2.5791 H       
  61 H61           12.2101     5.3091    -0.2045 H       
  62 H62            9.4945     3.7649    -1.0872 H       
  63 H63           10.2591     3.9983     0.5105 H       
  64 H64            6.7829    -1.0983     0.0641 H       
  65 H65            7.3085     6.4724    -3.7737 H       
  66 H66            6.6943     7.3955     0.3485 H       
@<TRIPOS>BOND
   1    1    2 1
   2    1   46 1
   3    1   47 1
   4    1   48 1
   5    2    3 1
   6    2    4 1
   7    2    5 1
   8    3   49 1
   9    3   50 1
  10    3   51 1
  11    4   52 1
  12    4   53 1
  13    4   54 1
  14    5    6 1
  15    5   39 1
  16    5   55 1
  17    6    7 am
  18    6   56 1
  19    7    8 2
  20    7    9 1
  21    9   28 1
  22    9   10 2
  23   10   11 1
  24   10   57 1
  25   11   12 1
  26   11   30 1
  27   12   27 ar
  28   12   13 ar
  29   13   14 ar
  30   14   15 1
  31   14   24 ar
  32   15   23 1
  33   15   16 1
  34   16   17 1
  35   16   58 1
  36   16   59 1
  37   17   18 1
  38   17   19 1
  39   17   20 1
  40   19   60 1
  41   20   21 1
  42   20   22 1
  43   20   23 1
  44   22   61 1
  45   23   62 1
  46   23   63 1
  47   24   25 1
  48   24   26 ar
  49   26   27 ar
  50   26   64 1
  51   27   28 1
  52   28   29 2
  53   30   37 ar
  54   30   31 ar
  55   31   32 1
  56   31   33 ar
  57   33   34 ar
  58   33   65 1
  59   34   35 1
  60   34   36 ar
  61   36   37 ar
  62   36   66 1
  63   37   38 1
  64   39   40 1
  65   39   41 1
  66   39   42 1
  67   42   43 1
  68   42   44 1
  69   42   45 1

#	End of record

