#	Name: ASD01882709
#	Creating user name:	WinNT
#	Creation time:	15. 06. 2019 19:45

#	Modifying user name:	WinNT
#	Modification time:	15. 06. 2019 19:45

#	Program:	/corina/corina34_cracker 3.40 0067  02.08.2006

@<TRIPOS>MOLECULE
ASD01882709
  27   28    0    0    0
SMALL
NO_CHARGES


@<TRIPOS>ATOM
   1 O1            -0.0173     1.4248     0.0099 O.3     
   2 C2             0.0021    -0.0041     0.0020 C.3     
   3 C3             1.2831     0.8325    -0.0057 C.3     
   4 C4            -0.3680    -0.7292     1.2974 C.3     
   5 O5            -1.5561    -1.4961     1.0913 O.3     
   6 C6            -2.0238    -2.2062     2.1515 C.ar    
   7 C7            -3.1729    -2.9729     2.0218 C.ar    
   8 C8            -3.6463    -3.6936     3.1008 C.ar    
   9 C9            -2.9761    -3.6512     4.3097 C.ar    
  10 C10           -1.8312    -2.8877     4.4416 C.ar    
  11 C11           -1.3500    -2.1701     3.3634 C.ar    
  12 C12           -3.4951    -4.4381     5.4855 C.3     
  13 C13           -4.8943    -4.5266     2.9607 C.3     
  14 H14           -0.2792    -0.5108    -0.9211 H       
  15 H15            1.8523     0.8812    -0.9340 H       
  16 H16            1.8699     0.8713     0.9120 H       
  17 H17            0.4467    -1.3924     1.5881 H       
  18 H18           -0.5402     0.0024     2.0869 H       
  19 H19           -3.6970    -3.0058     1.0781 H       
  20 H20           -1.3099    -2.8559     5.3869 H       
  21 H21           -0.4528    -1.5776     3.4656 H       
  22 H22           -3.0504    -5.4333     5.4814 H       
  23 H23           -3.2308    -3.9259     6.4107 H       
  24 H24           -4.5793    -4.5244     5.4149 H       
  25 H25           -4.6254    -5.5327     2.6389 H       
  26 H26           -5.4071    -4.5772     3.9212 H       
  27 H27           -5.5531    -4.0724     2.2206 H       
@<TRIPOS>BOND
   1    1    2 1
   2    1    3 1
   3    2    3 1
   4    2    4 1
   5    2   14 1
   6    3   15 1
   7    3   16 1
   8    4    5 1
   9    4   17 1
  10    4   18 1
  11    5    6 1
  12    6    7 ar
  13    6   11 ar
  14    7    8 ar
  15    7   19 1
  16    8    9 ar
  17    8   13 1
  18    9   10 ar
  19    9   12 1
  20   10   11 ar
  21   10   20 1
  22   11   21 1
  23   12   22 1
  24   12   23 1
  25   12   24 1
  26   13   25 1
  27   13   26 1
  28   13   27 1

#	End of record

