#	Name: ASD01884443
#	Creating user name:	WinNT
#	Creation time:	15. 06. 2019 19:48

#	Modifying user name:	WinNT
#	Modification time:	15. 06. 2019 19:48

#	Program:	/corina/corina34_cracker 3.40 0067  02.08.2006

@<TRIPOS>MOLECULE
ASD01884443
  60   63    0    0    0
SMALL
NO_CHARGES


@<TRIPOS>ATOM
   1 C1            -0.0707     1.5173     0.1935 C.2     
   2 C2            -0.1473     0.1268     0.1973 C.2     
   3 C3            -1.3969    -0.4809     0.3267 C.2     
   4 C4            -2.5148     0.2788     0.4460 C.2     
   5 N5            -2.4480     1.6324     0.4431 N.am    
   6 C6            -1.2672     2.2691     0.3270 C.2     
   7 O7            -1.2270     3.4875     0.3264 O.2     
   8 C8            -3.6794     2.4152     0.5739 C.3     
   9 C9             1.1936     2.1770     0.0633 C.1     
  10 N10            2.1965     2.7003    -0.0401 N.1     
  11 N11            1.5830    -1.0848     1.3985 N.3     
  12 C12            2.6514    -2.0889     1.3081 C.3     
  13 C13            3.2501    -2.3196     2.6997 C.3     
  14 N14            2.1593    -2.6540     3.6279 N.pl3   
  15 C15            0.9881    -1.7655     3.6744 C.3     
  16 C16            0.4786    -1.5566     2.2444 C.3     
  17 C17            2.2334    -3.7845     4.4425 C.2     
  18 C18           -3.9585     2.6833     2.0541 C.3     
  19 C19            1.0997    -0.7086     0.0632 C.3     
  20 C20           -5.2446     3.5009     2.1907 C.3     
  21 C21           -6.4316     2.6702     1.6990 C.3     
  22 C22           -5.4574     3.8753     3.6588 C.3     
  23 C23            1.3834    -4.8058     4.3948 C.2     
  24 C24            1.8074    -5.8205     5.4306 C.3     
  25 C25            3.0334    -5.2379     6.0907 C.ar    
  26 C26            3.2710    -4.0110     5.4703 C.ar    
  27 C27            3.8615    -5.6850     7.0948 C.ar    
  28 C28            4.9364    -4.9131     7.5003 C.ar    
  29 C29            5.1798    -3.6897     6.8964 C.ar    
  30 C30            4.3574    -3.2371     5.8828 C.ar    
  31 F31            6.2297    -2.9394     7.2962 F       
  32 H32           -1.4744    -1.5581     0.3315 H       
  33 H33           -3.4758    -0.2042     0.5447 H       
  34 H34           -3.5649     3.3631     0.0482 H       
  35 H35           -4.5113     1.8586     0.1423 H       
  36 H36            2.2401    -3.0246     0.9293 H       
  37 H37            3.4289    -1.7328     0.6321 H       
  38 H38            3.9625    -3.1436     2.6598 H       
  39 H39            3.7528    -1.4132     3.0369 H       
  40 H40            0.2051    -2.2232     4.2790 H       
  41 H41            1.2735    -0.8058     4.1053 H       
  42 H42           -0.3198    -0.8145     2.2476 H       
  43 H43            0.0975    -2.4997     1.8527 H       
  44 H44           -4.0731     1.7353     2.5798 H       
  45 H45           -3.1266     3.2399     2.4857 H       
  46 H46            0.8742    -1.6088    -0.5085 H       
  47 H47            1.8686    -0.1336    -0.4528 H       
  48 H48           -5.1635     4.4083     1.5924 H       
  49 H49           -6.5127     1.7627     2.2974 H       
  50 H50           -7.3478     3.2526     1.7963 H       
  51 H51           -6.2800     2.4034     0.6531 H       
  52 H52           -4.6117     4.4671     4.0091 H       
  53 H53           -6.3736     4.4577     3.7561 H       
  54 H54           -5.5385     2.9678     4.2572 H       
  55 H55            0.5363    -4.8945     3.7307 H       
  56 H56            1.0151    -5.9623     6.1656 H       
  57 H57            2.0520    -6.7685     4.9515 H       
  58 H58            3.6725    -6.6379     7.5666 H       
  59 H59            5.5860    -5.2644     8.2883 H       
  60 H60            4.5506    -2.2831     5.4149 H       
@<TRIPOS>BOND
   1    1    2 2
   2    1    9 1
   3    1    6 1
   4    2    3 1
   5    2   19 1
   6    3    4 2
   7    3   32 1
   8    4    5 1
   9    4   33 1
  10    5    6 am
  11    5    8 1
  12    6    7 2
  13    8   18 1
  14    8   34 1
  15    8   35 1
  16    9   10 3
  17   11   12 1
  18   11   16 1
  19   11   19 1
  20   12   13 1
  21   12   36 1
  22   12   37 1
  23   13   14 1
  24   13   38 1
  25   13   39 1
  26   14   15 1
  27   14   17 1
  28   15   16 1
  29   15   40 1
  30   15   41 1
  31   16   42 1
  32   16   43 1
  33   17   23 2
  34   17   26 1
  35   18   20 1
  36   18   44 1
  37   18   45 1
  38   19   46 1
  39   19   47 1
  40   20   21 1
  41   20   22 1
  42   20   48 1
  43   21   49 1
  44   21   50 1
  45   21   51 1
  46   22   52 1
  47   22   53 1
  48   22   54 1
  49   23   24 1
  50   23   55 1
  51   24   25 1
  52   24   56 1
  53   24   57 1
  54   25   26 ar
  55   25   27 ar
  56   26   30 ar
  57   27   28 ar
  58   27   58 1
  59   28   29 ar
  60   28   59 1
  61   29   30 ar
  62   29   31 1
  63   30   60 1

#	End of record

