#	Name: ASD03081175
#	Creating user name:	WinNT
#	Creation time:	15. 06. 2019 20:27

#	Modifying user name:	WinNT
#	Modification time:	15. 06. 2019 20:27

#	Program:	/corina/corina34_cracker 3.40 0067  02.08.2006

@<TRIPOS>MOLECULE
ASD03081175
  48   50    0    0    0
SMALL
NO_CHARGES


@<TRIPOS>ATOM
   1 C1            -0.1511     1.7325    -0.3416 C.3     
   2 C2            -0.1220     0.2096    -0.1784 C.3     
   3 N3             0.7470    -0.3607    -1.2169 N.am    
   4 C4             2.1184     0.1499    -1.3486 C.3     
   5 C5             2.0650     1.6735    -1.4990 C.3     
   6 C6             1.2808     2.2711    -0.3292 C.3     
   7 C7             1.2533     3.7962    -0.4592 C.3     
   8 C8             0.5214     4.3928     0.7452 C.3     
   9 N9             1.2103     4.0004     1.9813 N.3     
  10 C10            1.2069     2.5419     2.1515 C.3     
  11 C11            1.9588     1.8895     0.9890 C.3     
  12 C12            0.6185     4.6680     3.1485 C.3     
  13 C13            0.2949    -1.3336    -2.0327 C.2     
  14 C14           -1.0375    -1.9269    -1.8061 C.ar    
  15 C15           -1.8781    -2.1959    -2.8899 C.ar    
  16 C16           -3.1215    -2.7505    -2.6737 C.ar    
  17 C17           -3.5389    -3.0421    -1.3781 C.ar    
  18 C18           -2.7054    -2.7752    -0.2997 C.ar    
  19 C19           -1.4591    -2.2263    -0.5085 C.ar    
  20 O20            0.9847    -1.7226    -2.9553 O.2     
  21 O21           -4.7640    -3.5883    -1.1681 O.3     
  22 C22           -5.1287    -3.8622     0.1862 C.3     
  23 F23           -3.9358    -3.0108    -3.7198 F       
  24 H24           -0.6276     1.9878    -1.2882 H       
  25 H25           -0.7135     2.1757     0.4802 H       
  26 H26            0.2699    -0.0450     0.8063 H       
  27 H27           -1.1308    -0.1889    -0.2867 H       
  28 H28            2.6919    -0.1096    -0.4587 H       
  29 H29            2.5883    -0.2879    -2.2293 H       
  30 H30            3.0785     2.0746    -1.5000 H       
  31 H31            1.5712     1.9294    -2.4364 H       
  32 H32            2.2741     4.1772    -0.4901 H       
  33 H33            0.7326     4.0740    -1.3756 H       
  34 H34            0.5130     5.4796     0.6633 H       
  35 H35           -0.5035     4.0224     0.7674 H       
  36 H36            1.6966     2.2846     3.0907 H       
  37 H37            0.1786     2.1805     2.1673 H       
  38 H38            1.9414     0.8060     1.1068 H       
  39 H39            2.9912     2.2388     0.9817 H       
  40 H40           -0.4325     4.3912     3.2312 H       
  41 H41            1.1475     4.3597     4.0503 H       
  42 H42            0.7014     5.7483     3.0299 H       
  43 H43           -1.5543    -1.9693    -3.8950 H       
  44 H44           -3.0330    -3.0025     0.7040 H       
  45 H45           -0.8103    -2.0236     0.3308 H       
  46 H46           -4.4167    -4.5648     0.6192 H       
  47 H47           -5.1191    -2.9353     0.7596 H       
  48 H48           -6.1285    -4.2955     0.2127 H       
@<TRIPOS>BOND
   1    1    2 1
   2    1    6 1
   3    1   24 1
   4    1   25 1
   5    2    3 1
   6    2   26 1
   7    2   27 1
   8    3    4 1
   9    3   13 am
  10    4    5 1
  11    4   28 1
  12    4   29 1
  13    5    6 1
  14    5   30 1
  15    5   31 1
  16    6    7 1
  17    6   11 1
  18    7    8 1
  19    7   32 1
  20    7   33 1
  21    8    9 1
  22    8   34 1
  23    8   35 1
  24    9   10 1
  25    9   12 1
  26   10   11 1
  27   10   36 1
  28   10   37 1
  29   11   38 1
  30   11   39 1
  31   12   40 1
  32   12   41 1
  33   12   42 1
  34   13   14 1
  35   13   20 2
  36   14   15 ar
  37   14   19 ar
  38   15   16 ar
  39   15   43 1
  40   16   17 ar
  41   16   23 1
  42   17   18 ar
  43   17   21 1
  44   18   19 ar
  45   18   44 1
  46   19   45 1
  47   21   22 1
  48   22   46 1
  49   22   47 1
  50   22   48 1

#	End of record

