#	Name: ASD08830042
#	Creating user name:	WinNT
#	Creation time:	15. 06. 2019 21:19

#	Modifying user name:	WinNT
#	Modification time:	15. 06. 2019 21:19

#	Program:	/corina/corina34_cracker 3.40 0067  02.08.2006

@<TRIPOS>MOLECULE
ASD08830042
  47   50    0    0    0
SMALL
NO_CHARGES


@<TRIPOS>ATOM
   1 C1            -0.0127     1.2467    -0.9503 C.ar    
   2 C2             0.0200    -0.1553    -0.7364 C.ar    
   3 C3             1.1884     1.9811    -0.9484 C.ar    
   4 C4             2.3708     1.3492    -0.7434 C.ar    
   5 C5             2.4181    -0.0428    -0.5302 C.ar    
   6 C6             1.2507    -0.7938    -0.5259 C.ar    
   7 C7             3.7131    -0.7046    -0.3111 C.2     
   8 C8             4.9836     0.1058    -0.3152 C.3     
   9 C9             6.1781    -0.8173    -0.0663 C.3     
  10 N10            7.4246    -0.0509    -0.1958 N.3     
  11 O11            3.7585    -1.9024    -0.1273 O.2     
  12 C12            8.5980    -0.8869     0.1383 C.3     
  13 C13           -1.2472     1.8796    -1.1668 C.ar    
  14 C14           -1.1843    -0.8818    -0.7397 C.ar    
  15 C15           -2.3624    -0.2322    -0.9474 C.ar    
  16 C16           -2.3928     1.1430    -1.1687 C.ar    
  17 C17            9.6324     0.0345     0.8109 C.3     
  18 C18            8.9603     1.4257     0.8631 C.3     
  19 C19            7.4522     1.0860     0.7597 C.3     
  20 C20            9.2633     2.1157     2.1682 C.ar    
  21 N21            9.3948     3.4276     2.1966 N.ar    
  22 C22            9.3944     1.3669     3.3221 C.ar    
  23 C23            9.6732     2.0115     4.5179 C.ar    
  24 C24            9.8102     3.3910     4.5075 C.ar    
  25 C25            9.6598     4.0738     3.3151 C.ar    
  26 H26            1.1682     3.0486    -1.1108 H       
  27 H27            3.2876     1.9201    -0.7439 H       
  28 H28            1.2899    -1.8606    -0.3623 H       
  29 H29            5.0987     0.5962    -1.2819 H       
  30 H30            4.9366     0.8592     0.4711 H       
  31 H31            6.1112    -1.2352     0.9382 H       
  32 H32            6.1711    -1.6258    -0.7974 H       
  33 H33            8.3050    -1.6804     0.8259 H       
  34 H34            9.0189    -1.3164    -0.7708 H       
  35 H35           -1.2882     2.9463    -1.3307 H       
  36 H36           -1.1744    -1.9497    -0.5786 H       
  37 H37           -3.2858    -0.7922    -0.9499 H       
  38 H38           -3.3407     1.6346    -1.3306 H       
  39 H39            9.8535    -0.3170     1.8187 H       
  40 H40           10.5446     0.0772     0.2157 H       
  41 H41            9.2763     2.0387     0.0190 H       
  42 H42            6.8929     1.9341     0.3648 H       
  43 H43            7.0588     0.7826     1.7300 H       
  44 H44            9.2808     0.2933     3.2932 H       
  45 H45            9.7808     1.4522     5.4354 H       
  46 H46           10.0270     3.9259     5.4203 H       
  47 H47            9.7653     5.1485     3.2984 H       
@<TRIPOS>BOND
   1    1    2 ar
   2    1    3 ar
   3    1   13 ar
   4    2   14 ar
   5    2    6 ar
   6    3    4 ar
   7    3   26 1
   8    4    5 ar
   9    4   27 1
  10    5    6 ar
  11    5    7 1
  12    6   28 1
  13    7    8 1
  14    7   11 2
  15    8    9 1
  16    8   29 1
  17    8   30 1
  18    9   10 1
  19    9   31 1
  20    9   32 1
  21   10   12 1
  22   10   19 1
  23   12   17 1
  24   12   33 1
  25   12   34 1
  26   13   16 ar
  27   13   35 1
  28   14   15 ar
  29   14   36 1
  30   15   16 ar
  31   15   37 1
  32   16   38 1
  33   17   18 1
  34   17   39 1
  35   17   40 1
  36   18   19 1
  37   18   20 1
  38   18   41 1
  39   19   42 1
  40   19   43 1
  41   20   21 ar
  42   20   22 ar
  43   21   25 ar
  44   22   23 ar
  45   22   44 1
  46   23   24 ar
  47   23   45 1
  48   24   25 ar
  49   24   46 1
  50   25   47 1

#	End of record

