#	Name: ASD03240713
#	Creating user name:	WinNT
#	Creation time:	15. 06. 2019 20:35

#	Modifying user name:	WinNT
#	Modification time:	15. 06. 2019 20:35

#	Program:	/corina/corina34_cracker 3.40 0067  02.08.2006

@<TRIPOS>MOLECULE
ASD03240713
  64   69    0    0    0
SMALL
NO_CHARGES


@<TRIPOS>ATOM
   1 C1            -0.0184     1.5028     0.0103 C.2     
   2 C2             0.0687    -0.0015    -0.0177 C.3     
   3 N3             1.1079     2.2431     0.0105 N.am    
   4 C4             1.0476     3.7091    -0.0922 C.3     
   5 C5             1.8860     4.3112     1.0403 C.3     
   6 N6             3.2392     3.7408     1.0002 N.3     
   7 C7             3.2137     2.2914     1.2379 C.3     
   8 C8             2.4294     1.6069     0.1195 C.3     
   9 C9             4.1238     4.4161     1.9591 C.3     
  10 C10            5.4198     3.6549     2.0691 C.ar    
  11 C11            6.4744     3.9653     1.2292 C.ar    
  12 C12            7.6637     3.2723     1.3254 C.ar    
  13 C13            7.8012     2.2569     2.2718 C.ar    
  14 C14            6.7342     1.9486     3.1157 C.ar    
  15 C15            5.5518     2.6524     3.0133 C.ar    
  16 C16           12.8258    -0.3546     0.2629 C.2     
  17 N17           13.3150    -0.8000     1.4337 N.2     
  18 C18           12.6926    -0.6003     2.5667 C.2     
  19 C19           11.4267     0.1298     2.5624 C.ar    
  20 C20           10.9183     0.5943     1.3304 C.ar    
  21 N21           11.6462     0.3352     0.1850 N.pl3   
  22 C22           10.7148     0.3750     3.7411 C.ar    
  23 C23            9.5177     1.0774     3.6451 C.ar    
  24 C24            9.0747     1.5089     2.3799 C.ar    
  25 N25            9.7767     1.2582     1.2848 N.ar    
  26 N26           11.4223     0.6517    -1.1604 N.2     
  27 C27           12.4149     0.1804    -1.8763 C.2     
  28 C28           13.3133    -0.4606    -1.0326 C.2     
  29 C29            8.7182     1.3675     4.8595 C.ar    
  30 C30            8.4115     0.3451     5.7560 C.ar    
  31 C31            7.6674     0.6211     6.8850 C.ar    
  32 C32            7.2256     1.9094     7.1275 C.ar    
  33 C33            7.5265     2.9279     6.2412 C.ar    
  34 C34            8.2752     2.6648     5.1121 C.ar    
  35 C35           12.5550     0.3083    -3.3713 C.3     
  36 O36           -1.1019     2.0472     0.0276 O.2     
  37 H37            1.1097    -0.3030    -0.1341 H       
  38 H38           -0.3245    -0.4056     0.9151 H       
  39 H39           -0.5160    -0.3837    -0.8544 H       
  40 H40            1.4506     4.0256    -1.0542 H       
  41 H41            0.0135     4.0405     0.0017 H       
  42 H42            1.9433     5.3925     0.9152 H       
  43 H43            1.4220     4.0797     1.9991 H       
  44 H44            4.2338     1.9078     1.2560 H       
  45 H45            2.7312     2.0880     2.1938 H       
  46 H46            2.3085     0.5491     0.3534 H       
  47 H47            2.9678     1.7174    -0.8217 H       
  48 H48            4.3262     5.4303     1.6147 H       
  49 H49            3.6404     4.4535     2.9353 H       
  50 H50            6.3666     4.7514     0.4966 H       
  51 H51            8.4862     3.5153     0.6690 H       
  52 H52            6.8346     1.1632     3.8502 H       
  53 H53            4.7263     2.4174     3.6689 H       
  54 H54           13.1085    -0.9696     3.4925 H       
  55 H55           11.0827     0.0294     4.6959 H       
  56 H56           14.2279    -0.9515    -1.3308 H       
  57 H57            8.7553    -0.6612     5.5673 H       
  58 H58            7.4291    -0.1702     7.5803 H       
  59 H59            6.6432     2.1207     8.0121 H       
  60 H60            7.1787     3.9317     6.4354 H       
  61 H61            8.5134     3.4617     4.4231 H       
  62 H62           13.0981     1.2231    -3.6084 H       
  63 H63           13.1028    -0.5504    -3.7597 H       
  64 H64           11.5656     0.3446    -3.8272 H       
@<TRIPOS>BOND
   1    1    2 1
   2    1    3 am
   3    1   36 2
   4    2   37 1
   5    2   38 1
   6    2   39 1
   7    3    4 1
   8    3    8 1
   9    4    5 1
  10    4   40 1
  11    4   41 1
  12    5    6 1
  13    5   42 1
  14    5   43 1
  15    6    7 1
  16    6    9 1
  17    7    8 1
  18    7   44 1
  19    7   45 1
  20    8   46 1
  21    8   47 1
  22    9   10 1
  23    9   48 1
  24    9   49 1
  25   10   11 ar
  26   10   15 ar
  27   11   12 ar
  28   11   50 1
  29   12   13 ar
  30   12   51 1
  31   13   14 ar
  32   13   24 1
  33   14   15 ar
  34   14   52 1
  35   15   53 1
  36   16   17 1
  37   16   21 1
  38   16   28 2
  39   17   18 2
  40   18   19 1
  41   18   54 1
  42   19   20 ar
  43   19   22 ar
  44   20   21 1
  45   20   25 ar
  46   21   26 1
  47   22   23 ar
  48   22   55 1
  49   23   24 ar
  50   23   29 1
  51   24   25 ar
  52   26   27 2
  53   27   28 1
  54   27   35 1
  55   28   56 1
  56   29   30 ar
  57   29   34 ar
  58   30   31 ar
  59   30   57 1
  60   31   32 ar
  61   31   58 1
  62   32   33 ar
  63   32   59 1
  64   33   34 ar
  65   33   60 1
  66   34   61 1
  67   35   62 1
  68   35   63 1
  69   35   64 1

#	End of record

