#	Name: ASD01913210
#	Creating user name:	WinNT
#	Creation time:	15. 06. 2019 20:01

#	Modifying user name:	WinNT
#	Modification time:	15. 06. 2019 20:01

#	Program:	/corina/corina34_cracker 3.40 0067  02.08.2006

@<TRIPOS>MOLECULE
ASD01913210
  47   50    0    0    0
SMALL
NO_CHARGES


@<TRIPOS>ATOM
   1 C1             3.0197     5.0960     0.6126 C.3     
   2 C2             3.3992     5.8007    -0.6696 C.2     
   3 C3             3.7256     5.1849    -1.8214 C.2     
   4 C4             3.7420     3.6718    -1.9753 C.3     
   5 C5             3.8159     3.0276    -0.5890 C.3     
   6 N6             2.8297     3.6704     0.2934 N.am    
   7 S7             3.4893     7.5391    -0.9153 S.3     
   8 C8             3.9647     7.2923    -2.5385 C.2     
   9 N9             4.0252     6.0332    -2.7956 N.2     
  10 C10            4.2683     8.3901    -3.5252 C.3     
  11 C11            1.7871     2.9781     0.7938 C.2     
  12 O12            1.5877     1.8343     0.4331 O.2     
  13 C13            0.8873     3.6088     1.7798 C.ar    
  14 C14            1.3989     4.5046     2.7176 C.ar    
  15 C15            0.5448     5.0965     3.6456 C.ar    
  16 C16           -0.8251     4.7862     3.6290 C.ar    
  17 C17           -1.3229     3.8934     2.6911 C.ar    
  18 C18           -0.4793     3.3121     1.7694 C.ar    
  19 C19            1.0616     6.0173     4.6128 C.1     
  20 C20            1.4853     6.7723     5.4058 C.1     
  21 C21            2.0020     7.6931     6.3731 C.ar    
  22 C22            1.1385     8.2826     7.3006 C.ar    
  23 C23            1.6536     9.1692     8.2281 C.ar    
  24 C24            3.0154     9.4406     8.2017 C.ar    
  25 C25            3.8134     8.8224     7.2568 C.ar    
  26 N26            3.3010     7.9771     6.3861 N.ar    
  27 O27           -1.6609     5.3591     4.5302 O.3     
  28 C28           -3.0415     4.9980     4.4556 C.3     
  29 H29            3.8175     5.2080     1.3468 H       
  30 H30            2.0928     5.5144     1.0048 H       
  31 H31            2.8321     3.3471    -2.4800 H       
  32 H32            4.6112     3.3747    -2.5620 H       
  33 H33            3.5937     1.9635    -0.6694 H       
  34 H34            4.8163     3.1620    -0.1776 H       
  35 H35            4.1379     9.3587    -3.0425 H       
  36 H36            5.2970     8.2926    -3.8721 H       
  37 H37            3.5896     8.3131    -4.3746 H       
  38 H38            2.4532     4.7384     2.7250 H       
  39 H39           -2.3765     3.6561     2.6806 H       
  40 H40           -0.8744     2.6216     1.0389 H       
  41 H41            0.0840     8.0492     7.2927 H       
  42 H42            1.0110     9.6407     8.9570 H       
  43 H43            3.4473    10.1290     8.9131 H       
  44 H44            4.8725     9.0327     7.2348 H       
  45 H45           -3.5975     5.5257     5.2305 H       
  46 H46           -3.4358     5.2698     3.4764 H       
  47 H47           -3.1443     3.9229     4.6030 H       
@<TRIPOS>BOND
   1    1    2 1
   2    1    6 1
   3    1   29 1
   4    1   30 1
   5    2    3 2
   6    2    7 1
   7    3    4 1
   8    3    9 1
   9    4    5 1
  10    4   31 1
  11    4   32 1
  12    5    6 1
  13    5   33 1
  14    5   34 1
  15    6   11 am
  16    7    8 1
  17    8    9 2
  18    8   10 1
  19   10   35 1
  20   10   36 1
  21   10   37 1
  22   11   12 2
  23   11   13 1
  24   13   14 ar
  25   13   18 ar
  26   14   15 ar
  27   14   38 1
  28   15   16 ar
  29   15   19 1
  30   16   17 ar
  31   16   27 1
  32   17   18 ar
  33   17   39 1
  34   18   40 1
  35   19   20 3
  36   20   21 1
  37   21   22 ar
  38   21   26 ar
  39   22   23 ar
  40   22   41 1
  41   23   24 ar
  42   23   42 1
  43   24   25 ar
  44   24   43 1
  45   25   26 ar
  46   25   44 1
  47   27   28 1
  48   28   45 1
  49   28   46 1
  50   28   47 1

#	End of record

