#	Name: ASD01912009
#	Creating user name:	WinNT
#	Creation time:	15. 06. 2019 19:58

#	Modifying user name:	WinNT
#	Modification time:	15. 06. 2019 19:58

#	Program:	/corina/corina34_cracker 3.40 0067  02.08.2006

@<TRIPOS>MOLECULE
ASD01912009
  39   42    0    0    0
SMALL
NO_CHARGES


@<TRIPOS>ATOM
   1 C1            -0.0167     1.3781     0.0096 C.ar    
   2 C2             0.0021    -0.0041     0.0020 C.ar    
   3 C3             1.2112    -0.6865    -0.0127 C.ar    
   4 C4             2.4038     0.0172    -0.0198 C.ar    
   5 C5             2.3860     1.4113    -0.0126 C.ar    
   6 C6             1.1668     2.0885     0.0021 C.ar    
   7 C7             3.6576     2.1706    -0.0197 C.ar    
   8 N8             4.7248     1.7097     0.6250 N.ar    
   9 C9             5.8631     2.3854     0.6206 C.ar    
  10 N10            5.9945     3.5405    -0.0187 N.ar    
  11 C11            4.9856     4.0710    -0.6845 C.ar    
  12 C12            3.7603     3.3942    -0.7162 C.ar    
  13 C13            2.6399     3.9332    -1.4266 C.1     
  14 N14            1.7510     4.3607    -1.9902 N.1     
  15 N15            6.9506     1.8707     1.3048 N.pl3   
  16 C16            8.1475     2.5571     1.3144 C.2     
  17 O17            9.2636     2.1506     1.9445 O.3     
  18 C18           10.2285     3.0746     1.7322 C.ar    
  19 C19            9.6501     4.0752     0.9369 C.ar    
  20 N20            8.3634     3.6953     0.7073 N.2     
  21 C21           11.5521     3.1868     2.1262 C.ar    
  22 C22           12.2959     4.2816     1.7351 C.ar    
  23 C23           11.7281     5.2728     0.9491 C.ar    
  24 C24           10.4137     5.1769     0.5482 C.ar    
  25 O25            1.2242    -2.0454    -0.0197 O.3     
  26 C26           -0.0427    -2.7064    -0.0112 C.3     
  27 H27           -0.9601     1.9037     0.0169 H       
  28 H28           -0.9268    -0.5550     0.0079 H       
  29 H29            3.3450    -0.5124    -0.0306 H       
  30 H30            1.1487     3.1683     0.0074 H       
  31 H31            5.1049     5.0120    -1.2009 H       
  32 H32            6.8713     1.0275     1.7777 H       
  33 H33           12.0010     2.4189     2.7388 H       
  34 H34           13.3273     4.3671     2.0437 H       
  35 H35           12.3200     6.1249     0.6492 H       
  36 H36            9.9758     5.9513    -0.0642 H       
  37 H37           -0.5941    -2.4234     0.8854 H       
  38 H38           -0.6107    -2.4145    -0.8944 H       
  39 H39            0.1105    -3.7856    -0.0181 H       
@<TRIPOS>BOND
   1    1    2 ar
   2    1    6 ar
   3    1   27 1
   4    2    3 ar
   5    2   28 1
   6    3    4 ar
   7    3   25 1
   8    4    5 ar
   9    4   29 1
  10    5    6 ar
  11    5    7 1
  12    6   30 1
  13    7    8 ar
  14    7   12 ar
  15    8    9 ar
  16    9   10 ar
  17    9   15 1
  18   10   11 ar
  19   11   12 ar
  20   11   31 1
  21   12   13 1
  22   13   14 3
  23   15   16 1
  24   15   32 1
  25   16   17 1
  26   16   20 2
  27   17   18 1
  28   18   19 ar
  29   18   21 ar
  30   19   20 1
  31   19   24 ar
  32   21   22 ar
  33   21   33 1
  34   22   23 ar
  35   22   34 1
  36   23   24 ar
  37   23   35 1
  38   24   36 1
  39   25   26 1
  40   26   37 1
  41   26   38 1
  42   26   39 1

#	End of record

