#	Name: ASD01814286
#	Creating user name:	WinNT
#	Creation time:	15. 06. 2019 19:32

#	Modifying user name:	WinNT
#	Modification time:	15. 06. 2019 19:32

#	Program:	/corina/corina34_cracker 3.40 0067  02.08.2006

@<TRIPOS>MOLECULE
ASD01814286
  62   67    0    0    0
SMALL
NO_CHARGES


@<TRIPOS>ATOM
   1 N1             0.1376     2.1198     0.7907 N.2     
   2 C2            -0.0483     0.9484     1.3521 C.2     
   3 C3             0.6653     0.5968     2.5081 C.2     
   4 C4             1.5486     1.4778     3.0398 C.2     
   5 N5             1.7228     2.6902     2.4354 N.pl3   
   6 C6             1.0075     2.9980     1.3071 C.2     
   7 N7             2.5377     3.7874     2.7330 N.2     
   8 C8             2.3344     4.7268     1.8314 C.2     
   9 C9             1.3899     4.2780     0.9237 C.2     
  10 C10            2.7646     6.1175     1.4341 C.3     
  11 N11            2.0204     6.4870     0.2262 N.am    
  12 C12            1.1560     5.3508    -0.1086 C.3     
  13 C13            2.1132     7.6502    -0.4484 C.2     
  14 O14            1.5061     7.7981    -1.4916 O.2     
  15 C15            2.9505     8.7431     0.0785 C.ar    
  16 C16            2.3837     9.9967     0.3508 C.ar    
  17 C17            4.3118     8.5335     0.3146 C.ar    
  18 C18            5.0895     9.5577     0.8073 C.ar    
  19 C19            4.5269    10.7989     1.0709 C.ar    
  20 C20            3.1789    11.0172     0.8463 C.ar    
  21 O21            1.0623    10.2092     0.1296 O.3     
  22 Cl22           0.4192    -0.9526     3.2515 Cl      
  23 F23            5.2980    11.7972     1.5546 F       
  24 C24           -1.0326    -0.0230     0.7533 C.3     
  25 C25            2.3268     1.1243     4.2809 C.3     
  26 C26            0.5825    11.5445     0.2999 C.3     
  27 C27            0.6194    12.2745    -1.0457 C.3     
  28 C28           -0.8545    11.5059     0.8279 C.3     
  29 C29           -0.3909    11.6145    -1.9977 C.3     
  30 C30           -1.7649    10.8980    -0.2511 C.3     
  31 C31           -0.1772    10.0848    -1.9276 C.3     
  32 C32           -1.0851     9.6114    -0.7735 C.3     
  33 N33           -1.7441    11.8214    -1.4167 N.3     
  34 C34           -2.7919    11.4708    -2.3848 C.3     
  35 O35           -0.3031     9.0078     0.2590 O.3     
  36 H36            2.5366     6.8182     2.2373 H       
  37 H37            3.8346     6.1279     1.2265 H       
  38 H38            1.4095     4.9724    -1.0989 H       
  39 H39            0.1117     5.6627    -0.0874 H       
  40 H40            4.7535     7.5691     0.1112 H       
  41 H41            6.1414     9.3943     0.9897 H       
  42 H42            2.7466    11.9842     1.0570 H       
  43 H43           -1.4874     0.4203    -0.1325 H       
  44 H44           -0.5141    -0.9405     0.4751 H       
  45 H45           -1.8083    -0.2513     1.4843 H       
  46 H46            2.0500     0.1228     4.6103 H       
  47 H47            3.3940     1.1524     4.0609 H       
  48 H48            2.0993     1.8418     5.0692 H       
  49 H49            1.2166    12.0692     1.0146 H       
  50 H50            0.3539    13.3216    -0.9004 H       
  51 H51            1.6206    12.2056    -1.4711 H       
  52 H52           -0.8962    10.8932     1.7284 H       
  53 H53           -1.1863    12.5185     1.0575 H       
  54 H54           -0.3062    11.9962    -3.0152 H       
  55 H55           -2.7725    10.7103     0.1200 H       
  56 H56           -0.4790     9.6163    -2.8643 H       
  57 H57            0.8658     9.8572    -1.7075 H       
  58 H58           -1.8335     8.9102    -1.1427 H       
  59 H59           -2.6881    10.4237    -2.6693 H       
  60 H60           -3.7713    11.6293    -1.9334 H       
  61 H61           -2.6938    12.0993    -3.2699 H       
  62 H62            0.0075     8.1169     0.0473 H       
@<TRIPOS>BOND
   1    1    2 2
   2    1    6 1
   3    2    3 1
   4    2   24 1
   5    3    4 2
   6    3   22 1
   7    4    5 1
   8    4   25 1
   9    5    7 1
  10    5    6 1
  11    6    9 2
  12    7    8 2
  13    8   10 1
  14    8    9 1
  15    9   12 1
  16   10   11 1
  17   10   36 1
  18   10   37 1
  19   11   12 1
  20   11   13 am
  21   12   38 1
  22   12   39 1
  23   13   14 2
  24   13   15 1
  25   15   17 ar
  26   15   16 ar
  27   16   20 ar
  28   16   21 1
  29   17   18 ar
  30   17   40 1
  31   18   19 ar
  32   18   41 1
  33   19   20 ar
  34   19   23 1
  35   20   42 1
  36   21   26 1
  37   24   43 1
  38   24   44 1
  39   24   45 1
  40   25   46 1
  41   25   47 1
  42   25   48 1
  43   26   27 1
  44   26   28 1
  45   26   49 1
  46   27   29 1
  47   27   50 1
  48   27   51 1
  49   28   30 1
  50   28   52 1
  51   28   53 1
  52   29   31 1
  53   29   33 1
  54   29   54 1
  55   30   32 1
  56   30   33 1
  57   30   55 1
  58   31   32 1
  59   31   56 1
  60   31   57 1
  61   32   35 1
  62   32   58 1
  63   33   34 1
  64   34   59 1
  65   34   60 1
  66   34   61 1
  67   35   62 1

#	End of record

