#	Name: ASD00230020
#	Creating user name:	WinNT
#	Creation time:	15. 06. 2019 18:33

#	Modifying user name:	WinNT
#	Modification time:	15. 06. 2019 18:33

#	Program:	/corina/corina34_cracker 3.40 0067  02.08.2006

@<TRIPOS>MOLECULE
ASD00230020
  62   66    0    0    0
SMALL
NO_CHARGES


@<TRIPOS>ATOM
   1 C1            -0.0169     1.3978     0.0097 C.ar    
   2 C2             0.0021    -0.0041     0.0020 C.ar    
   3 C3             1.2056    -0.6783    -0.0126 C.ar    
   4 C4             2.4044     0.0340    -0.0198 C.ar    
   5 C5             2.3875     1.4221    -0.0127 C.ar    
   6 C6             1.1879     2.1022     0.0020 C.ar    
   7 C7             0.8868     3.5813     0.0115 C.3     
   8 C8            -0.6180     3.7131     0.0257 C.2     
   9 C9            -1.1511     2.3421     0.0196 C.2     
  10 O10           -2.3289     2.0377     0.0276 O.2     
  11 C11           -1.3211     4.8439     0.0372 C.2     
  12 C12           -0.6106     6.1730     0.0367 C.3     
  13 C13           -1.0171     6.9700    -1.2058 C.3     
  14 C14           -0.3402     8.3421    -1.1698 C.3     
  15 N15           -0.7456     9.0575     0.0469 N.3     
  16 C16           -0.3241     8.3343     1.2534 C.3     
  17 C17           -1.0005     6.9620     1.2897 C.3     
  18 C18           -0.2254    10.4313     0.0478 C.3     
  19 C19           -0.8562    11.2065     1.1758 C.ar    
  20 N20           -2.0237    11.7752     0.9841 N.ar    
  21 C21           -2.6311    12.4752     1.9492 C.ar    
  22 C22           -2.0140    12.6164     3.2148 C.ar    
  23 C23           -0.7550    12.0075     3.4345 C.ar    
  24 C24           -0.1888    11.2942     2.3899 C.ar    
  25 N25           -0.1110    12.1176     4.6574 N.pl3   
  26 C26           -3.8811    13.0788     1.7282 C.ar    
  27 C27           -4.4763    13.7856     2.7278 C.ar    
  28 C28           -3.8661    13.9224     3.9722 C.ar    
  29 C29           -2.6545    13.3514     4.2219 C.ar    
  30 O30            1.2229    -2.0382    -0.0197 O.3     
  31 C31           -0.0419    -2.7031    -0.0112 C.3     
  32 O32            3.5886    -0.6303    -0.0333 O.3     
  33 C33            4.7773     0.1628    -0.0400 C.3     
  34 H34           -0.9260    -0.5564     0.0079 H       
  35 H35            3.3173     1.9714    -0.0182 H       
  36 H36            1.3108     4.0432     0.9030 H       
  37 H37            1.2946     4.0513    -0.8834 H       
  38 H38           -2.4005     4.8086     0.0468 H       
  39 H39            0.4671     6.0099     0.0285 H       
  40 H40           -0.7038     6.4331    -2.1012 H       
  41 H41           -2.0994     7.0984    -1.2179 H       
  42 H42            0.7421     8.2132    -1.1717 H       
  43 H43           -0.6389     8.9175    -2.0460 H       
  44 H44            0.7582     8.2055     1.2402 H       
  45 H45           -0.6111     8.9041     2.1372 H       
  46 H46           -2.0826     7.0903     1.3169 H       
  47 H47           -0.6754     6.4194     2.1773 H       
  48 H48            0.8561    10.4102     0.1818 H       
  49 H49           -0.4647    10.9111    -0.9012 H       
  50 H50            0.7706    10.8149     2.5175 H       
  51 H51           -0.5228    12.6181     5.3791 H       
  52 H52            0.7514    11.6942     4.7912 H       
  53 H53           -4.3674    12.9825     0.7687 H       
  54 H54           -5.4366    14.2479     2.5530 H       
  55 H55           -4.3592    14.4884     4.7487 H       
  56 H56           -2.1903    13.4642     5.1905 H       
  57 H57           -0.5942    -2.4219     0.8854 H       
  58 H58           -0.6109    -2.4129    -0.8944 H       
  59 H59            0.1146    -3.7818    -0.0181 H       
  60 H60            4.8022     0.7877     0.8527 H       
  61 H61            5.6498    -0.4904    -0.0508 H       
  62 H62            4.7866     0.7961    -0.9272 H       
@<TRIPOS>BOND
   1    1    2 ar
   2    1    6 ar
   3    1    9 1
   4    2    3 ar
   5    2   34 1
   6    3   30 1
   7    3    4 ar
   8    4   32 1
   9    4    5 ar
  10    5    6 ar
  11    5   35 1
  12    6    7 1
  13    7    8 1
  14    7   36 1
  15    7   37 1
  16    8    9 1
  17    8   11 2
  18    9   10 2
  19   11   12 1
  20   11   38 1
  21   12   13 1
  22   12   17 1
  23   12   39 1
  24   13   14 1
  25   13   40 1
  26   13   41 1
  27   14   15 1
  28   14   42 1
  29   14   43 1
  30   15   16 1
  31   15   18 1
  32   16   17 1
  33   16   44 1
  34   16   45 1
  35   17   46 1
  36   17   47 1
  37   18   19 1
  38   18   48 1
  39   18   49 1
  40   19   20 ar
  41   19   24 ar
  42   20   21 ar
  43   21   22 ar
  44   21   26 ar
  45   22   23 ar
  46   22   29 ar
  47   23   24 ar
  48   23   25 1
  49   24   50 1
  50   25   51 1
  51   25   52 1
  52   26   27 ar
  53   26   53 1
  54   27   28 ar
  55   27   54 1
  56   28   29 ar
  57   28   55 1
  58   29   56 1
  59   30   31 1
  60   31   57 1
  61   31   58 1
  62   31   59 1
  63   32   33 1
  64   33   60 1
  65   33   61 1
  66   33   62 1

#	End of record

