#	Name: ASD01916425
#	Creating user name:	WinNT
#	Creation time:	15. 06. 2019 20:07

#	Modifying user name:	WinNT
#	Modification time:	15. 06. 2019 20:07

#	Program:	/corina/corina34_cracker 3.40 0067  02.08.2006

@<TRIPOS>MOLECULE
ASD01916425
  35   37    0    0    0
SMALL
NO_CHARGES


@<TRIPOS>ATOM
   1 C1            -0.0168     1.3912     0.0097 C.ar    
   2 C2             0.0021    -0.0041     0.0020 C.ar    
   3 C3             1.2204    -0.6594    -0.0131 C.ar    
   4 C4             2.3820     0.1007    -0.0201 C.ar    
   5 C5             2.2905     1.4803    -0.0118 C.ar    
   6 N6             1.1180     2.0808     0.0026 N.ar    
   7 C7            -1.2697     2.0847     0.0194 C.1     
   8 C8            -2.2967     2.6533     0.0273 C.1     
   9 C9            -3.5846     3.3662     0.0372 C.3     
  10 C10           -3.3321     4.8752     0.0443 C.3     
  11 N11           -4.6138     5.5848     0.0541 N.pl3   
  12 N12           -5.5657     5.4292    -0.7972 N.2     
  13 N13           -6.5558     6.1984    -0.5107 N.2     
  14 C14           -6.2499     6.9062     0.5913 C.2     
  15 C15           -4.9981     6.5094     0.9631 C.2     
  16 C16           -7.1044     7.9127     1.2700 C.ar    
  17 C17           -8.3705     8.2063     0.7685 C.ar    
  18 C18           -9.1618     9.1422     1.4028 C.ar    
  19 C19           -8.6987     9.7895     2.5367 C.ar    
  20 C20           -7.4402     9.5005     3.0387 C.ar    
  21 C21           -6.6446     8.5621     2.4136 C.ar    
  22 F22           -9.4763    10.7054     3.1544 F       
  23 H23           -0.9212    -0.5644     0.0082 H       
  24 H24            1.2668    -1.7384    -0.0190 H       
  25 H25            3.3484    -0.3812    -0.0315 H       
  26 H26            3.1928     2.0739    -0.0172 H       
  27 H27           -4.1555     3.0975    -0.8515 H       
  28 H28           -4.1471     3.0878     0.9284 H       
  29 H29           -2.7611     5.1440     0.9330 H       
  30 H30           -2.7695     5.1536    -0.8469 H       
  31 H31           -4.4291     6.8636     1.8100 H       
  32 H32           -8.7322     7.7024    -0.1156 H       
  33 H33          -10.1433     9.3706     1.0145 H       
  34 H34           -7.0830    10.0074     3.9229 H       
  35 H35           -5.6653     8.3345     2.8079 H       
@<TRIPOS>BOND
   1    1    2 ar
   2    1    6 ar
   3    1    7 1
   4    2    3 ar
   5    2   23 1
   6    3    4 ar
   7    3   24 1
   8    4    5 ar
   9    4   25 1
  10    5    6 ar
  11    5   26 1
  12    7    8 3
  13    8    9 1
  14    9   10 1
  15    9   27 1
  16    9   28 1
  17   10   11 1
  18   10   29 1
  19   10   30 1
  20   11   12 1
  21   11   15 1
  22   12   13 2
  23   13   14 1
  24   14   15 2
  25   14   16 1
  26   15   31 1
  27   16   17 ar
  28   16   21 ar
  29   17   18 ar
  30   17   32 1
  31   18   19 ar
  32   18   33 1
  33   19   20 ar
  34   19   22 1
  35   20   21 ar
  36   20   34 1
  37   21   35 1

#	End of record

