#	Name: ASD01914033
#	Creating user name:	WinNT
#	Creation time:	15. 06. 2019 20:02

#	Modifying user name:	WinNT
#	Modification time:	15. 06. 2019 20:02

#	Program:	/corina/corina34_cracker 3.40 0067  02.08.2006

@<TRIPOS>MOLECULE
ASD01914033
  39   41    0    0    0
SMALL
NO_CHARGES


@<TRIPOS>ATOM
   1 C1            -0.0167     1.3779     0.0096 C.ar    
   2 C2             0.0021    -0.0041     0.0020 C.ar    
   3 C3             1.2099    -0.6820    -0.0132 C.ar    
   4 C4             2.3810     1.4110    -0.0131 C.ar    
   5 C5             1.1694     2.0866     0.0021 C.ar    
   6 O6             3.5481     2.1071    -0.0210 O.3     
   7 C7             4.7574     1.3459    -0.0367 C.3     
   8 C8             5.9394     2.2807    -0.0434 C.ar    
   9 N9             7.1608     1.7823    -0.0579 N.ar    
  10 C10            8.2272     2.5549    -0.0644 C.ar    
  11 C11            8.0971     3.9440    -0.0556 C.ar    
  12 C12            6.8134     4.5029    -0.0403 C.ar    
  13 C13            5.7258     3.6477    -0.0401 C.ar    
  14 C14            9.2945     4.8111    -0.0619 C.2     
  15 N15           10.5248     4.2611    -0.0763 N.am    
  16 O16            9.1693     6.0202    -0.0542 O.2     
  17 C17            2.3995     0.0240    -0.0208 C.ar    
  18 C18           11.7113     5.1204    -0.0825 C.3     
  19 F19            1.2262    -2.0329    -0.0202 F       
  20 C20           12.9647     4.4442     0.4978 C.3     
  21 C21           13.7580     5.1245    -0.6304 C.3     
  22 C22           12.4464     5.1458    -1.4330 C.3     
  23 H23           -0.9596     1.9044     0.0169 H       
  24 H24           -0.9262    -0.5561     0.0083 H       
  25 H25            1.1533     3.1665     0.0084 H       
  26 H26            4.7998     0.7130     0.8498 H       
  27 H27            4.7825     0.7220    -0.9301 H       
  28 H28            9.2110     2.1094    -0.0762 H       
  29 H29            6.6757     5.5741    -0.0331 H       
  30 H30            4.7208     4.0429    -0.0285 H       
  31 H31           10.6247     3.2963    -0.0824 H       
  32 H32            3.3416    -0.5040    -0.0323 H       
  33 H33           11.5189     6.1108     0.3301 H       
  34 H34           13.2306     4.7987     1.4936 H       
  35 H35           12.9474     3.3568     0.4251 H       
  36 H36           14.1258     6.1166    -0.3686 H       
  37 H37           14.5274     4.4886    -1.0681 H       
  38 H38           12.2874     4.2502    -2.0336 H       
  39 H39           12.2938     6.0667    -1.9959 H       
@<TRIPOS>BOND
   1    1    2 ar
   2    1    5 ar
   3    1   23 1
   4    2    3 ar
   5    2   24 1
   6    3   17 ar
   7    3   19 1
   8    4    5 ar
   9    4    6 1
  10    4   17 ar
  11    5   25 1
  12    6    7 1
  13    7    8 1
  14    7   26 1
  15    7   27 1
  16    8    9 ar
  17    8   13 ar
  18    9   10 ar
  19   10   11 ar
  20   10   28 1
  21   11   12 ar
  22   11   14 1
  23   12   13 ar
  24   12   29 1
  25   13   30 1
  26   14   15 am
  27   14   16 2
  28   15   18 1
  29   15   31 1
  30   17   32 1
  31   18   20 1
  32   18   22 1
  33   18   33 1
  34   20   21 1
  35   20   34 1
  36   20   35 1
  37   21   22 1
  38   21   36 1
  39   21   37 1
  40   22   38 1
  41   22   39 1

#	End of record

