#	Name: ASD01885573
#	Creating user name:	WinNT
#	Creation time:	15. 06. 2019 19:49

#	Modifying user name:	WinNT
#	Modification time:	15. 06. 2019 19:49

#	Program:	/corina/corina34_cracker 3.40 0067  02.08.2006

@<TRIPOS>MOLECULE
ASD01885573
  47   50    0    0    0
SMALL
NO_CHARGES


@<TRIPOS>ATOM
   1 C1            -0.4076     1.4927    -1.4411 C.ar    
   2 C2            -0.4386     0.1113    -1.6300 C.ar    
   3 C3            -1.4931    -0.6281    -1.1362 C.ar    
   4 C4            -2.5236     0.0004    -0.4516 C.ar    
   5 C5            -2.4969     1.3780    -0.2608 C.ar    
   6 C6            -1.4419     2.1226    -0.7479 C.ar    
   7 C7             0.7241     2.2889    -1.9701 C.2     
   8 O8            -3.5611    -0.7313     0.0331 O.3     
   9 C9             2.0316     2.1002    -1.4597 C.2     
  10 C10            3.0587     2.8243    -1.9419 C.2     
  11 N11            2.8614     3.7499    -2.9264 N.pl3   
  12 C12            1.6090     3.9640    -3.4491 C.2     
  13 C13            0.5153     3.2201    -2.9715 C.2     
  14 Cl14          -1.0748     3.4761    -3.6192 Cl      
  15 C15            3.6907     4.6037    -3.5876 C.2     
  16 N16            2.9643     5.2747    -4.4439 N.2     
  17 N17            1.7338     4.9059    -4.3714 N.2     
  18 C18            5.1750     4.7497    -3.3715 C.3     
  19 O19            5.8729     3.8513    -4.2362 O.3     
  20 C20           -3.4956    -2.0823    -0.0797 C.ar    
  21 C21           -2.8981    -2.8537     0.9141 C.ar    
  22 C22           -2.8514    -4.2244     0.7621 C.ar    
  23 N23           -3.3632    -4.8039    -0.3072 N.ar    
  24 C24           -3.9373    -4.1072    -1.2700 C.ar    
  25 C25           -4.0294    -2.7332    -1.1897 C.ar    
  26 C26           -4.5050    -4.8223    -2.4689 C.3     
  27 F27           -3.5018     1.9869     0.4062 F       
  28 C28            7.2951     3.9102    -4.1101 C.3     
  29 C29            7.9346     2.9120    -5.0773 C.3     
  30 H30            0.3625    -0.3792    -2.1629 H       
  31 H31           -1.5170    -1.6978    -1.2830 H       
  32 H32           -1.4209     3.1922    -0.6000 H       
  33 H33            2.2052     1.3729    -0.6804 H       
  34 H34            4.0514     2.6717    -1.5449 H       
  35 H35            5.4753     5.7739    -3.5928 H       
  36 H36            5.4158     4.5165    -2.3343 H       
  37 H37           -2.4767    -2.3856     1.7914 H       
  38 H38           -2.3900    -4.8304     1.5277 H       
  39 H39           -4.5005    -2.1690    -1.9810 H       
  40 H40           -5.5472    -5.0789    -2.2790 H       
  41 H41           -4.4441    -4.1725    -3.3420 H       
  42 H42           -3.9344    -5.7325    -2.6529 H       
  43 H43            7.6394     4.9169    -4.3467 H       
  44 H44            7.5799     3.6595    -3.0883 H       
  45 H45            7.5903     1.9052    -4.8407 H       
  46 H46            7.6498     3.1626    -6.0991 H       
  47 H47            9.0194     2.9569    -4.9811 H       
@<TRIPOS>BOND
   1    1    2 ar
   2    1    7 1
   3    1    6 ar
   4    2    3 ar
   5    2   30 1
   6    3    4 ar
   7    3   31 1
   8    4    5 ar
   9    4    8 1
  10    5    6 ar
  11    5   27 1
  12    6   32 1
  13    7    9 1
  14    7   13 2
  15    8   20 1
  16    9   10 2
  17    9   33 1
  18   10   11 1
  19   10   34 1
  20   11   12 1
  21   11   15 1
  22   12   13 1
  23   12   17 2
  24   13   14 1
  25   15   16 2
  26   15   18 1
  27   16   17 1
  28   18   19 1
  29   18   35 1
  30   18   36 1
  31   19   28 1
  32   20   21 ar
  33   20   25 ar
  34   21   22 ar
  35   21   37 1
  36   22   23 ar
  37   22   38 1
  38   23   24 ar
  39   24   25 ar
  40   24   26 1
  41   25   39 1
  42   26   40 1
  43   26   41 1
  44   26   42 1
  45   28   29 1
  46   28   43 1
  47   28   44 1
  48   29   45 1
  49   29   46 1
  50   29   47 1

#	End of record

