#	Name: ASD01814676
#	Creating user name:	WinNT
#	Creation time:	15. 06. 2019 19:32

#	Modifying user name:	WinNT
#	Modification time:	15. 06. 2019 19:32

#	Program:	/corina/corina34_cracker 3.40 0067  02.08.2006

@<TRIPOS>MOLECULE
ASD01814676
  56   59    0    0    0
SMALL
NO_CHARGES


@<TRIPOS>ATOM
   1 C1             0.1848     1.0547    -0.2133 C.3     
   2 C2             0.1301    -0.4299     0.0400 C.ar    
   3 C3             0.0579    -1.3069    -1.0257 C.ar    
   4 C4             0.0347    -0.7765    -2.4361 C.3     
   5 C5             0.0074    -2.6707    -0.8001 C.ar    
   6 F6            -0.0627    -3.5279    -1.8420 F       
   7 C7             0.0296    -3.1591     0.5099 C.ar    
   8 C8             0.1026    -2.2647     1.5800 C.ar    
   9 C9             0.1580    -0.9085     1.3389 C.ar    
  10 C10            0.2430     0.0566     2.4932 C.3     
  11 C11            1.6836     0.4292     2.7314 C.ar    
  12 C12            2.4869    -0.3864     3.5080 C.ar    
  13 C13            3.8070    -0.0501     3.7295 C.ar    
  14 C14            4.3303     1.1137     3.1691 C.ar    
  15 C15            3.5163     1.9317     2.3876 C.ar    
  16 C16            2.1992     1.5826     2.1681 C.ar    
  17 C17            5.7483     1.4808     3.4040 C.2     
  18 C18            6.3118     2.5948     2.8947 C.2     
  19 S19            7.9936     2.6376     3.4176 S.3     
  20 C20            7.7817     1.1677     4.2634 C.2     
  21 N21            6.5714     0.7455     4.1376 N.2     
  22 C22           -0.0244    -4.6136     0.7606 C.2     
  23 O23           -0.0884    -5.3894    -0.1731 O.2     
  24 N24           -0.0028    -5.0808     2.0246 N.am    
  25 C25           -0.0564    -6.5235     2.2734 C.3     
  26 H26           -0.6915    -6.9987     1.5257 H       
  27 C27            1.3556    -7.1094     2.1922 C.3     
  28 O28            1.3084    -8.5058     2.4921 O.3     
  29 C29            0.8265    -8.8050     3.8038 C.3     
  30 C30           -0.6068    -8.2872     3.9496 C.3     
  31 C31           -0.6297    -6.7812     3.6703 C.3     
  32 H32           -0.0236    -6.2640     4.4142 H       
  33 O33           -1.9749    -6.3028     3.7307 O.3     
  34 H34            1.2222     1.3633    -0.3420 H       
  35 H35           -0.3790     1.2903    -1.1159 H       
  36 H36           -0.2493     1.5842     0.6349 H       
  37 H37            1.0553    -0.6925    -2.8095 H       
  38 H38           -0.5297    -1.4588    -3.0716 H       
  39 H39           -0.4382     0.2055    -2.4472 H       
  40 H40            0.1201    -2.6350     2.5944 H       
  41 H41           -0.3305     0.9537     2.2598 H       
  42 H42           -0.1641    -0.4119     3.3893 H       
  43 H43            2.0803    -1.2879     3.9420 H       
  44 H44            4.4332    -0.6874     4.3362 H       
  45 H45            3.9167     2.8347     1.9510 H       
  46 H46            1.5687     2.2134     1.5591 H       
  47 H47            5.8195     3.3304     2.2759 H       
  48 H48            8.5533     0.6655     4.8281 H       
  49 H49            0.0482    -4.4617     2.7697 H       
  50 H50            1.7511    -6.9668     1.1866 H       
  51 H51            2.0005    -6.6047     2.9117 H       
  52 H52            0.8408    -9.8838     3.9590 H       
  53 H53            1.4644    -8.3225     4.5442 H       
  54 H54           -1.2533    -8.7988     3.2366 H       
  55 H55           -0.9606    -8.4750     4.9634 H       
  56 H56           -2.4007    -6.4338     4.5889 H       
@<TRIPOS>BOND
   1    1    2 1
   2    1   34 1
   3    1   35 1
   4    1   36 1
   5    2    9 ar
   6    2    3 ar
   7    3    4 1
   8    3    5 ar
   9    4   37 1
  10    4   38 1
  11    4   39 1
  12    5    6 1
  13    5    7 ar
  14    7    8 ar
  15    7   22 1
  16    8    9 ar
  17    8   40 1
  18    9   10 1
  19   10   11 1
  20   10   41 1
  21   10   42 1
  22   11   16 ar
  23   11   12 ar
  24   12   13 ar
  25   12   43 1
  26   13   14 ar
  27   13   44 1
  28   14   15 ar
  29   14   17 1
  30   15   16 ar
  31   15   45 1
  32   16   46 1
  33   17   21 1
  34   17   18 2
  35   18   19 1
  36   18   47 1
  37   19   20 1
  38   20   21 2
  39   20   48 1
  40   22   23 2
  41   22   24 am
  42   24   25 1
  43   24   49 1
  44   25   26 1
  45   25   31 1
  46   25   27 1
  47   27   28 1
  48   27   50 1
  49   27   51 1
  50   28   29 1
  51   29   30 1
  52   29   52 1
  53   29   53 1
  54   30   31 1
  55   30   54 1
  56   30   55 1
  57   31   32 1
  58   31   33 1
  59   33   56 1

#	End of record

