#	Name: ASD01148591
#	Creating user name:	WinNT
#	Creation time:	15. 06. 2019 19:02

#	Modifying user name:	WinNT
#	Modification time:	15. 06. 2019 19:02

#	Program:	/corina/corina34_cracker 3.40 0067  02.08.2006

@<TRIPOS>MOLECULE
ASD01148591
  64   68    0    0    0
SMALL
NO_CHARGES


@<TRIPOS>ATOM
   1 C1            -0.0646     0.5068     0.5964 C.ar    
   2 C2            -0.3258    -0.8527     0.6108 C.ar    
   3 C3            -1.6241    -1.3084     0.4668 C.ar    
   4 C4            -2.6594    -0.4066     0.3087 C.ar    
   5 C5            -2.3985     0.9511     0.2944 C.ar    
   6 C6            -1.1028     1.4082     0.4433 C.ar    
   7 C7            -3.5284     1.9333     0.1214 C.3     
   8 O8            -4.7482     1.4231     0.6969 O.3     
   9 C9            -3.2892     3.2069     0.9668 C.3     
  10 C10           -4.0371     2.8967     2.2496 C.2     
  11 N11           -4.8237     1.8957     2.0273 N.2     
  12 C12           -3.8911     3.6125     3.5285 C.ar    
  13 C13           -4.6769     3.2073     4.6916 C.ar    
  14 C14           -3.0019     4.6727     3.6382 C.ar    
  15 C15           -2.8443     5.3623     4.8270 C.ar    
  16 C16           -3.5689     5.0237     5.9620 C.ar    
  17 C17           -4.5161     3.9125     5.9076 C.ar    
  18 C18           -3.3795     5.7760     7.2145 C.2     
  19 O19           -2.8516     5.2419     8.1705 O.2     
  20 N20           -3.7916     7.0564     7.3004 N.am    
  21 C21           -5.2676     3.5356     7.0276 C.ar    
  22 C22           -5.5817     2.1399     4.6282 C.ar    
  23 C23           -3.7242     2.2838    -1.3549 C.3     
  24 F24           -4.0077     1.1196    -2.0771 F       
  25 F25           -4.7881     3.1831    -1.4835 F       
  26 F26           -2.5558     2.8693    -1.8542 F       
  27 Cl27           0.9751    -1.9850     0.8088 Cl      
  28 Cl28           1.5639     1.0802     0.7776 Cl      
  29 C29           -3.6898     7.7748     8.5731 C.3     
  30 C30           -2.3522     8.4642     8.6552 C.ar    
  31 N31           -1.3009     7.7972     9.0893 N.ar    
  32 C32           -4.2973     7.6758     6.2155 C.2     
  33 C33           -0.1111     8.3592     9.1779 C.ar    
  34 C34            0.0757     9.6795     8.8157 C.ar    
  35 C35           -1.0068    10.4133     8.3544 C.ar    
  36 C36           -2.2405     9.7868     8.2693 C.ar    
  37 O37           -4.2994     7.1115     5.1398 O.2     
  38 O38           -4.7999     8.9197     6.3239 O.3     
  39 C39           -5.3277     9.5252     5.1143 C.3     
  40 C40           -6.2946     1.7949     5.7378 C.ar    
  41 C41           -6.1400     2.4921     6.9330 C.ar    
  42 C42           -1.9093    -2.7881     0.4819 C.3     
  43 F43           -3.2828    -2.9999     0.3204 F       
  44 F44           -1.2159    -3.4073    -0.5636 F       
  45 F45           -1.4942    -3.3307     1.7027 F       
  46 H46           -3.6728    -0.7627     0.1960 H       
  47 H47           -0.8997     2.4689     0.4321 H       
  48 H48           -2.2262     3.3472     1.1630 H       
  49 H49           -3.7118     4.0830     0.4748 H       
  50 H50           -2.4201     4.9653     2.7766 H       
  51 H51           -2.1421     6.1816     4.8734 H       
  52 H52           -5.1566     4.0680     7.9607 H       
  53 H53           -5.7140     1.5938     3.7059 H       
  54 H54           -4.4855     8.5171     8.6360 H       
  55 H55           -3.7857     7.0685     9.3977 H       
  56 H56            0.7269     7.7809     9.5382 H       
  57 H57            1.0523    10.1344     8.8912 H       
  58 H58           -0.8906    11.4472     8.0645 H       
  59 H59           -3.1051    10.3277     7.9140 H       
  60 H60           -5.7002    10.5242     5.3407 H       
  61 H61           -4.5370     9.5929     4.3671 H       
  62 H62           -6.1421     8.9129     4.7270 H       
  63 H63           -6.9920     0.9717     5.6880 H       
  64 H64           -6.7189     2.2020     7.7974 H       
@<TRIPOS>BOND
   1    1    2 ar
   2    1   28 1
   3    1    6 ar
   4    2    3 ar
   5    2   27 1
   6    3    4 ar
   7    3   42 1
   8    4    5 ar
   9    4   46 1
  10    5    6 ar
  11    5    7 1
  12    6   47 1
  13    7    8 1
  14    7    9 1
  15    7   23 1
  16    8   11 1
  17    9   10 1
  18    9   48 1
  19    9   49 1
  20   10   11 2
  21   10   12 1
  22   12   13 ar
  23   12   14 ar
  24   13   22 ar
  25   13   17 ar
  26   14   15 ar
  27   14   50 1
  28   15   16 ar
  29   15   51 1
  30   16   17 ar
  31   16   18 1
  32   17   21 ar
  33   18   19 2
  34   18   20 am
  35   20   29 1
  36   20   32 am
  37   21   41 ar
  38   21   52 1
  39   22   40 ar
  40   22   53 1
  41   23   24 1
  42   23   25 1
  43   23   26 1
  44   29   30 1
  45   29   54 1
  46   29   55 1
  47   30   31 ar
  48   30   36 ar
  49   31   33 ar
  50   32   37 2
  51   32   38 1
  52   33   34 ar
  53   33   56 1
  54   34   35 ar
  55   34   57 1
  56   35   36 ar
  57   35   58 1
  58   36   59 1
  59   38   39 1
  60   39   60 1
  61   39   61 1
  62   39   62 1
  63   40   41 ar
  64   40   63 1
  65   41   64 1
  66   42   43 1
  67   42   44 1
  68   42   45 1

#	End of record

