#	Name: ASD01814232
#	Creating user name:	WinNT
#	Creation time:	15. 06. 2019 19:31

#	Modifying user name:	WinNT
#	Modification time:	15. 06. 2019 19:31

#	Program:	/corina/corina34_cracker 3.40 0067  02.08.2006

@<TRIPOS>MOLECULE
ASD01814232
  36   39    0    0    0
SMALL
NO_CHARGES


@<TRIPOS>ATOM
   1 C1            -0.0167     1.3820     0.0096 C.ar    
   2 C2             0.0021    -0.0041     0.0020 C.ar    
   3 C3             1.1959    -0.6932    -0.0130 C.ar    
   4 C4             2.4016     0.0019    -0.0208 C.ar    
   5 C5             2.3831     1.4075    -0.0131 C.ar    
   6 C6             1.1665     2.0939     0.0022 C.ar    
   7 N7             3.6010    -0.6771    -0.0354 N.pl3   
   8 C8             4.7870    -0.0549    -0.0424 C.2     
   9 C9             4.8957     1.3208    -0.0361 C.2     
  10 C10            3.6667     2.1313    -0.0214 C.2     
  11 C11            6.2161     1.9660    -0.0437 C.2     
  12 O12            6.3092     3.3109    -0.0374 O.3     
  13 O13            7.2243     1.2870    -0.0558 O.2     
  14 O14            3.7090     3.3491    -0.0157 O.2     
  15 C15            3.5775    -2.1419    -0.0430 C.3     
  16 C16            3.5565    -2.6366    -1.4663 C.2     
  17 N17            4.6120    -2.8974    -2.1773 N.2     
  18 C18            4.2175    -3.3205    -3.4088 C.ar    
  19 C19            2.8145    -3.3018    -3.4066 C.ar    
  20 O20            2.4444    -2.8763    -2.1788 O.3     
  21 C21            4.9013    -3.7284    -4.5553 C.ar    
  22 C22            4.1936    -4.1086    -5.6735 C.ar    
  23 C23            2.8065    -4.0887    -5.6673 C.ar    
  24 C24            2.1178    -3.6880    -4.5417 C.ar    
  25 F25            1.1476     3.4448     0.0096 F       
  26 H26           -0.9604     1.9071     0.0169 H       
  27 H27           -0.9295    -0.5505     0.0083 H       
  28 H28            1.1956    -1.7731    -0.0185 H       
  29 H29            5.6884    -0.6497    -0.0531 H       
  30 H30            7.1990     3.6894    -0.0429 H       
  31 H31            4.4662    -2.5222     0.4608 H       
  32 H32            2.6865    -2.4937     0.4772 H       
  33 H33            5.9811    -3.7453    -4.5654 H       
  34 H34            4.7217    -4.4240    -6.5612 H       
  35 H35            2.2621    -4.3888    -6.5505 H       
  36 H36            1.0379    -3.6754    -4.5441 H       
@<TRIPOS>BOND
   1    1    2 ar
   2    1    6 ar
   3    1   26 1
   4    2    3 ar
   5    2   27 1
   6    3    4 ar
   7    3   28 1
   8    4    5 ar
   9    4    7 1
  10    5    6 ar
  11    5   10 1
  12    6   25 1
  13    7    8 1
  14    7   15 1
  15    8    9 2
  16    8   29 1
  17    9   10 1
  18    9   11 1
  19   10   14 2
  20   11   12 1
  21   11   13 2
  22   12   30 1
  23   15   16 1
  24   15   31 1
  25   15   32 1
  26   16   17 2
  27   16   20 1
  28   17   18 1
  29   18   19 ar
  30   18   21 ar
  31   19   20 1
  32   19   24 ar
  33   21   22 ar
  34   21   33 1
  35   22   23 ar
  36   22   34 1
  37   23   24 ar
  38   23   35 1
  39   24   36 1

#	End of record

