#	Name: ASD04590331
#	Creating user name:	WinNT
#	Creation time:	15. 06. 2019 20:50

#	Modifying user name:	WinNT
#	Modification time:	15. 06. 2019 20:50

#	Program:	/corina/corina34_cracker 3.40 0067  02.08.2006

@<TRIPOS>MOLECULE
ASD04590331
  53   57    0    0    0
SMALL
NO_CHARGES


@<TRIPOS>ATOM
   1 C1            -0.0168     1.3876     0.0097 C.ar    
   2 C2             0.0021    -0.0041     0.0020 C.ar    
   3 C3             1.2021    -0.6866    -0.0132 C.ar    
   4 C4             2.4052     0.0260    -0.0209 C.ar    
   5 C5             2.3773     1.4317    -0.0130 C.ar    
   6 C6             1.1626     2.1017     0.0022 C.ar    
   7 N7             3.7079    -0.3491    -0.0358 N.2     
   8 C8             4.4734     0.7155    -0.0377 C.2     
   9 N9             3.6984     1.8435    -0.0239 N.pl3   
  10 C10            5.9508     0.6997    -0.0515 C.2     
  11 C11            6.7697    -0.4530    -0.0652 C.2     
  12 C12            8.0614    -0.0422    -0.0749 C.2     
  13 N13            8.0664     1.3167    -0.0677 N.pl3   
  14 N14            6.7373     1.7581    -0.0588 N.2     
  15 N15            6.3245    -1.7849    -0.0675 N.am    
  16 C16            7.2178    -2.7940    -0.0812 C.2     
  17 C17            6.7501    -4.1931    -0.0836 C.ar    
  18 O18            8.4094    -2.5512    -0.0916 O.2     
  19 C19            6.0712    -6.1633    -1.2869 C.ar    
  20 C20            5.8700    -6.8230    -0.0881 C.ar    
  21 C21            6.1001    -6.1770     1.1131 C.ar    
  22 C22            6.5389    -4.8664     1.1245 C.ar    
  23 F23            6.7635    -4.2374     2.2989 F       
  24 C24            6.5097    -4.8525    -1.2939 C.ar    
  25 F25            6.7052    -4.2098    -2.4660 F       
  26 C26            1.2153    -2.1936    -0.0209 C.3     
  27 N27            1.2060    -2.6762    -1.4083 N.3     
  28 C28            1.4566    -4.1238    -1.4642 C.3     
  29 C29            2.1851    -1.9461    -2.2266 C.3     
  30 C30            2.1003    -2.4380    -3.6740 C.3     
  31 O31            2.3154    -3.8515    -3.7052 O.3     
  32 C32            1.3792    -4.5938    -2.9192 C.3     
  33 O33           -1.1686    -0.6957     0.0100 O.3     
  34 H34           -0.9612     1.9114     0.0170 H       
  35 H35            1.1409     3.1815     0.0079 H       
  36 H36            4.0157     2.7601    -0.0222 H       
  37 H37            8.9320    -0.6813    -0.0861 H       
  38 H38            8.8540     1.8829    -0.0720 H       
  39 H39            5.3741    -1.9786    -0.0591 H       
  40 H40            5.8892    -6.6751    -2.2203 H       
  41 H41            5.5273    -7.8471    -0.0898 H       
  42 H42            5.9402    -6.6995     2.0447 H       
  43 H43            2.1134    -2.5516     0.4824 H       
  44 H44            0.3336    -2.5673     0.4997 H       
  45 H45            2.4482    -4.3372    -1.0650 H       
  46 H46            0.7051    -4.6464    -0.8724 H       
  47 H47            1.9653    -0.8791    -2.1914 H       
  48 H48            3.1883    -2.1247    -1.8397 H       
  49 H49            1.1139    -2.2109    -4.0784 H       
  50 H50            2.8632    -1.9404    -4.2727 H       
  51 H51            1.6205    -5.6554    -2.9720 H       
  52 H52            0.3718    -4.4294    -3.3016 H       
  53 H53           -1.5160    -0.8910    -0.8711 H       
@<TRIPOS>BOND
   1    1    2 ar
   2    1    6 ar
   3    1   34 1
   4    2    3 ar
   5    2   33 1
   6    3    4 ar
   7    3   26 1
   8    4    5 ar
   9    4    7 1
  10    5    6 ar
  11    5    9 1
  12    6   35 1
  13    7    8 2
  14    8    9 1
  15    8   10 1
  16    9   36 1
  17   10   11 1
  18   10   14 2
  19   11   12 2
  20   11   15 1
  21   12   13 1
  22   12   37 1
  23   13   14 1
  24   13   38 1
  25   15   16 am
  26   15   39 1
  27   16   17 1
  28   16   18 2
  29   17   22 ar
  30   17   24 ar
  31   19   20 ar
  32   19   24 ar
  33   19   40 1
  34   20   21 ar
  35   20   41 1
  36   21   22 ar
  37   21   42 1
  38   22   23 1
  39   24   25 1
  40   26   27 1
  41   26   43 1
  42   26   44 1
  43   27   28 1
  44   27   29 1
  45   28   32 1
  46   28   45 1
  47   28   46 1
  48   29   30 1
  49   29   47 1
  50   29   48 1
  51   30   31 1
  52   30   49 1
  53   30   50 1
  54   31   32 1
  55   32   51 1
  56   32   52 1
  57   33   53 1

#	End of record

