#	Name: ASD09800063
#	Creating user name:	WinNT
#	Creation time:	15. 06. 2019 21:24

#	Modifying user name:	WinNT
#	Modification time:	15. 06. 2019 21:24

#	Program:	/corina/corina34_cracker 3.40 0067  02.08.2006

@<TRIPOS>MOLECULE
ASD09800063
  69   73    0    0    0
SMALL
NO_CHARGES


@<TRIPOS>ATOM
   1 C1             0.1053     1.8855    -1.1584 C.ar    
   2 C2             0.1870     0.5545    -1.5381 C.ar    
   3 C3             1.3885    -0.1337    -1.4072 C.ar    
   4 C4             2.5065     0.4973    -0.9002 C.ar    
   5 C5             1.2295     2.5248    -0.6476 C.ar    
   6 C6             1.4888     3.8962    -0.1600 C.2     
   7 C7             2.4405     1.8299    -0.5156 C.ar    
   8 N8             3.3865     2.7013     0.0156 N.am    
   9 C9             2.8533     3.9155     0.2307 C.2     
  10 O10            3.4454     4.8780     0.6880 O.2     
  11 C11            0.5841     4.9484    -0.0972 C.2     
  12 N12            1.0168     6.2057     0.2397 N.pl3   
  13 C13           -0.8414     4.7137    -0.3927 C.ar    
  14 C14            0.4764     6.8557     1.3521 C.ar    
  15 C15           -2.8164     5.2290    -1.6602 C.ar    
  16 C16           -3.5189     4.2729    -0.9478 C.ar    
  17 C17           -2.8917     3.5398     0.0445 C.ar    
  18 C18           -1.5588     3.7538     0.3265 C.ar    
  19 C19           -1.4831     5.4541    -1.3894 C.ar    
  20 C20           -0.5940     8.1431     3.5552 C.ar    
  21 C21           -0.9023     6.8166     3.3140 C.ar    
  22 C22           -0.3698     6.1711     2.2155 C.ar    
  23 C23            0.7884     8.1865     1.6005 C.ar    
  24 C24            0.2524     8.8259     2.7009 C.ar    
  25 C25           -1.1770     8.8442     4.7550 C.3     
  26 N26           -0.2758     8.6807     5.9035 N.3     
  27 C27            1.9634     9.0600     6.8214 C.3     
  28 C28            0.9996     9.3714     5.6741 C.3     
  29 C29           -0.9140     9.1418     7.1430 C.3     
  30 C30           -0.0073     8.8235     8.3341 C.3     
  31 C31            1.3422     9.5211     8.1427 C.3     
  32 N32           -0.9397    -0.0967    -2.0527 N.am    
  33 S33           -1.4506     0.2263    -3.5944 S.o2    
  34 O34           -2.5827    -0.6141    -3.7717 O.2     
  35 O35           -1.5753     1.6413    -3.6331 O.2     
  36 C36           -0.0802    -0.3210    -4.6494 C.3     
  37 C37           -0.3840     0.0355    -6.1060 C.3     
  38 H38           -0.8250     2.4240    -1.2630 H       
  39 H39            1.4471    -1.1703    -1.7043 H       
  40 H40            3.4343    -0.0466    -0.8020 H       
  41 H41            4.3079     2.4640     0.2046 H       
  42 H42            1.6979     6.6435    -0.2944 H       
  43 H43           -3.3125     5.7973    -2.4331 H       
  44 H44           -4.5630     4.1012    -1.1640 H       
  45 H45           -3.4464     2.7956     0.5966 H       
  46 H46           -1.0706     3.1808     1.1008 H       
  47 H47           -0.9362     6.2009    -1.9459 H       
  48 H48           -1.5634     6.2862     3.9833 H       
  49 H49           -0.6112     5.1353     2.0276 H       
  50 H50            1.4497     8.7202     0.9340 H       
  51 H51            0.4911     9.8617     2.8922 H       
  52 H52           -1.2952     9.9050     4.5340 H       
  53 H53           -2.1492     8.4119     4.9916 H       
  54 H54            2.1474     7.9864     6.8608 H       
  55 H55            2.9045     9.5853     6.6588 H       
  56 H56            1.4328     9.0314     4.7335 H       
  57 H57            0.8269    10.4466     5.6266 H       
  58 H58           -1.0777    10.2181     7.0886 H       
  59 H59           -1.8707     8.6350     7.2692 H       
  60 H60           -0.4742     9.1799     9.2523 H       
  61 H61            0.1456     7.7462     8.3974 H       
  62 H62            2.0063     9.2621     8.9674 H       
  63 H63            1.1940    10.6007     8.1184 H       
  64 H64           -1.4215    -0.7372    -1.5063 H       
  65 H65            0.8388     0.1755    -4.3379 H       
  66 H66            0.0407    -1.4003    -4.5572 H       
  67 H67           -1.3030    -0.4610    -6.4174 H       
  68 H68           -0.5049     1.1148    -6.1982 H       
  69 H69            0.4395    -0.2934    -6.7399 H       
@<TRIPOS>BOND
   1    1    2 ar
   2    1    5 ar
   3    1   38 1
   4    2    3 ar
   5    2   32 1
   6    3    4 ar
   7    3   39 1
   8    4    7 ar
   9    4   40 1
  10    5    7 ar
  11    5    6 1
  12    6    9 1
  13    6   11 2
  14    7    8 1
  15    8    9 am
  16    8   41 1
  17    9   10 2
  18   11   12 1
  19   11   13 1
  20   12   14 1
  21   12   42 1
  22   13   19 ar
  23   13   18 ar
  24   14   23 ar
  25   14   22 ar
  26   15   16 ar
  27   15   19 ar
  28   15   43 1
  29   16   17 ar
  30   16   44 1
  31   17   18 ar
  32   17   45 1
  33   18   46 1
  34   19   47 1
  35   20   21 ar
  36   20   24 ar
  37   20   25 1
  38   21   22 ar
  39   21   48 1
  40   22   49 1
  41   23   24 ar
  42   23   50 1
  43   24   51 1
  44   25   26 1
  45   25   52 1
  46   25   53 1
  47   26   29 1
  48   26   28 1
  49   27   28 1
  50   27   31 1
  51   27   54 1
  52   27   55 1
  53   28   56 1
  54   28   57 1
  55   29   30 1
  56   29   58 1
  57   29   59 1
  58   30   31 1
  59   30   60 1
  60   30   61 1
  61   31   62 1
  62   31   63 1
  63   32   33 am
  64   32   64 1
  65   33   34 2
  66   33   35 2
  67   33   36 1
  68   36   37 1
  69   36   65 1
  70   36   66 1
  71   37   67 1
  72   37   68 1
  73   37   69 1

#	End of record

