#	Name: ASD01885038
#	Creating user name:	WinNT
#	Creation time:	15. 06. 2019 19:49

#	Modifying user name:	WinNT
#	Modification time:	15. 06. 2019 19:49

#	Program:	/corina/corina34_cracker 3.40 0067  02.08.2006

@<TRIPOS>MOLECULE
ASD01885038
  58   62    0    0    0
SMALL
NO_CHARGES


@<TRIPOS>ATOM
   1 C1             0.0141     1.3557     0.2031 C.2     
   2 C2             1.3351    -0.6334     0.2453 C.2     
   3 C3             2.4159     0.1096    -0.2599 C.2     
   4 C4             2.2772     1.4272    -0.5167 C.2     
   5 N5             1.0881     2.0554    -0.2901 N.pl3   
   6 C6             0.6571     3.3362    -0.4483 C.2     
   7 N7            -0.5941     3.3800    -0.0695 N.2     
   8 N8            -0.9857     2.2153     0.3125 N.2     
   9 C9             1.4727     4.4934    -0.9647 C.3     
  10 C10            1.4960    -2.1045     0.5303 C.3     
  11 C11            1.3314     4.5784    -2.4858 C.3     
  12 N12            1.7130    -2.8266    -0.7305 N.3     
  13 C13            2.2359    -4.1759    -0.4808 C.3     
  14 C14            2.5860    -4.8432    -1.8128 C.3     
  15 C15            1.3311    -4.9156    -2.6872 C.3     
  16 C16            0.7791    -3.5021    -2.8919 C.3     
  17 C17            0.4814    -2.8736    -1.5287 C.3     
  18 C18            0.6916    -6.1879    -4.5887 C.ar    
  19 C19            0.1434    -0.0197     0.4761 C.2     
  20 C20           -1.0248    -0.8024     1.0180 C.3     
  21 C21            1.9930     5.7636    -3.1917 C.3     
  22 C22            2.5919     4.3621    -3.3256 C.3     
  23 C23            0.9549    -6.7664    -5.8234 C.ar    
  24 C24           -0.0458    -7.4800    -6.4600 C.ar    
  25 C25           -1.2803    -7.5898    -5.8354 C.ar    
  26 C26           -1.4718    -6.9885    -4.6071 C.ar    
  27 N27           -0.4968    -6.3189    -4.0227 N.ar    
  28 F28           -0.8252    -1.0556     2.3794 F       
  29 F29           -2.2003    -0.0630     0.8487 F       
  30 F30           -1.1334    -2.0152     0.3291 F       
  31 O31            1.6643    -5.4863    -3.9543 O.3     
  32 C32            2.3120    -6.6189    -6.4619 C.3     
  33 H33            3.3627    -0.3765    -0.4432 H       
  34 H34            3.1144     1.9886    -0.9045 H       
  35 H35            1.1154     5.4195    -0.5144 H       
  36 H36            2.5207     4.3439    -0.7050 H       
  37 H37            2.3522    -2.2557     1.1876 H       
  38 H38            0.5952    -2.4814     1.0145 H       
  39 H39            0.3875     4.2141    -2.8913 H       
  40 H40            3.1304    -4.1099     0.1386 H       
  41 H41            1.4802    -4.7685     0.0348 H       
  42 H42            3.3516    -4.2585    -2.3226 H       
  43 H43            2.9594    -5.8505    -1.6281 H       
  44 H44            0.5793    -5.5325    -2.1951 H       
  45 H45            1.5163    -2.8962    -3.4187 H       
  46 H46           -0.1385    -3.5512    -3.4782 H       
  47 H47           -0.2661    -3.4724    -1.0082 H       
  48 H48            0.1015    -1.8618    -1.6704 H       
  49 H49            1.4846     6.1789    -4.0618 H       
  50 H50            2.5290     6.4829    -2.5724 H       
  51 H51            3.5219     4.1593    -2.7944 H       
  52 H52            2.4775     3.8553    -4.2838 H       
  53 H53            0.1299    -7.9405    -7.4210 H       
  54 H54           -2.0827    -8.1393    -6.3052 H       
  55 H55           -2.4306    -7.0709    -4.1168 H       
  56 H56            2.9533    -7.4419    -6.1466 H       
  57 H57            2.2068    -6.6352    -7.5467 H       
  58 H58            2.7573    -5.6727    -6.1543 H       
@<TRIPOS>BOND
   1    1   19 1
   2    1    5 1
   3    1    8 2
   4    2    3 1
   5    2   10 1
   6    2   19 2
   7    3    4 2
   8    3   33 1
   9    4    5 1
  10    4   34 1
  11    5    6 1
  12    6    7 2
  13    6    9 1
  14    7    8 1
  15    9   11 1
  16    9   35 1
  17    9   36 1
  18   10   12 1
  19   10   37 1
  20   10   38 1
  21   11   21 1
  22   11   22 1
  23   11   39 1
  24   12   13 1
  25   12   17 1
  26   13   14 1
  27   13   40 1
  28   13   41 1
  29   14   15 1
  30   14   42 1
  31   14   43 1
  32   15   16 1
  33   15   31 1
  34   15   44 1
  35   16   17 1
  36   16   45 1
  37   16   46 1
  38   17   47 1
  39   17   48 1
  40   18   23 ar
  41   18   31 1
  42   18   27 ar
  43   19   20 1
  44   20   28 1
  45   20   29 1
  46   20   30 1
  47   21   22 1
  48   21   49 1
  49   21   50 1
  50   22   51 1
  51   22   52 1
  52   23   24 ar
  53   23   32 1
  54   24   25 ar
  55   24   53 1
  56   25   26 ar
  57   25   54 1
  58   26   27 ar
  59   26   55 1
  60   32   56 1
  61   32   57 1
  62   32   58 1

#	End of record

