#	Name: ASD01948337
#	Creating user name:	WinNT
#	Creation time:	15. 06. 2019 20:14

#	Modifying user name:	WinNT
#	Modification time:	15. 06. 2019 20:14

#	Program:	/corina/corina34_cracker 3.40 0067  02.08.2006

@<TRIPOS>MOLECULE
ASD01948337
  46   48    0    0    0
SMALL
NO_CHARGES


@<TRIPOS>ATOM
   1 C1             0.4156     1.9271    -0.0558 C.2     
   2 N2             0.5469     0.5866    -0.2732 N.am    
   3 C3             1.7603     0.0087    -0.3402 C.2     
   4 C4             2.7988     2.1416     0.0345 C.2     
   5 C5             1.5060     2.7142     0.0988 C.2     
   6 C6             3.3621     4.1573    -1.8111 C.ar    
   7 C7             4.1781     3.9788    -0.7025 C.ar    
   8 N8             3.9279     2.9318     0.1909 N.pl3   
   9 C9             3.6118     5.1921    -2.6921 C.ar    
  10 C10            4.6735     6.0503    -2.4713 C.ar    
  11 C11            5.4898     5.8764    -1.3676 C.ar    
  12 C12            5.2457     4.8433    -0.4821 C.ar    
  13 N13            1.3553     4.0926     0.3214 N.am    
  14 S14           -0.1590     4.7586     0.3959 S.o2    
  15 C15           -0.8987     4.0354     1.8861 C.3     
  16 O16            1.8516    -1.1941    -0.5362 O.2     
  17 C17           -0.6533    -0.2376    -0.4359 C.3     
  18 F18            6.0426     4.6734     0.5956 F       
  19 I19            5.0468     7.6172    -3.8109 I       
  20 O20            0.0776     6.1475     0.5805 O.2     
  21 O21           -0.8122     4.2753    -0.7698 O.2     
  22 C22            2.9184     0.7799    -0.1866 C.2     
  23 F23            4.1380     0.2025    -0.2529 F       
  24 C24           -2.3188     4.4711     2.2526 C.3     
  25 C25           -2.0688     3.0682     1.6958 C.3     
  26 C26            0.0722     3.7532     3.0344 C.3     
  27 C27            0.6726     5.0703     3.5300 C.3     
  28 O28            1.4857     4.8209     4.6783 O.3     
  29 H29           -0.5701     2.3663    -0.0109 H       
  30 H30            2.5352     3.4853    -1.9873 H       
  31 H31            4.5440     2.7584     0.9197 H       
  32 H32            2.9770     5.3306    -3.5549 H       
  33 H33            6.3183     6.5481    -1.1980 H       
  34 H34            2.1382     4.6546     0.4315 H       
  35 H35           -0.9279    -0.2754    -1.4900 H       
  36 H36           -0.4524    -1.2468    -0.0763 H       
  37 H37           -1.4724     0.1961     0.1377 H       
  38 H38           -2.5615     4.5564     3.3118 H       
  39 H39           -2.8086     5.1924     1.5984 H       
  40 H40           -2.3942     2.8664     0.6753 H       
  41 H41           -2.1470     2.2304     2.3887 H       
  42 H42           -0.4621     3.2674     3.8509 H       
  43 H43            0.8705     3.0995     2.6828 H       
  44 H44            1.2827     5.5110     2.7415 H       
  45 H45           -0.1301     5.7583     3.7957 H       
  46 H46            1.8995     5.6134     5.0469 H       
@<TRIPOS>BOND
   1    1    2 1
   2    1    5 2
   3    1   29 1
   4    2    3 am
   5    2   17 1
   6    3   22 1
   7    3   16 2
   8    4    5 1
   9    4    8 1
  10    4   22 2
  11    5   13 1
  12    6    7 ar
  13    6    9 ar
  14    6   30 1
  15    7    8 1
  16    7   12 ar
  17    8   31 1
  18    9   10 ar
  19    9   32 1
  20   10   11 ar
  21   10   19 1
  22   11   12 ar
  23   11   33 1
  24   12   18 1
  25   13   14 am
  26   13   34 1
  27   14   15 1
  28   14   20 2
  29   14   21 2
  30   15   24 1
  31   15   26 1
  32   15   25 1
  33   17   35 1
  34   17   36 1
  35   17   37 1
  36   22   23 1
  37   24   25 1
  38   24   38 1
  39   24   39 1
  40   25   40 1
  41   25   41 1
  42   26   27 1
  43   26   42 1
  44   26   43 1
  45   27   28 1
  46   27   44 1
  47   27   45 1
  48   28   46 1

#	End of record

