#	Name: ASD03240241
#	Creating user name:	WinNT
#	Creation time:	15. 06. 2019 20:34

#	Modifying user name:	WinNT
#	Modification time:	15. 06. 2019 20:34

#	Program:	/corina/corina34_cracker 3.40 0067  02.08.2006

@<TRIPOS>MOLECULE
ASD03240241
  61   66    0    0    0
SMALL
NO_CHARGES


@<TRIPOS>ATOM
   1 C1            -0.0492     1.4108    -0.0373 C.ar    
   2 C2            -0.0372     0.0609     0.1902 C.ar    
   3 C3             1.1801    -0.5950     0.3888 C.ar    
   4 N4             2.3282     0.0673     0.3611 N.ar    
   5 C5             2.3656     1.3708     0.1449 C.ar    
   6 C6             1.1743     2.0930    -0.0630 C.ar    
   7 N7             3.3902     2.2937     0.0654 N.pl3   
   8 C8             2.8184     3.5167    -0.1810 C.2     
   9 N9             1.5148     3.3891    -0.2554 N.2     
  10 C10            3.5583     4.7842    -0.3382 C.ar    
  11 C11            4.7585     2.0303     0.2094 C.ar    
  12 C12            5.4225     1.2616    -0.7373 C.ar    
  13 C13            6.7716     1.0036    -0.5925 C.ar    
  14 C14            7.4611     1.5100     0.4939 C.ar    
  15 C15            6.8027     2.2758     1.4384 C.ar    
  16 C16            5.4549     2.5421     1.2962 C.ar    
  17 N17            3.8250     7.0707     0.2138 N.ar    
  18 C18            3.1587     5.9364     0.3585 C.ar    
  19 C19            4.6731     4.8581    -1.1791 C.ar    
  20 C20            5.3326     6.0702    -1.2922 C.ar    
  21 C21            4.8759     7.1629    -0.5784 C.ar    
  22 C22            8.9329     1.2261     0.6491 C.3     
  23 N23            2.0604     5.8854     1.2017 N.pl3   
  24 C24            1.1882    -2.0569     0.6354 C.ar    
  25 C25            2.3947    -2.7261     0.8355 C.ar    
  26 C26            2.3960    -4.0869     1.0650 C.ar    
  27 C27            1.2033    -4.7869     1.0964 C.ar    
  28 C28            0.0030    -4.1282     0.8985 C.ar    
  29 C29           -0.0110    -2.7667     0.6738 C.ar    
  30 C30            9.7692     1.6200    -0.5798 C.3     
  31 C31            9.6932     2.3191     1.4187 C.3     
  32 C32           10.8345     2.1282     0.4059 C.3     
  33 C33            9.2106    -0.1691     1.1463 C.2     
  34 O34            8.5732    -0.6339     2.2323 O.3     
  35 O35           10.0070    -0.8694     0.5674 O.2     
  36 C36            8.8901    -1.9866     2.6542 C.3     
  37 H37           -0.9789     1.9364    -0.1976 H       
  38 H38           -0.9636    -0.4937     0.2164 H       
  39 H39            4.8844     0.8655    -1.5859 H       
  40 H40            7.2884     0.4055    -1.3284 H       
  41 H41            7.3438     2.6696     2.2861 H       
  42 H42            4.9423     3.1443     2.0317 H       
  43 H43            5.0116     3.9909    -1.7265 H       
  44 H44            6.1973     6.1614    -1.9328 H       
  45 H45            5.3910     8.1078    -0.6682 H       
  46 H46            1.7283     6.6976     1.6153 H       
  47 H47            1.6236     5.0375     1.3785 H       
  48 H48            3.3265    -2.1807     0.8105 H       
  49 H49            3.3301    -4.6064     1.2201 H       
  50 H50            1.2092    -5.8519     1.2756 H       
  51 H51           -0.9251    -4.6799     0.9241 H       
  52 H52           -0.9490    -2.2527     0.5239 H       
  53 H53           10.0969     0.7684    -1.1761 H       
  54 H54            9.3178     2.4098    -1.1803 H       
  55 H55            9.2210     3.3000     1.3647 H       
  56 H56            9.9596     2.0319     2.4359 H       
  57 H57           11.5563     1.3661     0.6999 H       
  58 H58           11.3051     3.0617     0.0973 H       
  59 H59            8.3074    -2.2366     3.5408 H       
  60 H60            8.6480    -2.6835     1.8519 H       
  61 H61            9.9528    -2.0551     2.8867 H       
@<TRIPOS>BOND
   1    1    2 ar
   2    1    6 ar
   3    1   37 1
   4    2    3 ar
   5    2   38 1
   6    3    4 ar
   7    3   24 1
   8    4    5 ar
   9    5    7 1
  10    5    6 ar
  11    6    9 1
  12    7    8 1
  13    7   11 1
  14    8    9 2
  15    8   10 1
  16   10   19 ar
  17   10   18 ar
  18   11   12 ar
  19   11   16 ar
  20   12   13 ar
  21   12   39 1
  22   13   14 ar
  23   13   40 1
  24   14   15 ar
  25   14   22 1
  26   15   16 ar
  27   15   41 1
  28   16   42 1
  29   17   18 ar
  30   17   21 ar
  31   18   23 1
  32   19   20 ar
  33   19   43 1
  34   20   21 ar
  35   20   44 1
  36   21   45 1
  37   22   30 1
  38   22   31 1
  39   22   33 1
  40   23   46 1
  41   23   47 1
  42   24   25 ar
  43   24   29 ar
  44   25   26 ar
  45   25   48 1
  46   26   27 ar
  47   26   49 1
  48   27   28 ar
  49   27   50 1
  50   28   29 ar
  51   28   51 1
  52   29   52 1
  53   30   32 1
  54   30   53 1
  55   30   54 1
  56   31   32 1
  57   31   55 1
  58   31   56 1
  59   32   57 1
  60   32   58 1
  61   33   34 1
  62   33   35 2
  63   34   36 1
  64   36   59 1
  65   36   60 1
  66   36   61 1

#	End of record

