#	Name: ASD02198508
#	Creating user name:	WinNT
#	Creation time:	15. 06. 2019 20:19

#	Modifying user name:	WinNT
#	Modification time:	15. 06. 2019 20:19

#	Program:	/corina/corina34_cracker 3.40 0067  02.08.2006

@<TRIPOS>MOLECULE
ASD02198508
  54   58    0    0    0
SMALL
NO_CHARGES


@<TRIPOS>ATOM
   1 C1             0.0920     1.0162    -0.1335 C.2     
   2 C2             0.3459    -0.3138    -0.2178 C.2     
   3 N3             1.6160    -0.7783    -0.2196 N.pl3   
   4 N4             2.6443    -0.0167    -0.1443 N.2     
   5 C5             2.5401     1.2918    -0.0584 C.2     
   6 C6             1.1978     1.8960    -0.0484 C.2     
   7 C7             1.8178    -2.1597    -0.3077 C.ar    
   8 C8             3.2967    -4.0313    -0.5540 C.ar    
   9 C9             2.2169    -4.8922    -0.4818 C.ar    
  10 C10            0.9374    -4.3902    -0.3285 C.ar    
  11 C11            0.7346    -3.0270    -0.2412 C.ar    
  12 C12            3.7472     2.1387     0.0269 C.2     
  13 N13            4.8828     1.8650     0.7362 N.pl3   
  14 N14            5.7741     2.9274     0.5412 N.2     
  15 C15            5.2128     3.8083    -0.2481 C.2     
  16 C16            3.9426     3.3506    -0.5985 C.2     
  17 C17            5.1136     0.7261     1.5183 C.ar    
  18 C18            4.1123     0.2359     2.3461 C.ar    
  19 O19            1.0445     3.1058     0.0294 O.2     
  20 C20            6.3425     0.0817     1.4632 C.ar    
  21 C21            6.5670    -1.0410     2.2357 C.ar    
  22 C22            5.5698    -1.5234     3.0633 C.ar    
  23 C23            4.3431    -0.8872     3.1161 C.ar    
  24 C24            3.1011    -2.6670    -0.4675 C.ar    
  25 C25            2.4342    -6.3804    -0.5771 C.3     
  26 C26            1.9291    -7.0525     0.7012 C.3     
  27 C27            2.1497    -8.5634     0.6044 C.3     
  28 C28            1.3825    -9.1148    -0.5990 C.3     
  29 C29            1.8875    -8.4427    -1.8773 C.3     
  30 C30            1.6669    -6.9318    -1.7805 C.3     
  31 H31           -0.9206     1.3918    -0.1357 H       
  32 H32           -0.4766    -1.0105    -0.2839 H       
  33 H33            4.2946    -4.4266    -0.6738 H       
  34 H34            0.0962    -5.0653    -0.2724 H       
  35 H35           -0.2648    -2.6357    -0.1212 H       
  36 H36            5.6607     4.7346    -0.5766 H       
  37 H37            3.2370     3.8578    -1.2398 H       
  38 H38            3.1541     0.7325     2.3880 H       
  39 H39            7.1216     0.4578     0.8168 H       
  40 H40            7.5224    -1.5428     2.1930 H       
  41 H41            5.7477    -2.4017     3.6661 H       
  42 H42            3.5663    -1.2662     3.7637 H       
  43 H43            3.9448    -1.9952    -0.5243 H       
  44 H44            3.4977    -6.5852    -0.6994 H       
  45 H45            2.4757    -6.6597     1.5585 H       
  46 H46            0.8655    -6.8477     0.8235 H       
  47 H47            3.2133    -8.7682     0.4821 H       
  48 H48            1.7899    -9.0422     1.5151 H       
  49 H49            1.5397   -10.1912    -0.6679 H       
  50 H50            0.3189    -8.9100    -0.4767 H       
  51 H51            2.9511    -8.6475    -1.9996 H       
  52 H52            1.3410    -8.8355    -2.7347 H       
  53 H53            0.6033    -6.7270    -1.6582 H       
  54 H54            2.0267    -6.4530    -2.6913 H       
@<TRIPOS>BOND
   1    1    2 2
   2    1    6 1
   3    1   31 1
   4    2    3 1
   5    2   32 1
   6    3    4 1
   7    3    7 1
   8    4    5 2
   9    5    6 1
  10    5   12 1
  11    6   19 2
  12    7   24 ar
  13    7   11 ar
  14    8    9 ar
  15    8   24 ar
  16    8   33 1
  17    9   10 ar
  18    9   25 1
  19   10   11 ar
  20   10   34 1
  21   11   35 1
  22   12   13 1
  23   12   16 2
  24   13   14 1
  25   13   17 1
  26   14   15 2
  27   15   16 1
  28   15   36 1
  29   16   37 1
  30   17   20 ar
  31   17   18 ar
  32   18   23 ar
  33   18   38 1
  34   20   21 ar
  35   20   39 1
  36   21   22 ar
  37   21   40 1
  38   22   23 ar
  39   22   41 1
  40   23   42 1
  41   24   43 1
  42   25   26 1
  43   25   30 1
  44   25   44 1
  45   26   27 1
  46   26   45 1
  47   26   46 1
  48   27   28 1
  49   27   47 1
  50   27   48 1
  51   28   29 1
  52   28   49 1
  53   28   50 1
  54   29   30 1
  55   29   51 1
  56   29   52 1
  57   30   53 1
  58   30   54 1

#	End of record

