#	Name: ASD04882303
#	Creating user name:	WinNT
#	Creation time:	15. 06. 2019 20:54

#	Modifying user name:	WinNT
#	Modification time:	15. 06. 2019 20:54

#	Program:	/corina/corina34_cracker 3.40 0067  02.08.2006

@<TRIPOS>MOLECULE
ASD04882303
  80   84    0    0    0
SMALL
NO_CHARGES


@<TRIPOS>ATOM
   1 N1             0.0747     1.2329     1.0146 N.am    
   2 C2             0.2132    -0.1309     0.7256 C.ar    
   3 C3            -0.9207    -0.9181     0.5064 C.ar    
   4 C4            -0.7846    -2.2715     0.2191 C.ar    
   5 C5             0.4672    -2.8414     0.1495 C.ar    
   6 C6             1.6053    -2.0599     0.3677 C.ar    
   7 C7             1.4715    -0.6979     0.6515 C.ar    
   8 N8            -2.1883    -0.3461     0.5763 N.3     
   9 C9            -2.9006    -0.4864    -0.7015 C.3     
  10 C10           -2.9686    -0.9277     1.6774 C.3     
  11 C11           -4.3218    -0.2188     1.7703 C.3     
  12 N12           -5.0341    -0.3591     0.4925 N.3     
  13 C13           -4.2538     0.2225    -0.6087 C.3     
  14 C14            2.9461    -2.6708     0.2935 C.2     
  15 O15            3.9357    -1.9902     0.4834 O.2     
  16 C16            1.0743     2.0885     0.7226 C.2     
  17 C17            0.8960     3.5270     0.9437 C.2     
  18 O18            2.1249     1.6671     0.2754 O.2     
  19 C19            1.8223     4.4984     0.6921 C.2     
  20 O20           -0.2139     4.1235     1.4259 O.3     
  21 C21           -0.0146     5.4463     1.4923 C.2     
  22 C22            1.2317     5.7210     1.0482 C.2     
  23 N23            3.0742    -3.9833     0.0151 N.am    
  24 C24           -6.3056     0.2146     0.5626 C.ar    
  25 C25           -6.4427     1.5934     0.6612 C.ar    
  26 C26           -7.4361    -0.5919     0.5282 C.ar    
  27 C27           -8.6918    -0.0214     0.5977 C.ar    
  28 C28           -8.8246     1.3512     0.7011 C.ar    
  29 C29           -7.7014     2.1574     0.7303 C.ar    
  30 C30           -5.2193     2.4728     0.6931 C.3     
  31 C31           -1.0168     6.4615     1.9779 C.3     
  32 C32           -7.2924    -2.0877     0.4145 C.3     
  33 C33            4.4056    -4.5899    -0.0586 C.3     
  34 C34            4.2705    -6.0783    -0.3864 C.3     
  35 C35            5.6611    -6.7118    -0.4633 C.3     
  36 N36            5.5317    -8.1370    -0.7772 N.am    
  37 C37            5.5120    -8.6404    -2.0234 C.2     
  38 C38            5.3566   -10.1444    -1.9745 C.3     
  39 C39            4.8688   -10.4287    -0.5350 C.3     
  40 C40            5.4133    -9.1990     0.2288 C.3     
  41 O41            5.6049    -7.9843    -3.0391 O.2     
  42 H42           -0.7422     1.5620     1.4211 H       
  43 H43           -1.6626    -2.8774     0.0505 H       
  44 H44            0.5695    -3.8932    -0.0736 H       
  45 H45            2.3492    -0.0915     0.8202 H       
  46 H46           -2.3087    -0.0373    -1.4990 H       
  47 H47           -3.0577    -1.5435    -0.9160 H       
  48 H48           -3.1265    -1.9898     1.4899 H       
  49 H49           -2.4262    -0.8002     2.6143 H       
  50 H50           -4.9137    -0.6680     2.5678 H       
  51 H51           -4.1647     0.8383     1.9848 H       
  52 H52           -4.0959     1.2845    -0.4212 H       
  53 H53           -4.7962     0.0950    -1.5456 H       
  54 H54            2.8165     4.3540     0.2959 H       
  55 H55            1.6879     6.6976     0.9806 H       
  56 H56            2.2848    -4.5262    -0.1364 H       
  57 H57           -9.5711    -0.6478     0.5710 H       
  58 H58           -9.8078     1.7949     0.7546 H       
  59 H59           -7.8086     3.2290     0.8111 H       
  60 H60           -5.0173     2.8508    -0.3091 H       
  61 H61           -5.3912     3.3101     1.3695 H       
  62 H62           -4.3644     1.8935     1.0420 H       
  63 H63           -1.9360     5.9537     2.2699 H       
  64 H64           -0.6076     6.9943     2.8363 H       
  65 H65           -1.2318     7.1709     1.1787 H       
  66 H66           -7.3238    -2.5324     1.4092 H       
  67 H67           -8.1088    -2.4865    -0.1876 H       
  68 H68           -6.3406    -2.3263    -0.0602 H       
  69 H69            4.9866    -4.0975    -0.8383 H       
  70 H70            4.9115    -4.4734     0.8998 H       
  71 H71            3.6895    -6.5708     0.3934 H       
  72 H72            3.7646    -6.1948    -1.3448 H       
  73 H73            6.2421    -6.2194    -1.2431 H       
  74 H74            6.1670    -6.5953     0.4951 H       
  75 H75            4.6145   -10.4751    -2.7011 H       
  76 H76            6.3139   -10.6329    -2.1563 H       
  77 H77            3.7803   -10.4686    -0.4928 H       
  78 H78            5.3066   -11.3494    -0.1494 H       
  79 H79            6.3869    -9.4256     0.6633 H       
  80 H80            4.7126    -8.8981     1.0077 H       
@<TRIPOS>BOND
   1    1    2 1
   2    1   16 am
   3    1   42 1
   4    2    3 ar
   5    2    7 ar
   6    3    4 ar
   7    3    8 1
   8    4    5 ar
   9    4   43 1
  10    5    6 ar
  11    5   44 1
  12    6    7 ar
  13    6   14 1
  14    7   45 1
  15    8    9 1
  16    8   10 1
  17    9   13 1
  18    9   46 1
  19    9   47 1
  20   10   11 1
  21   10   48 1
  22   10   49 1
  23   11   12 1
  24   11   50 1
  25   11   51 1
  26   12   13 1
  27   12   24 1
  28   13   52 1
  29   13   53 1
  30   14   15 2
  31   14   23 am
  32   16   18 2
  33   16   17 1
  34   17   19 2
  35   17   20 1
  36   19   22 1
  37   19   54 1
  38   20   21 1
  39   21   22 2
  40   21   31 1
  41   22   55 1
  42   23   33 1
  43   23   56 1
  44   24   25 ar
  45   24   26 ar
  46   25   30 1
  47   25   29 ar
  48   26   27 ar
  49   26   32 1
  50   27   28 ar
  51   27   57 1
  52   28   29 ar
  53   28   58 1
  54   29   59 1
  55   30   60 1
  56   30   61 1
  57   30   62 1
  58   31   63 1
  59   31   64 1
  60   31   65 1
  61   32   66 1
  62   32   67 1
  63   32   68 1
  64   33   34 1
  65   33   69 1
  66   33   70 1
  67   34   35 1
  68   34   71 1
  69   34   72 1
  70   35   36 1
  71   35   73 1
  72   35   74 1
  73   36   37 am
  74   36   40 1
  75   37   38 1
  76   37   41 2
  77   38   39 1
  78   38   75 1
  79   38   76 1
  80   39   40 1
  81   39   77 1
  82   39   78 1
  83   40   79 1
  84   40   80 1

#	End of record

