#	Name: ASD02500218
#	Creating user name:	WinNT
#	Creation time:	15. 06. 2019 20:22

#	Modifying user name:	WinNT
#	Modification time:	15. 06. 2019 20:22

#	Program:	/corina/corina34_cracker 3.40 0067  02.08.2006

@<TRIPOS>MOLECULE
ASD02500218
  59   63    0    0    0
SMALL
NO_CHARGES


@<TRIPOS>ATOM
   1 N1            -1.7235     5.5456    -0.7616 N.ar    
   2 C2            -2.7667     6.3208    -0.9317 C.ar    
   3 C3            -3.8362     6.3174    -0.0385 C.ar    
   4 C4            -3.8140     5.4907     1.0483 C.ar    
   5 C5            -2.6921     4.6593     1.2275 C.ar    
   6 C6            -2.5982     3.7837     2.3209 C.ar    
   7 C7            -1.4962     2.9958     2.4593 C.ar    
   8 C8            -0.4595     3.0470     1.5300 C.ar    
   9 C9            -0.5177     3.8842     0.4584 C.ar    
  10 C10           -1.6389     4.7132     0.2810 C.ar    
  11 S11            0.8079     3.9293    -0.7016 S.o2    
  12 O12            1.1575     5.2977    -0.8583 O.2     
  13 O13            1.7340     2.9326    -0.2915 O.2     
  14 N14            0.2006     3.4319    -2.1597 N.am    
  15 C15           -0.2151     2.1141    -2.3274 C.ar    
  16 C16           -0.0684     1.4906    -3.5657 C.ar    
  17 C17           -0.4791     0.1865    -3.7339 C.ar    
  18 C18           -1.0433    -0.5107    -2.6608 C.ar    
  19 C19           -1.1885     0.1182    -1.4215 C.ar    
  20 C20           -0.7709     1.4201    -1.2577 C.ar    
  21 C21           -1.4848    -1.9072    -2.8371 C.2     
  22 O22           -1.2445    -2.7338    -1.9784 O.2     
  23 N23           -2.1546    -2.2668    -3.9500 N.am    
  24 C24           -2.6837    -3.6300    -4.0969 C.3     
  25 C25           -4.1876    -3.5436    -4.3854 C.3     
  26 N26           -4.4024    -2.5794    -5.4735 N.am    
  27 C27           -3.8733    -1.2162    -5.3266 C.3     
  28 C28           -2.3743    -1.3010    -5.0357 C.3     
  29 C29           -5.0722    -2.9390    -6.5864 C.2     
  30 C30           -5.3766    -1.9290    -7.6266 C.ar    
  31 C31           -5.3836    -2.2729    -8.9818 C.ar    
  32 C32           -5.6732    -1.2996    -9.9184 C.ar    
  33 N33           -5.9397    -0.0627    -9.5489 N.ar    
  34 C34           -5.9437     0.3036    -8.2827 C.ar    
  35 C35           -5.6707    -0.6068    -7.2800 C.ar    
  36 O36           -5.4264    -4.0916    -6.7366 O.2     
  37 F37            0.4764     2.1657    -4.6013 F       
  38 H38           -2.7981     6.9798    -1.7868 H       
  39 H39           -4.6817     6.9683    -0.2053 H       
  40 H40           -4.6340     5.4754     1.7509 H       
  41 H41           -3.3951     3.7356     3.0483 H       
  42 H42           -1.4248     2.3225     3.3007 H       
  43 H43            0.4044     2.4125     1.6622 H       
  44 H44            0.1345     4.0589    -2.8968 H       
  45 H45           -0.3660    -0.2967    -4.6931 H       
  46 H46           -1.6239    -0.4180    -0.5912 H       
  47 H47           -0.8789     1.9043    -0.2984 H       
  48 H48           -2.1807    -4.1305    -4.9243 H       
  49 H49           -2.5196    -4.1875    -3.1747 H       
  50 H50           -4.5593    -4.5231    -4.6859 H       
  51 H51           -4.7130    -3.2088    -3.4910 H       
  52 H52           -4.0374    -0.6587    -6.2488 H       
  53 H53           -4.3763    -0.7157    -4.4992 H       
  54 H54           -2.0058    -0.3207    -4.7334 H       
  55 H55           -1.8487    -1.6318    -5.9315 H       
  56 H56           -5.1654    -3.2842    -9.2918 H       
  57 H57           -5.6810    -1.5555   -10.9676 H       
  58 H58           -6.1677     1.3283    -8.0253 H       
  59 H59           -5.6803    -0.3008    -6.2443 H       
@<TRIPOS>BOND
   1    1    2 ar
   2    1   10 ar
   3    2    3 ar
   4    2   38 1
   5    3    4 ar
   6    3   39 1
   7    4    5 ar
   8    4   40 1
   9    5    6 ar
  10    5   10 ar
  11    6    7 ar
  12    6   41 1
  13    7    8 ar
  14    7   42 1
  15    8    9 ar
  16    8   43 1
  17    9   10 ar
  18    9   11 1
  19   11   12 2
  20   11   13 2
  21   11   14 am
  22   14   15 1
  23   14   44 1
  24   15   16 ar
  25   15   20 ar
  26   16   17 ar
  27   16   37 1
  28   17   18 ar
  29   17   45 1
  30   18   19 ar
  31   18   21 1
  32   19   20 ar
  33   19   46 1
  34   20   47 1
  35   21   22 2
  36   21   23 am
  37   23   24 1
  38   23   28 1
  39   24   25 1
  40   24   48 1
  41   24   49 1
  42   25   26 1
  43   25   50 1
  44   25   51 1
  45   26   27 1
  46   26   29 am
  47   27   28 1
  48   27   52 1
  49   27   53 1
  50   28   54 1
  51   28   55 1
  52   29   30 1
  53   29   36 2
  54   30   31 ar
  55   30   35 ar
  56   31   32 ar
  57   31   56 1
  58   32   33 ar
  59   32   57 1
  60   33   34 ar
  61   34   35 ar
  62   34   58 1
  63   35   59 1

#	End of record

