#	Name: ASD08070269
#	Creating user name:	WinNT
#	Creation time:	15. 06. 2019 21:14

#	Modifying user name:	WinNT
#	Modification time:	15. 06. 2019 21:14

#	Program:	/corina/corina34_cracker 3.40 0067  02.08.2006

@<TRIPOS>MOLECULE
ASD08070269
  44   45    0    0    0
SMALL
NO_CHARGES


@<TRIPOS>ATOM
   1 C1            -0.9792     1.3314     0.8991 C.2     
   2 C2            -1.0163    -0.1340     0.7263 C.ar    
   3 C3            -0.7293    -0.9743     1.8055 C.ar    
   4 C4            -0.7649    -2.3406     1.6401 C.ar    
   5 C5            -1.0854    -2.8847     0.4016 C.ar    
   6 C6            -1.3714    -2.0525    -0.6741 C.ar    
   7 C7            -1.3440    -0.6847    -0.5152 C.ar    
   8 O8            -0.6987     1.8090     1.9815 O.2     
   9 N9            -1.2508     2.1401    -0.1442 N.am    
  10 C10           -1.2140     3.5946     0.0273 C.3     
  11 C11           -0.8973     4.2585    -1.3142 C.3     
  12 C12            0.5142     3.8673    -1.7562 C.3     
  13 C13            0.8310     4.5312    -3.0978 C.3     
  14 C14           -2.5535     4.0761     0.5223 C.ar    
  15 C15           -2.6463     4.6833     1.7606 C.ar    
  16 C16           -3.8831     5.1230     2.2063 C.ar    
  17 C17           -4.9854     4.9348     1.3862 C.ar    
  18 C18           -4.8156     4.3195     0.1606 C.ar    
  19 N19           -3.6226     3.9182    -0.2332 N.ar    
  20 C20           -0.4556    -3.2477     2.8032 C.3     
  21 O21           -1.1186    -4.2320     0.2424 O.3     
  22 C22           -1.4551    -4.7237    -1.0564 C.3     
  23 H23           -0.4796    -0.5523     2.7678 H       
  24 H24           -1.6199    -2.4790    -1.6347 H       
  25 H25           -1.5707    -0.0387    -1.3505 H       
  26 H26           -1.4707     1.7592    -1.0088 H       
  27 H27           -0.4435     3.8555     0.7528 H       
  28 H28           -1.6173     3.9273    -2.0625 H       
  29 H29           -0.9572     5.3416    -1.2067 H       
  30 H30            1.2342     4.1985    -1.0079 H       
  31 H31            0.5742     2.7842    -1.8637 H       
  32 H32            1.8366     4.2524    -3.4127 H       
  33 H33            0.1110     4.1999    -3.8461 H       
  34 H34            0.7710     5.6142    -2.9903 H       
  35 H35           -1.7664     4.8132     2.3732 H       
  36 H36           -3.9858     5.6006     3.1695 H       
  37 H37           -5.9643     5.2645     1.7015 H       
  38 H38           -5.6690     4.1691    -0.4839 H       
  39 H39           -1.3753    -3.4719     3.3437 H       
  40 H40           -0.0158    -4.1743     2.4344 H       
  41 H41            0.2479    -2.7529     3.4728 H       
  42 H42           -2.4493    -4.3717    -1.3318 H       
  43 H43           -0.7272    -4.3609    -1.7821 H       
  44 H44           -1.4456    -5.8136    -1.0460 H       
@<TRIPOS>BOND
   1    1    2 1
   2    1    8 2
   3    1    9 am
   4    2    3 ar
   5    2    7 ar
   6    3    4 ar
   7    3   23 1
   8    4    5 ar
   9    4   20 1
  10    5    6 ar
  11    5   21 1
  12    6    7 ar
  13    6   24 1
  14    7   25 1
  15    9   10 1
  16    9   26 1
  17   10   11 1
  18   10   14 1
  19   10   27 1
  20   11   12 1
  21   11   28 1
  22   11   29 1
  23   12   13 1
  24   12   30 1
  25   12   31 1
  26   13   32 1
  27   13   33 1
  28   13   34 1
  29   14   15 ar
  30   14   19 ar
  31   15   16 ar
  32   15   35 1
  33   16   17 ar
  34   16   36 1
  35   17   18 ar
  36   17   37 1
  37   18   19 ar
  38   18   38 1
  39   20   39 1
  40   20   40 1
  41   20   41 1
  42   21   22 1
  43   22   42 1
  44   22   43 1
  45   22   44 1

#	End of record

