#	Name: ASD01028448
#	Creating user name:	WinNT
#	Creation time:	15. 06. 2019 18:57

#	Modifying user name:	WinNT
#	Modification time:	15. 06. 2019 18:57

#	Program:	/corina/corina34_cracker 3.40 0067  02.08.2006

@<TRIPOS>MOLECULE
ASD01028448
  51   55    0    0    0
SMALL
NO_CHARGES


@<TRIPOS>ATOM
   1 C1            -0.0171     1.4121     0.0098 C.ar    
   2 C2             0.0021    -0.0041     0.0020 C.ar    
   3 C3             1.2106     2.1118     0.0018 C.ar    
   4 C4             2.3793     1.3716    -0.0133 C.ar    
   5 C5             2.3160    -0.0161    -0.0202 C.ar    
   6 N6             1.1705    -0.6564    -0.0123 N.ar    
   7 O7             1.2422     3.4673     0.0084 O.3     
   8 C8             2.5302     4.0862    -0.0005 C.3     
   9 C9             2.3676     5.5844     0.0086 C.2     
  10 N10            2.2911     6.3794     1.1113 N.pl3   
  11 C11            2.1477     7.6619     0.6406 C.2     
  12 N12            2.1442     7.5867    -0.6801 N.2     
  13 N13            2.2800     6.3593    -1.0412 N.2     
  14 C14            2.3297     6.1327     2.4498 C.2     
  15 C15            2.2264     7.1565     3.3421 C.2     
  16 C16            2.0780     8.4870     2.8817 C.2     
  17 C17            2.0396     8.7354     1.5478 C.2     
  18 C18            2.2691     6.8771     4.7974 C.ar    
  19 C19           -1.2149    -0.7042     0.0100 C.ar    
  20 C20           -2.4012    -0.0062     0.0251 C.ar    
  21 C21           -2.4084     1.3917     0.0326 C.ar    
  22 C22           -1.2427     2.0939     0.0310 C.ar    
  23 O23           -3.5785    -0.6836     0.0324 O.3     
  24 C24           -4.7757     0.0965     0.0481 C.3     
  25 C25            3.3253     7.3625     5.5696 C.ar    
  26 C26            3.3672     7.1041     6.9206 C.ar    
  27 C27            2.3510     6.3552     7.5203 C.ar    
  28 C28            1.2922     5.8692     6.7459 C.ar    
  29 C29            1.2505     6.1343     5.3944 C.ar    
  30 Cl30           0.0288     4.9382     7.4880 Cl      
  31 C31            2.3952     6.0770     8.9691 C.2     
  32 O32            1.5107     5.4254     9.4902 O.2     
  33 N33            3.4158     6.5452     9.7144 N.am    
  34 H34            3.3371     1.8706    -0.0202 H       
  35 H35            3.2348    -0.5836    -0.0325 H       
  36 H36            3.0885     3.7759     0.8827 H       
  37 H37            3.0719     3.7850    -0.8972 H       
  38 H38            2.4424     5.1194     2.8060 H       
  39 H39            1.9953     9.2998     3.5880 H       
  40 H40            1.9269     9.7463     1.1848 H       
  41 H41           -1.2202    -1.7841     0.0039 H       
  42 H42           -3.3500     1.9205     0.0441 H       
  43 H43           -1.2613     3.1737     0.0368 H       
  44 H44           -4.7912     0.7203     0.9418 H       
  45 H45           -4.8080     0.7304    -0.8380 H       
  46 H46           -5.6412    -0.5662     0.0525 H       
  47 H47            4.1108     7.9413     5.1064 H       
  48 H48            4.1854     7.4796     7.5172 H       
  49 H49            0.4334     5.7598     4.7957 H       
  50 H50            4.1214     7.0650     9.2987 H       
  51 H51            3.4448     6.3623    10.6666 H       
@<TRIPOS>BOND
   1    1    2 ar
   2    1    3 ar
   3    1   22 ar
   4    2   19 ar
   5    2    6 ar
   6    3    4 ar
   7    3    7 1
   8    4    5 ar
   9    4   34 1
  10    5    6 ar
  11    5   35 1
  12    7    8 1
  13    8    9 1
  14    8   36 1
  15    8   37 1
  16    9   10 1
  17    9   13 2
  18   10   11 1
  19   10   14 1
  20   11   12 2
  21   11   17 1
  22   12   13 1
  23   14   15 2
  24   14   38 1
  25   15   16 1
  26   15   18 1
  27   16   17 2
  28   16   39 1
  29   17   40 1
  30   18   25 ar
  31   18   29 ar
  32   19   20 ar
  33   19   41 1
  34   20   21 ar
  35   20   23 1
  36   21   22 ar
  37   21   42 1
  38   22   43 1
  39   23   24 1
  40   24   44 1
  41   24   45 1
  42   24   46 1
  43   25   26 ar
  44   25   47 1
  45   26   27 ar
  46   26   48 1
  47   27   28 ar
  48   27   31 1
  49   28   29 ar
  50   28   30 1
  51   29   49 1
  52   31   32 2
  53   31   33 am
  54   33   50 1
  55   33   51 1

#	End of record

