#	Name: ASD00071082
#	Creating user name:	WinNT
#	Creation time:	15. 06. 2019 18:30

#	Modifying user name:	WinNT
#	Modification time:	15. 06. 2019 18:30

#	Program:	/corina/corina34_cracker 3.40 0067  02.08.2006

@<TRIPOS>MOLECULE
ASD00071082
  34   36    0    0    0
SMALL
NO_CHARGES


@<TRIPOS>ATOM
   1 C1            -0.0167     1.3833     0.0096 C.ar    
   2 C2             0.0021    -0.0041     0.0020 C.ar    
   3 C3             1.2081    -0.6771    -0.0131 C.ar    
   4 C4             2.3962     0.0305    -0.0202 C.ar    
   5 C5             2.3801     1.4128    -0.0126 C.ar    
   6 C6             1.1763     2.0908     0.0021 C.ar    
   7 O7            -1.2021     2.0479     0.0189 O.3     
   8 C8            -1.2922    -0.7759     0.0107 C.3     
   9 N9            -2.3830    -2.2399    -3.1068 N.2     
  10 C10           -1.5196    -1.8299    -2.2099 C.2     
  11 N11           -1.8480    -0.8127    -1.3443 N.pl3   
  12 C12           -2.7688     0.2371    -1.8063 C.3     
  13 C13           -3.8643    -0.4243    -2.6074 C.ar    
  14 C14           -5.1027     0.1671    -2.7225 C.ar    
  15 C15           -6.0943    -0.4449    -3.4701 C.ar    
  16 C16           -5.8461    -1.6498    -4.1039 C.ar    
  17 C17           -4.6110    -2.2536    -3.9914 C.ar    
  18 C18           -3.6072    -1.6446    -3.2354 C.ar    
  19 N19           -0.2822    -2.4184    -2.1340 N.pl3   
  20 H20            1.2233    -1.7570    -0.0191 H       
  21 H21            3.3382    -0.4976    -0.0313 H       
  22 H22            3.3093     1.9633    -0.0182 H       
  23 H23            1.1643     3.1708     0.0076 H       
  24 H24           -1.5410     2.2354     0.9049 H       
  25 H25           -1.1063    -1.7933     0.3549 H       
  26 H26           -2.0009    -0.2894     0.6810 H       
  27 H27           -3.1998     0.7531    -0.9483 H       
  28 H28           -2.2317     0.9486    -2.4335 H       
  29 H29           -5.3004     1.1074    -2.2295 H       
  30 H30           -7.0652     0.0197    -3.5589 H       
  31 H31           -6.6229    -2.1196    -4.6888 H       
  32 H32           -4.4209    -3.1945    -4.4864 H       
  33 H33           -0.0483    -3.1360    -2.7432 H       
  34 H34            0.3585    -2.1167    -1.4712 H       
@<TRIPOS>BOND
   1    1    2 ar
   2    1    6 ar
   3    1    7 1
   4    2    3 ar
   5    2    8 1
   6    3    4 ar
   7    3   20 1
   8    4    5 ar
   9    4   21 1
  10    5    6 ar
  11    5   22 1
  12    6   23 1
  13    7   24 1
  14    8   11 1
  15    8   25 1
  16    8   26 1
  17    9   10 2
  18    9   18 1
  19   10   11 1
  20   10   19 1
  21   11   12 1
  22   12   13 1
  23   12   27 1
  24   12   28 1
  25   13   14 ar
  26   13   18 ar
  27   14   15 ar
  28   14   29 1
  29   15   16 ar
  30   15   30 1
  31   16   17 ar
  32   16   31 1
  33   17   18 ar
  34   17   32 1
  35   19   33 1
  36   19   34 1

#	End of record

