#	Name: ASD09200045
#	Creating user name:	WinNT
#	Creation time:	15. 06. 2019 21:21

#	Modifying user name:	WinNT
#	Modification time:	15. 06. 2019 21:21

#	Program:	/corina/corina34_cracker 3.40 0067  02.08.2006

@<TRIPOS>MOLECULE
ASD09200045
  47   51    0    0    0
SMALL
NO_CHARGES


@<TRIPOS>ATOM
   1 C1             3.4771     1.5890    -1.1822 C.ar    
   2 C2             3.8255     0.2474    -1.3408 C.ar    
   3 C3             3.4559    -0.6898    -0.3701 C.ar    
   4 C4             2.7483    -0.2923     0.7430 C.ar    
   5 C5             2.3969     1.0401     0.9091 C.ar    
   6 C6             2.7626     1.9884    -0.0574 C.ar    
   7 C7             2.3895     3.4077     0.1184 C.2     
   8 N8             1.1920     3.9271    -0.0344 N.2     
   9 N9             1.2283     5.1905     0.1974 N.2     
  10 C10            2.4517     5.5587     0.5131 C.2     
  11 N11            3.2266     4.4350     0.4783 N.pl3   
  12 N12            2.9845     6.7906     0.8410 N.am    
  13 C13            4.2949     6.9259     1.1327 C.2     
  14 C14            5.1589     5.7318     1.0975 C.ar    
  15 C15            4.5831     4.4932     0.7682 C.ar    
  16 C16            6.5185     5.8116     1.3899 C.ar    
  17 C17            7.2931     4.6710     1.3463 C.ar    
  18 C18            6.7256     3.4514     1.0139 C.ar    
  19 C19            5.3774     3.3576     0.7297 C.ar    
  20 O20            4.7556     8.0144     1.4196 O.2     
  21 C21            2.1135     7.9681     0.8718 C.3     
  22 C22            1.6878     8.2410     2.2915 C.ar    
  23 C23            2.3899     9.1491     3.0610 C.ar    
  24 C24            1.9995     9.3995     4.3636 C.ar    
  25 C25            0.9072     8.7416     4.8969 C.ar    
  26 C26            0.2044     7.8327     4.1282 C.ar    
  27 C27            0.5905     7.5866     2.8228 C.ar    
  28 Cl28          -0.2919     6.4457     1.8567 Cl      
  29 O29            1.6994     1.4254     2.0068 O.3     
  30 C30            4.5827    -0.1827    -2.5313 C.2     
  31 O31            4.9189    -1.4785    -2.6840 O.3     
  32 O32            4.9032     0.6315    -3.3743 O.2     
  33 H33            3.7650     2.3155    -1.9276 H       
  34 H34            3.7258    -1.7282    -0.4940 H       
  35 H35            2.4657    -1.0203     1.4890 H       
  36 H36            6.9637     6.7609     1.6489 H       
  37 H37            8.3477     4.7290     1.5720 H       
  38 H38            7.3420     2.5651     0.9826 H       
  39 H39            4.9439     2.4026     0.4720 H       
  40 H40            2.6545     8.8306     0.4826 H       
  41 H41            1.2322     7.7843     0.2572 H       
  42 H42            3.2439     9.6629     2.6451 H       
  43 H43            2.5485    10.1092     4.9646 H       
  44 H44            0.6029     8.9373     5.9145 H       
  45 H45           -0.6487     7.3181     4.5452 H       
  46 H46            2.2545     1.6619     2.7625 H       
  47 H47            5.4150    -1.7124    -3.4804 H       
@<TRIPOS>BOND
   1    1    2 ar
   2    1    6 ar
   3    1   33 1
   4    2    3 ar
   5    2   30 1
   6    3    4 ar
   7    3   34 1
   8    4    5 ar
   9    4   35 1
  10    5    6 ar
  11    5   29 1
  12    6    7 1
  13    7    8 2
  14    7   11 1
  15    8    9 1
  16    9   10 2
  17   10   11 1
  18   10   12 1
  19   11   15 1
  20   12   13 am
  21   12   21 1
  22   13   14 1
  23   13   20 2
  24   14   15 ar
  25   14   16 ar
  26   15   19 ar
  27   16   17 ar
  28   16   36 1
  29   17   18 ar
  30   17   37 1
  31   18   19 ar
  32   18   38 1
  33   19   39 1
  34   21   22 1
  35   21   40 1
  36   21   41 1
  37   22   23 ar
  38   22   27 ar
  39   23   24 ar
  40   23   42 1
  41   24   25 ar
  42   24   43 1
  43   25   26 ar
  44   25   44 1
  45   26   27 ar
  46   26   45 1
  47   27   28 1
  48   29   46 1
  49   30   31 1
  50   30   32 2
  51   31   47 1

#	End of record

