#	Name: ASD02038793
#	Creating user name:	WinNT
#	Creation time:	15. 06. 2019 20:17

#	Modifying user name:	WinNT
#	Modification time:	15. 06. 2019 20:17

#	Program:	/corina/corina34_cracker 3.40 0067  02.08.2006

@<TRIPOS>MOLECULE
ASD02038793
  42   44    0    0    0
SMALL
NO_CHARGES


@<TRIPOS>ATOM
   1 C1            -1.2846    -0.8280     0.4555 C.2     
   2 C2            -0.0540    -0.0229     0.3004 C.2     
   3 N3             1.1378    -0.6351     0.1543 N.am    
   4 C4             1.2276    -2.0945     0.2451 C.3     
   5 C5             1.1986    -2.6867    -1.1403 C.ar    
   6 C6             2.3434     0.1590    -0.0953 C.3     
   7 O7            -0.1174     1.1910     0.3046 O.2     
   8 N8            -1.3542    -2.1715     0.4785 N.2     
   9 C9            -2.6135    -2.4927     0.6323 C.2     
  10 N10           -3.3199    -1.3494     0.7041 N.pl3   
  11 N11           -2.5039    -0.3575     0.6012 N.2     
  12 C12            2.3811    -3.0173    -1.7755 C.ar    
  13 C13            2.1447     1.0108    -1.3528 C.3     
  14 C14            3.3773     1.8945    -1.5610 C.3     
  15 O15            3.5811     2.7061    -0.4027 O.3     
  16 C16            3.8193     1.9641     0.7952 C.3     
  17 C17            2.6044     1.0831     1.0981 C.3     
  18 C18           -0.0105    -2.9046    -1.7735 C.ar    
  19 C19           -0.0376    -3.4484    -3.0444 C.ar    
  20 C20            1.1445    -3.7747    -3.6818 C.ar    
  21 C21            2.3544    -3.5612    -3.0466 C.ar    
  22 C22           -4.7713    -1.2494     0.8762 C.3     
  23 I23            4.1465    -4.0549    -4.0128 I       
  24 H24            2.1591    -2.3711     0.7391 H       
  25 H25            0.3841    -2.4753     0.8208 H       
  26 H26            3.1953    -0.5062    -0.2362 H       
  27 H27           -3.0136    -3.4942     0.6907 H       
  28 H28            3.3257    -2.8505    -1.2793 H       
  29 H29            2.0133     0.3595    -2.2169 H       
  30 H30            1.2623     1.6391    -1.2315 H       
  31 H31            4.2526     1.2653    -1.7226 H       
  32 H32            3.2236     2.5338    -2.4304 H       
  33 H33            4.7003     1.3358     0.6644 H       
  34 H34            3.9838     2.6535     1.6232 H       
  35 H35            1.7313     1.7129     1.2689 H       
  36 H36            2.8017     0.4836     1.9868 H       
  37 H37           -0.9344    -2.6504    -1.2752 H       
  38 H38           -0.9825    -3.6186    -3.5389 H       
  39 H39            1.1232    -4.2001    -4.6743 H       
  40 H40           -5.0095    -1.2134     1.9392 H       
  41 H41           -5.1330    -0.3423     0.3919 H       
  42 H42           -5.2513    -2.1180     0.4254 H       
@<TRIPOS>BOND
   1    1    2 1
   2    1    8 1
   3    1   11 2
   4    2    3 am
   5    2    7 2
   6    3    4 1
   7    3    6 1
   8    4    5 1
   9    4   24 1
  10    4   25 1
  11    5   12 ar
  12    5   18 ar
  13    6   13 1
  14    6   17 1
  15    6   26 1
  16    8    9 2
  17    9   10 1
  18    9   27 1
  19   10   11 1
  20   10   22 1
  21   12   21 ar
  22   12   28 1
  23   13   14 1
  24   13   29 1
  25   13   30 1
  26   14   15 1
  27   14   31 1
  28   14   32 1
  29   15   16 1
  30   16   17 1
  31   16   33 1
  32   16   34 1
  33   17   35 1
  34   17   36 1
  35   18   19 ar
  36   18   37 1
  37   19   20 ar
  38   19   38 1
  39   20   21 ar
  40   20   39 1
  41   21   23 1
  42   22   40 1
  43   22   41 1
  44   22   42 1

#	End of record

