#	Name: ASD03950109
#	Creating user name:	WinNT
#	Creation time:	15. 06. 2019 20:48

#	Modifying user name:	WinNT
#	Modification time:	15. 06. 2019 20:48

#	Program:	/corina/corina34_cracker 3.40 0067  02.08.2006

@<TRIPOS>MOLECULE
ASD03950109
  45   46    0    0    0
SMALL
NO_CHARGES


@<TRIPOS>ATOM
   1 N1            -0.0178     1.4650     0.0101 N.am    
   2 C2             0.0021    -0.0041     0.0020 C.3     
   3 C3             0.8803    -0.4916     1.1586 C.3     
   4 C4             2.2627     0.1563     1.0525 C.3     
   5 C5             2.1248     1.6768     1.1584 C.3     
   6 C6             1.2607     2.1889     0.0018 C.3     
   7 C7            -1.1868     2.1359     0.0193 C.2     
   8 O8            -2.2375     1.5256     0.0210 O.2     
   9 O9            -1.1902     3.4822     0.0266 O.3     
  10 C10            3.1403    -0.3472     2.1693 C.2     
  11 O11            2.6406    -0.7555     3.1961 O.2     
  12 C12            4.6020    -0.3436     2.0141 C.ar    
  13 C13            5.4195    -0.8107     3.0498 C.ar    
  14 C14            6.8072    -0.8023     2.8908 C.ar    
  15 C15            7.3677    -0.3288     1.7018 C.ar    
  16 C16            6.5542     0.1309     0.6836 C.ar    
  17 C17            5.1811     0.1216     0.8280 C.ar    
  18 F18            4.8696    -1.2665     4.1966 F       
  19 C19            7.6533    -1.2774     3.9439 C.1     
  20 N20            8.3244    -1.6542     4.7794 N.1     
  21 Br21           7.3261     0.7696    -0.9202 Br      
  22 C22           -2.4856     4.1381     0.0364 C.3     
  23 C23           -3.2605     3.7182     1.2870 C.3     
  24 C24           -2.2890     5.6554     0.0437 C.3     
  25 C25           -3.2723     3.7317    -1.2114 C.3     
  26 H26           -1.0118    -0.3840     0.1278 H       
  27 H27            0.4128    -0.3587    -0.9433 H       
  28 H28            0.4202    -0.2139     2.1069 H       
  29 H29            0.9816    -1.5757     1.1066 H       
  30 H30            2.7120    -0.1016     0.0934 H       
  31 H31            1.6530     1.9341     2.1067 H       
  32 H32            3.1119     2.1361     1.1062 H       
  33 H33            1.7740     2.0131    -0.9436 H       
  34 H34            1.0772     3.2560     0.1274 H       
  35 H35            8.4406    -0.3216     1.5782 H       
  36 H36            4.5526     0.4785     0.0255 H       
  37 H37           -2.7000     4.0076     2.1759 H       
  38 H38           -4.2329     4.2105     1.2943 H       
  39 H39           -3.4005     2.6372     1.2818 H       
  40 H40           -1.7370     5.9545    -0.8473 H       
  41 H41           -3.2615     6.1477     0.0510 H       
  42 H42           -1.7286     5.9448     0.9326 H       
  43 H43           -3.4124     2.6508    -1.2166 H       
  44 H44           -4.2448     4.2241    -1.2041 H       
  45 H45           -2.7203     4.0309    -2.1024 H       
@<TRIPOS>BOND
   1    1    2 1
   2    1    6 1
   3    1    7 am
   4    2    3 1
   5    2   26 1
   6    2   27 1
   7    3    4 1
   8    3   28 1
   9    3   29 1
  10    4    5 1
  11    4   10 1
  12    4   30 1
  13    5    6 1
  14    5   31 1
  15    5   32 1
  16    6   33 1
  17    6   34 1
  18    7    8 2
  19    7    9 1
  20    9   22 1
  21   10   11 2
  22   10   12 1
  23   12   13 ar
  24   12   17 ar
  25   13   14 ar
  26   13   18 1
  27   14   15 ar
  28   14   19 1
  29   15   16 ar
  30   15   35 1
  31   16   17 ar
  32   16   21 1
  33   17   36 1
  34   19   20 3
  35   22   23 1
  36   22   24 1
  37   22   25 1
  38   23   37 1
  39   23   38 1
  40   23   39 1
  41   24   40 1
  42   24   41 1
  43   24   42 1
  44   25   43 1
  45   25   44 1
  46   25   45 1

#	End of record

