#	Name: ASD04590833
#	Creating user name:	WinNT
#	Creation time:	15. 06. 2019 20:51

#	Modifying user name:	WinNT
#	Modification time:	15. 06. 2019 20:51

#	Program:	/corina/corina34_cracker 3.40 0067  02.08.2006

@<TRIPOS>MOLECULE
ASD04590833
  73   78    0    0    0
SMALL
NO_CHARGES


@<TRIPOS>ATOM
   1 N1            -2.3782    -2.7059     0.0195 N.ar    
   2 C2            -1.2117    -2.0738     0.0036 C.ar    
   3 N3            -0.0573    -2.7202    -0.0183 N.ar    
   4 C4            -0.0259    -4.0495    -0.0249 C.ar    
   5 C5            -1.2486    -4.7505    -0.0081 C.ar    
   6 C6            -2.4370    -4.0274     0.0143 C.ar    
   7 N7             0.9980    -4.9638    -0.0455 N.pl3   
   8 C8             0.4950    -6.2534    -0.0429 C.ar    
   9 C9            -0.9092    -6.1792    -0.0197 C.ar    
  10 C10            1.0916    -7.5075    -0.0571 C.ar    
  11 N11            0.3553    -8.6000    -0.0494 N.ar    
  12 C12           -0.9654    -8.5648    -0.0278 C.ar    
  13 C13           -1.6435    -7.3645    -0.0129 C.ar    
  14 N14           -1.2020    -0.6888     0.0098 N.pl3   
  15 C15           -2.4013     0.0174    -0.0802 C.ar    
  16 N16           -3.5393    -0.6296    -0.2720 N.ar    
  17 N17           -4.6652    -0.0199    -0.3608 N.ar    
  18 C18           -4.7638     1.2947    -0.2668 C.ar    
  19 C19           -3.6194     2.0642    -0.0643 C.ar    
  20 C20           -2.4050     1.4077     0.0375 C.ar    
  21 O21           -5.9777     1.8946    -0.3677 O.3     
  22 C22           -8.3482     1.6812     0.0527 C.3     
  23 C23           -7.1067     1.0436    -0.5753 C.3     
  24 C24            2.4226    -4.6227    -0.0677 C.3     
  25 C25            2.7461    -3.7914    -1.3216 C.3     
  26 C26            3.2825    -2.4334    -0.8237 C.3     
  27 C27            3.8150    -2.7340     0.5994 C.3     
  28 C28            2.7738    -3.7408     1.1484 C.3     
  29 C29           -9.5492     0.7502    -0.1415 C.3     
  30 N30           -9.6853     0.4462    -1.5725 N.am    
  31 C31           -8.5224    -0.0865    -2.2954 C.3     
  32 C32           -7.3329     0.8538    -2.0770 C.3     
  33 C33          -10.8549     0.6518    -2.2100 C.2     
  34 O34          -11.8095     1.0925    -1.6009 O.2     
  35 O35          -10.9655     0.3689    -3.5216 O.3     
  36 C36          -12.2547     0.6152    -4.1427 C.3     
  37 C37          -12.6095     2.0976    -4.0105 C.3     
  38 C38          -12.1879     0.2368    -5.6236 C.3     
  39 C39          -13.3250    -0.2293    -3.4483 C.3     
  40 H40           -3.3898    -4.5356     0.0273 H       
  41 H41            2.1684    -7.5879    -0.0750 H       
  42 H42           -1.5221    -9.4902    -0.0224 H       
  43 H43           -2.7232    -7.3427     0.0049 H       
  44 H44           -0.3610    -0.2099     0.0768 H       
  45 H45           -3.6789     3.1397     0.0148 H       
  46 H46           -1.4876     1.9555     0.1948 H       
  47 H47           -8.1776     1.8375     1.1179 H       
  48 H48           -8.5484     2.6385    -0.4285 H       
  49 H49           -6.9216     0.0750    -0.1109 H       
  50 H50            3.0241    -5.5316    -0.0569 H       
  51 H51            3.5052    -4.2965    -1.9188 H       
  52 H52            1.8432    -3.6418    -1.9136 H       
  53 H53            4.0898    -2.0831    -1.4669 H       
  54 H54            2.4793    -1.6977    -0.7830 H       
  55 H55            4.8047    -3.1883     0.5536 H       
  56 H56            3.8324    -1.8277     1.2048 H       
  57 H57            1.8884    -3.2162     1.5075 H       
  58 H58            3.2097    -4.3446     1.9443 H       
  59 H59           -9.3892    -0.1735     0.4146 H       
  60 H60          -10.4541     1.2419     0.2153 H       
  61 H61           -8.2786    -1.0784    -1.9149 H       
  62 H62           -8.7499    -0.1469    -3.3596 H       
  63 H63           -7.5427     1.8190    -2.5381 H       
  64 H64           -6.4396     0.4213    -2.5276 H       
  65 H65          -11.8470     2.6992    -4.5053 H       
  66 H66          -13.5773     2.2825    -4.4768 H       
  67 H67          -12.6571     2.3671    -2.9555 H       
  68 H68          -11.9351    -0.8193    -5.7178 H       
  69 H69          -13.1557     0.4217    -6.0899 H       
  70 H70          -11.4254     0.8384    -6.1184 H       
  71 H71          -13.3725     0.0403    -2.3932 H       
  72 H72          -14.2927    -0.0444    -3.9145 H       
  73 H73          -13.0721    -1.2854    -3.5424 H       
@<TRIPOS>BOND
   1    1    2 ar
   2    1    6 ar
   3    2    3 ar
   4    2   14 1
   5    3    4 ar
   6    4    5 ar
   7    4    7 1
   8    5    6 ar
   9    5    9 1
  10    6   40 1
  11    7    8 1
  12    7   24 1
  13    8    9 ar
  14    8   10 ar
  15    9   13 ar
  16   10   11 ar
  17   10   41 1
  18   11   12 ar
  19   12   13 ar
  20   12   42 1
  21   13   43 1
  22   14   15 1
  23   14   44 1
  24   15   16 ar
  25   15   20 ar
  26   16   17 ar
  27   17   18 ar
  28   18   19 ar
  29   18   21 1
  30   19   20 ar
  31   19   45 1
  32   20   46 1
  33   21   23 1
  34   22   23 1
  35   22   29 1
  36   22   47 1
  37   22   48 1
  38   23   32 1
  39   23   49 1
  40   24   25 1
  41   24   28 1
  42   24   50 1
  43   25   26 1
  44   25   51 1
  45   25   52 1
  46   26   27 1
  47   26   53 1
  48   26   54 1
  49   27   28 1
  50   27   55 1
  51   27   56 1
  52   28   57 1
  53   28   58 1
  54   29   30 1
  55   29   59 1
  56   29   60 1
  57   30   31 1
  58   30   33 am
  59   31   32 1
  60   31   61 1
  61   31   62 1
  62   32   63 1
  63   32   64 1
  64   33   34 2
  65   33   35 1
  66   35   36 1
  67   36   37 1
  68   36   38 1
  69   36   39 1
  70   37   65 1
  71   37   66 1
  72   37   67 1
  73   38   68 1
  74   38   69 1
  75   38   70 1
  76   39   71 1
  77   39   72 1
  78   39   73 1

#	End of record

