#	Name: ASD00660014
#	Creating user name:	WinNT
#	Creation time:	15. 06. 2019 18:36

#	Modifying user name:	WinNT
#	Modification time:	15. 06. 2019 18:36

#	Program:	/corina/corina34_cracker 3.40 0067  02.08.2006

@<TRIPOS>MOLECULE
ASD00660014
  70   73    0    0    0
SMALL
NO_CHARGES


@<TRIPOS>ATOM
   1 C1             6.3586    -2.2105    -6.9557 C.ar    
   2 C2             5.8266    -3.3057    -6.2873 C.ar    
   3 C3             5.6841    -3.2954    -4.9185 C.ar    
   4 C4             6.0789    -2.1700    -4.1898 C.ar    
   5 C5             6.6201    -1.0573    -4.8735 C.ar    
   6 C6             6.7553    -1.0895    -6.2603 C.ar    
   7 N7             5.9552    -2.1195    -2.8427 N.2     
   8 C8             6.3251    -1.0643    -2.1596 C.2     
   9 N9             6.8564     0.0511    -2.7414 N.am    
  10 C10            7.0264     0.1124    -4.0824 C.2     
  11 C11            7.2450     1.1908    -1.9069 C.3     
  12 C12            8.7402     1.4642    -2.0812 C.3     
  13 C13            9.1460     2.6544    -1.2097 C.3     
  14 C14            8.3491     3.8905    -1.6314 C.3     
  15 C15            6.8538     3.6172    -1.4572 C.3     
  16 C16            6.4480     2.4269    -2.3287 C.3     
  17 O17            7.4991     1.1002    -4.6139 O.2     
  18 S18            6.1272    -1.0852    -0.4089 S.3     
  19 C19            5.2588    -2.6608    -0.2096 C.3     
  20 C20            6.1912    -3.7948    -0.5498 C.2     
  21 N21            5.6923    -4.9761    -0.9646 N.am    
  22 O22            7.3905    -3.6444    -0.4503 O.2     
  23 C23            6.5886    -6.0910    -1.2999 C.3     
  24 C24            6.2534    -6.5860    -2.7104 C.3     
  25 C25            4.7645    -6.9323    -2.7847 C.3     
  26 C26            3.9328    -5.6790    -2.5024 C.3     
  27 C27            4.2415    -5.1754    -1.0842 C.3     
  28 C28            4.4381    -7.4519    -4.1611 C.2     
  29 N29            3.1771    -7.8221    -4.4601 N.am    
  30 O30            5.3100    -7.5369    -4.9998 O.2     
  31 C31            4.7887    -2.8043     1.2393 C.3     
  32 C32            3.7366    -1.7355     1.5423 C.3     
  33 C33            3.1737    -1.9579     2.9475 C.3     
  34 C34            2.1217    -0.8891     3.2505 C.3     
  35 H35            6.4665    -2.2399    -8.0299 H       
  36 H36            5.5205    -4.1760    -6.8487 H       
  37 H37            5.2687    -4.1528    -4.4098 H       
  38 H38            7.1682    -0.2413    -6.7862 H       
  39 H39            7.0366     0.9635    -0.8615 H       
  40 H40            9.3080     0.5836    -1.7807 H       
  41 H41            8.9486     1.6915    -3.1266 H       
  42 H42            8.9376     2.4271    -0.1642 H       
  43 H43           10.2113     2.8492    -1.3338 H       
  44 H44            8.6382     4.7385    -1.0106 H       
  45 H45            8.5575     4.1179    -2.6769 H       
  46 H46            6.6454     3.3898    -0.4118 H       
  47 H47            6.2861     4.4978    -1.7577 H       
  48 H48            6.6564     2.6543    -3.3742 H       
  49 H49            5.3828     2.2322    -2.2046 H       
  50 H50            4.3964    -2.6872    -0.8757 H       
  51 H51            7.6234    -5.7500    -1.2686 H       
  52 H52            6.4469    -6.9014    -0.5849 H       
  53 H53            6.4816    -5.8037    -3.4343 H       
  54 H54            6.8450    -7.4736    -2.9345 H       
  55 H55            4.5321    -7.6969    -2.0436 H       
  56 H56            4.1829    -4.9052    -3.2283 H       
  57 H57            2.8728    -5.9210    -2.5785 H       
  58 H58            3.9071    -5.9123    -0.3539 H       
  59 H59            3.7285    -4.2291    -0.9127 H       
  60 H60            2.4797    -7.7541    -3.7894 H       
  61 H61            2.9670    -8.1565    -5.3461 H       
  62 H62            4.3540    -3.7933     1.3840 H       
  63 H63            5.6379    -2.6788     1.9110 H       
  64 H64            4.1952    -0.7482     1.4867 H       
  65 H65            2.9296    -1.8029     0.8128 H       
  66 H66            2.7152    -2.9452     3.0031 H       
  67 H67            3.9807    -1.8905     3.6771 H       
  68 H68            1.7206    -1.0476     4.2516 H       
  69 H69            2.5802     0.0981     3.1949 H       
  70 H70            1.3146    -0.9566     2.5210 H       
@<TRIPOS>BOND
   1    1    2 ar
   2    1    6 ar
   3    1   35 1
   4    2    3 ar
   5    2   36 1
   6    3    4 ar
   7    3   37 1
   8    4    5 ar
   9    4    7 1
  10    5    6 ar
  11    5   10 1
  12    6   38 1
  13    7    8 2
  14    8    9 1
  15    8   18 1
  16    9   10 am
  17    9   11 1
  18   10   17 2
  19   11   12 1
  20   11   16 1
  21   11   39 1
  22   12   13 1
  23   12   40 1
  24   12   41 1
  25   13   14 1
  26   13   42 1
  27   13   43 1
  28   14   15 1
  29   14   44 1
  30   14   45 1
  31   15   16 1
  32   15   46 1
  33   15   47 1
  34   16   48 1
  35   16   49 1
  36   18   19 1
  37   19   20 1
  38   19   31 1
  39   19   50 1
  40   20   21 am
  41   20   22 2
  42   21   23 1
  43   21   27 1
  44   23   24 1
  45   23   51 1
  46   23   52 1
  47   24   25 1
  48   24   53 1
  49   24   54 1
  50   25   26 1
  51   25   28 1
  52   25   55 1
  53   26   27 1
  54   26   56 1
  55   26   57 1
  56   27   58 1
  57   27   59 1
  58   28   29 am
  59   28   30 2
  60   29   60 1
  61   29   61 1
  62   31   32 1
  63   31   62 1
  64   31   63 1
  65   32   33 1
  66   32   64 1
  67   32   65 1
  68   33   34 1
  69   33   66 1
  70   33   67 1
  71   34   68 1
  72   34   69 1
  73   34   70 1

#	End of record

