#	Name: ASD05430155
#	Creating user name:	WinNT
#	Creation time:	15. 06. 2019 20:59

#	Modifying user name:	WinNT
#	Modification time:	15. 06. 2019 20:59

#	Program:	/corina/corina34_cracker 3.40 0067  02.08.2006

@<TRIPOS>MOLECULE
ASD05430155
  62   67    0    0    0
SMALL
NO_CHARGES


@<TRIPOS>ATOM
   1 C1            -0.0102     1.3701    -0.1557 C.ar    
   2 C2             0.0204    -0.0143    -0.3187 C.ar    
   3 C3             1.2360    -0.6827    -0.3839 C.ar    
   4 C4             2.4181     0.0191    -0.2873 C.ar    
   5 C5             2.3953     1.4081    -0.1236 C.ar    
   6 C6             1.1713     2.0809    -0.0585 C.ar    
   7 O7             4.8708     0.1435     0.2387 O.3     
   8 C8             4.8303     1.4988     0.0683 C.2     
   9 C9             3.6564     2.1594    -0.0198 C.2     
  10 C10            6.0890    -0.4205     0.7199 C.3     
  11 C11            6.9207     0.5326     1.5813 C.3     
  12 N12            7.1388     1.7686     0.8274 N.pl3   
  13 C13            6.1213     2.2136    -0.0154 C.2     
  14 N14           -1.1794    -0.7337    -0.4167 N.pl3   
  15 C15           -1.5006    -1.6552    -1.3792 C.2     
  16 C16           -2.7402    -2.0992    -1.0961 C.2     
  17 N17           -3.1685    -1.4694     0.0078 N.2     
  18 C18           -2.2401    -0.6532     0.4276 C.2     
  19 C19           -3.5127    -3.1257    -1.8839 C.3     
  20 C20            8.3673     2.5511     0.9412 C.3     
  21 C21            8.6956     3.1377    -0.4363 C.3     
  22 O22            7.5668     3.8369    -0.9508 O.3     
  23 N23            6.3198     3.1900    -0.8370 N.2     
  24 C24            8.1681     3.6673     1.9339 C.ar    
  25 C25            9.1808     3.9963     2.8157 C.ar    
  26 C26            6.9750     4.3652     1.9584 C.ar    
  27 C27            6.7916     5.3896     2.8677 C.ar    
  28 C28            7.8031     5.7165     3.7548 C.ar    
  29 C29            5.9071    -1.8051     1.3581 C.3     
  30 C30            7.2158    -2.2105     0.6589 C.3     
  31 C31            6.9117    -1.1137    -0.3758 C.3     
  32 C32           -1.1586     3.4399     0.0703 C.3     
  33 O33           -1.2020     2.0215    -0.0980 O.3     
  34 C34            8.9994     5.0200     3.7262 C.ar    
  35 F35            7.6249     6.7177     4.6442 F       
  36 H36            1.2550    -1.7551    -0.5102 H       
  37 H37            3.3619    -0.5033    -0.3375 H       
  38 H38            1.1491     3.1533     0.0674 H       
  39 H39            3.6428     3.2393    -0.0140 H       
  40 H40            6.3841     0.7557     2.5034 H       
  41 H41            7.8806     0.0719     1.8149 H       
  42 H42           -0.8791    -1.9653    -2.2063 H       
  43 H43           -2.3072    -0.0154     1.2966 H       
  44 H44           -3.2986    -4.1203    -1.4929 H       
  45 H45           -4.5801    -2.9228    -1.7964 H       
  46 H46           -3.2182    -3.0762    -2.9322 H       
  47 H47            9.1833     1.9077     1.2702 H       
  48 H48            9.5363     3.8255    -0.3453 H       
  49 H49            8.9630     2.3308    -1.1185 H       
  50 H50           10.1138     3.4529     2.7932 H       
  51 H51            6.1861     4.1100     1.2663 H       
  52 H52            5.8596     5.9351     2.8861 H       
  53 H53            5.9773    -1.7974     2.4458 H       
  54 H54            5.0321    -2.3429     0.9931 H       
  55 H55            8.1077    -2.0140     1.2539 H       
  56 H56            7.1956    -3.2187     0.2451 H       
  57 H57            6.3130    -1.4614    -1.2177 H       
  58 H58            7.7912    -0.5489    -0.6850 H       
  59 H59           -2.1746     3.8335     0.1004 H       
  60 H60           -0.6483     3.6797     1.0031 H       
  61 H61           -0.6198     3.8885    -0.7644 H       
  62 H62            9.7890     5.2739     4.4179 H       
@<TRIPOS>BOND
   1    1    2 ar
   2    1    6 ar
   3    1   33 1
   4    2    3 ar
   5    2   14 1
   6    3    4 ar
   7    3   36 1
   8    4    5 ar
   9    4   37 1
  10    5    6 ar
  11    5    9 1
  12    6   38 1
  13    7    8 1
  14    7   10 1
  15    8    9 2
  16    8   13 1
  17    9   39 1
  18   10   11 1
  19   10   29 1
  20   10   31 1
  21   11   12 1
  22   11   40 1
  23   11   41 1
  24   12   13 1
  25   12   20 1
  26   13   23 2
  27   14   15 1
  28   14   18 1
  29   15   16 2
  30   15   42 1
  31   16   17 1
  32   16   19 1
  33   17   18 2
  34   18   43 1
  35   19   44 1
  36   19   45 1
  37   19   46 1
  38   20   21 1
  39   20   24 1
  40   20   47 1
  41   21   22 1
  42   21   48 1
  43   21   49 1
  44   22   23 1
  45   24   25 ar
  46   24   26 ar
  47   25   34 ar
  48   25   50 1
  49   26   27 ar
  50   26   51 1
  51   27   28 ar
  52   27   52 1
  53   28   34 ar
  54   28   35 1
  55   29   30 1
  56   29   53 1
  57   29   54 1
  58   30   31 1
  59   30   55 1
  60   30   56 1
  61   31   57 1
  62   31   58 1
  63   32   33 1
  64   32   59 1
  65   32   60 1
  66   32   61 1
  67   34   62 1

#	End of record

