#	Name: ASD03430829
#	Creating user name:	WinNT
#	Creation time:	15. 06. 2019 20:41

#	Modifying user name:	WinNT
#	Modification time:	15. 06. 2019 20:41

#	Program:	/corina/corina34_cracker 3.40 0067  02.08.2006

@<TRIPOS>MOLECULE
ASD03430829
  63   69    0    0    0
SMALL
NO_CHARGES


@<TRIPOS>ATOM
   1 O1            -0.0164     1.3592     0.0095 O.3     
   2 C2             0.0021    -0.0041     0.0020 C.ar    
   3 C3             1.2402    -0.4882    -0.4138 C.ar    
   4 C4             2.1042     0.7143    -0.6808 C.3     
   5 C5             1.3355     1.8558    -0.0007 C.3     
   6 O6            -1.6121    -3.3142     0.5370 O.3     
   7 C7            -0.7764    -2.2766     0.2540 C.ar    
   8 C8             0.4629    -2.7338    -0.1763 C.ar    
   9 C9             0.4020    -4.2487    -0.1812 C.3     
  10 C10           -1.1212    -4.5067    -0.0982 C.3     
  11 C11            1.4638    -1.8454    -0.5042 C.ar    
  12 C12           -0.9997    -0.9068     0.3364 C.ar    
  13 N13            4.3410     0.7055    -1.1512 N.am    
  14 C14            3.4877     0.5590    -0.1180 C.2     
  15 C15            2.2971     0.9660    -2.1468 C.ar    
  16 C16            1.4331     1.1879    -3.1958 C.ar    
  17 C17            1.9293     1.3929    -4.4709 C.ar    
  18 C18            3.2948     1.3746    -4.6892 C.ar    
  19 C19            4.1645     1.1528    -3.6418 C.ar    
  20 C20            3.6739     0.9460    -2.3548 C.ar    
  21 O21            3.7800     0.3441     1.0393 O.2     
  22 C22            5.7983     0.6223    -1.0264 C.3     
  23 N23            8.1860    -2.3180    -1.2275 N.3     
  24 C24            7.7690    -0.9137    -1.1038 C.3     
  25 C25            6.2461    -0.8259    -1.2341 C.3     
  26 O26            5.6390    -1.6601    -0.2438 O.3     
  27 C27            6.0227    -3.0348    -0.3352 C.3     
  28 C28            7.5433    -3.1451    -0.1959 C.3     
  29 C29            9.6486    -2.4404    -1.1646 C.3     
  30 C30           10.0264    -3.8945    -1.0471 C.ar    
  31 C31           10.2439    -4.6464    -2.1865 C.ar    
  32 C32           10.5905    -5.9802    -2.0787 C.ar    
  33 C33           10.7200    -6.5621    -0.8315 C.ar    
  34 C34           10.5034    -5.8100     0.3080 C.ar    
  35 C35           10.1611    -4.4750     0.2002 C.ar    
  36 H36            1.4066     2.7727    -0.5858 H       
  37 H37            1.6972     2.0147     1.0152 H       
  38 H38            0.8157    -4.6523    -1.1054 H       
  39 H39            0.9151    -4.6622     0.6870 H       
  40 H40           -1.3314    -5.3843     0.5131 H       
  41 H41           -1.5489    -4.6174    -1.0946 H       
  42 H42            2.4247    -2.2129    -0.8329 H       
  43 H43           -1.9614    -0.5408     0.6641 H       
  44 H44            0.3671     1.2016    -3.0231 H       
  45 H45            1.2518     1.5664    -5.2939 H       
  46 H46            3.6821     1.5344    -5.6846 H       
  47 H47            5.2295     1.1391    -3.8204 H       
  48 H48            6.2643     1.2582    -1.7791 H       
  49 H49            6.0975     0.9562    -0.0329 H       
  50 H50            8.0740    -0.5278    -0.1311 H       
  51 H51            8.2364    -0.3244    -1.8927 H       
  52 H52            5.9458    -1.1609    -2.2269 H       
  53 H53            5.5421    -3.6007     0.4628 H       
  54 H54            5.7158    -3.4348    -1.3017 H       
  55 H55            7.8460    -4.1846    -0.3220 H       
  56 H56            7.8447    -2.7948     0.7914 H       
  57 H57           10.0874    -2.0231    -2.0709 H       
  58 H58           10.0217    -1.8967    -0.2967 H       
  59 H59           10.1427    -4.1918    -3.1609 H       
  60 H60           10.7597    -6.5679    -2.9689 H       
  61 H61           10.9900    -7.6044    -0.7473 H       
  62 H62           10.6042    -6.2646     1.2824 H       
  63 H63            9.9954    -3.8864     1.0905 H       
@<TRIPOS>BOND
   1    1    2 1
   2    1    5 1
   3    2    3 ar
   4    2   12 ar
   5    3    4 1
   6    3   11 ar
   7    4    5 1
   8    4   14 1
   9    4   15 1
  10    5   36 1
  11    5   37 1
  12    6    7 1
  13    6   10 1
  14    7    8 ar
  15    7   12 ar
  16    8    9 1
  17    8   11 ar
  18    9   10 1
  19    9   38 1
  20    9   39 1
  21   10   40 1
  22   10   41 1
  23   11   42 1
  24   12   43 1
  25   13   14 am
  26   13   20 1
  27   13   22 1
  28   14   21 2
  29   15   16 ar
  30   15   20 ar
  31   16   17 ar
  32   16   44 1
  33   17   18 ar
  34   17   45 1
  35   18   19 ar
  36   18   46 1
  37   19   20 ar
  38   19   47 1
  39   22   25 1
  40   22   48 1
  41   22   49 1
  42   23   24 1
  43   23   28 1
  44   23   29 1
  45   24   25 1
  46   24   50 1
  47   24   51 1
  48   25   26 1
  49   25   52 1
  50   26   27 1
  51   27   28 1
  52   27   53 1
  53   27   54 1
  54   28   55 1
  55   28   56 1
  56   29   30 1
  57   29   57 1
  58   29   58 1
  59   30   31 ar
  60   30   35 ar
  61   31   32 ar
  62   31   59 1
  63   32   33 ar
  64   32   60 1
  65   33   34 ar
  66   33   61 1
  67   34   35 ar
  68   34   62 1
  69   35   63 1

#	End of record

