#	Name: ASD00431019
#	Creating user name:	WinNT
#	Creation time:	15. 06. 2019 18:35

#	Modifying user name:	WinNT
#	Modification time:	15. 06. 2019 18:35

#	Program:	/corina/corina34_cracker 3.40 0067  02.08.2006

@<TRIPOS>MOLECULE
ASD00431019
  17   17    0    0    0
SMALL
NO_CHARGES


@<TRIPOS>ATOM
   1 C1            -0.0167     1.3793     0.0096 C.ar    
   2 C2             0.0021    -0.0041     0.0020 C.ar    
   3 Cl3           -1.4893    -0.8926     0.0109 Cl      
   4 C4             1.1719     2.0865     0.0021 C.ar    
   5 C5             2.3791     1.4102    -0.0131 C.ar    
   6 C6             2.3972     0.0283    -0.0211 C.ar    
   7 C7             1.2095    -0.6791    -0.0131 C.ar    
   8 C8             1.2301    -2.1859    -0.0219 C.3     
   9 N9             0.8919    -2.6881     1.3165 N.3     
  10 Cl10           1.1493     3.8224     0.0110 Cl      
  11 H11           -0.9591     1.9068     0.0169 H       
  12 H12            3.3072     1.9623    -0.0190 H       
  13 H13            3.3395    -0.4991    -0.0337 H       
  14 H14            0.5011    -2.5551    -0.7434 H       
  15 H15            2.2249    -2.5341    -0.3000 H       
  16 H16            0.0016    -2.3265     1.6241 H       
  17 H17            0.8990    -3.6969     1.3367 H       
@<TRIPOS>BOND
   1    1    2 ar
   2    1    4 ar
   3    1   11 1
   4    2    3 1
   5    2    7 ar
   6    4    5 ar
   7    4   10 1
   8    5    6 ar
   9    5   12 1
  10    6    7 ar
  11    6   13 1
  12    7    8 1
  13    8    9 1
  14    8   14 1
  15    8   15 1
  16    9   16 1
  17    9   17 1

#	End of record

