#	Name: ASD05430061
#	Creating user name:	WinNT
#	Creation time:	15. 06. 2019 20:59

#	Modifying user name:	WinNT
#	Modification time:	15. 06. 2019 20:59

#	Program:	/corina/corina34_cracker 3.40 0067  02.08.2006

@<TRIPOS>MOLECULE
ASD05430061
  68   74    0    0    0
SMALL
NO_CHARGES


@<TRIPOS>ATOM
   1 C1             0.0454     0.7765    -0.4409 C.ar    
   2 C2             0.1845    -0.5912    -0.7514 C.ar    
   3 C3             1.4269    -1.1698    -0.9317 C.ar    
   4 C4             2.5817    -0.4284    -0.8142 C.ar    
   5 C5             2.4744     0.9327    -0.4949 C.ar    
   6 C6             1.2238     1.4951    -0.3069 C.ar    
   7 O7             5.0333    -0.1843    -0.0104 O.3     
   8 C8             4.8901     1.1700    -0.2082 C.2     
   9 C9             3.6849     1.7586    -0.3599 C.2     
  10 C10            6.0422    -0.5556     0.9386 C.3     
  11 C11            7.4571    -0.0389     0.6358 C.3     
  12 N12            7.3437     1.3659     0.2448 N.pl3   
  13 C13            6.1615     1.9337    -0.2415 C.2     
  14 C14            8.3350     2.4386     0.2798 C.3     
  15 O15            7.7653     3.4410    -0.5889 O.3     
  16 N16            6.3849     3.1190    -0.6957 N.2     
  17 C17            8.4907     2.9739     1.6798 C.ar    
  18 C18            9.6784     1.9508    -0.2663 C.3     
  19 C19            8.1274     2.1940     2.7619 C.ar    
  20 C20            9.0020     4.2424     1.8813 C.ar    
  21 C21            9.1461     4.7341     3.1648 C.ar    
  22 C22            8.7777     3.9558     4.2492 C.ar    
  23 C23            8.2702     2.6837     4.0463 C.ar    
  24 F24            8.9181     4.4354     5.5043 F       
  25 C25            5.6286    -0.6542     2.4066 C.3     
  26 C26            5.9188    -1.9250     1.6046 C.3     
  27 N27           -0.9639    -1.3835    -0.8799 N.pl3   
  28 C28           -1.2615    -2.2247    -1.9209 C.2     
  29 C29           -2.4529    -2.7861    -1.6404 C.2     
  30 N30           -2.8758    -2.3046    -0.4621 N.2     
  31 C31           -1.9903    -1.4677     0.0061 C.2     
  32 C32           -3.1849    -3.7827    -2.5017 C.3     
  33 Si33           0.6622     3.2339     0.1727 Si      
  34 C34           -1.1528     2.8282     0.5427 C.3     
  35 C35           -1.2581     1.5147    -0.2706 C.3     
  36 C36            1.5526     3.8519     1.6880 C.3     
  37 C37            0.8254     4.4271    -1.2487 C.3     
  38 H38            1.4931    -2.2214    -1.1684 H       
  39 H39            3.5487    -0.8855    -0.9644 H       
  40 H40            3.6090     2.8357    -0.3821 H       
  41 H41            8.0804    -0.1255     1.5258 H       
  42 H42            7.8941    -0.6151    -0.1797 H       
  43 H43            9.5531     1.6201    -1.2973 H       
  44 H44           10.4021     2.7651    -0.2312 H       
  45 H45           10.0371     1.1195     0.3408 H       
  46 H46            7.7316     1.2017     2.6034 H       
  47 H47            9.2893     4.8493     1.0354 H       
  48 H48            9.5463     5.7248     3.3221 H       
  49 H49            7.9822     2.0759     4.8913 H       
  50 H50            6.3602    -0.3544     3.1569 H       
  51 H51            4.5884    -0.4403     2.6520 H       
  52 H52            5.0694    -2.5471     1.3226 H       
  53 H53            6.8412    -2.4612     1.8275 H       
  54 H54           -0.6567    -2.4026    -2.7978 H       
  55 H55           -2.0643    -0.9275     0.9383 H       
  56 H56           -2.8843    -4.7929    -2.2240 H       
  57 H57           -4.2591    -3.6699    -2.3550 H       
  58 H58           -2.9408    -3.6060    -3.5493 H       
  59 H59           -1.3171     2.6563     1.6064 H       
  60 H60           -1.8229     3.5954     0.1550 H       
  61 H61           -1.6528     1.7510    -1.2587 H       
  62 H62           -1.9661     0.8543     0.2301 H       
  63 H63            2.6248     3.8790     1.4936 H       
  64 H64            1.2021     4.8548     1.9317 H       
  65 H65            1.3520     3.1834     2.5253 H       
  66 H66            0.2111     4.0858    -2.0819 H       
  67 H67            0.4927     5.4159    -0.9331 H       
  68 H68            1.8680     4.4777    -1.5628 H       
@<TRIPOS>BOND
   1    1    2 ar
   2    1    6 ar
   3    1   35 1
   4    2    3 ar
   5    2   27 1
   6    3    4 ar
   7    3   38 1
   8    4    5 ar
   9    4   39 1
  10    5    6 ar
  11    5    9 1
  12    6   33 1
  13    7    8 1
  14    7   10 1
  15    8    9 2
  16    8   13 1
  17    9   40 1
  18   10   11 1
  19   10   25 1
  20   10   26 1
  21   11   12 1
  22   11   41 1
  23   11   42 1
  24   12   13 1
  25   12   14 1
  26   13   16 2
  27   14   15 1
  28   14   17 1
  29   14   18 1
  30   15   16 1
  31   17   19 ar
  32   17   20 ar
  33   18   43 1
  34   18   44 1
  35   18   45 1
  36   19   23 ar
  37   19   46 1
  38   20   21 ar
  39   20   47 1
  40   21   22 ar
  41   21   48 1
  42   22   23 ar
  43   22   24 1
  44   23   49 1
  45   25   26 1
  46   25   50 1
  47   25   51 1
  48   26   52 1
  49   26   53 1
  50   27   28 1
  51   27   31 1
  52   28   29 2
  53   28   54 1
  54   29   30 1
  55   29   32 1
  56   30   31 2
  57   31   55 1
  58   32   56 1
  59   32   57 1
  60   32   58 1
  61   33   34 1
  62   33   36 1
  63   33   37 1
  64   34   35 1
  65   34   59 1
  66   34   60 1
  67   35   61 1
  68   35   62 1
  69   36   63 1
  70   36   64 1
  71   36   65 1
  72   37   66 1
  73   37   67 1
  74   37   68 1

#	End of record

