#	Name: ASD04910446
#	Creating user name:	WinNT
#	Creation time:	15. 06. 2019 20:55

#	Modifying user name:	WinNT
#	Modification time:	15. 06. 2019 20:55

#	Program:	/corina/corina34_cracker 3.40 0067  02.08.2006

@<TRIPOS>MOLECULE
ASD04910446
  65   68    0    0    0
SMALL
NO_CHARGES


@<TRIPOS>ATOM
   1 C1            -0.0184     1.5028     0.0103 C.2     
   2 C2             0.0021    -0.0041     0.0020 C.3     
   3 C3             1.4513    -0.4944    -0.0145 C.3     
   4 O4             1.0197     2.1211     0.0037 O.2     
   5 O5            -1.1898     2.1580     0.0194 O.3     
   6 C6             2.6473    -2.6171    -0.0373 C.2     
   7 C7             2.6674    -4.0954    -0.0454 C.ar    
   8 C8             3.8837    -4.7799    -0.0607 C.ar    
   9 C9             3.8954    -6.1594    -0.0677 C.ar    
  10 C10            2.7049    -6.8644    -0.0601 C.ar    
  11 C11            1.4958    -6.1920    -0.0450 C.ar    
  12 C12            1.4701    -4.8127    -0.0320 C.ar    
  13 O13            3.6916    -1.9951    -0.0439 O.2     
  14 N14            1.4712    -1.9592    -0.0225 N.am    
  15 C15            2.7254    -8.3712    -0.0689 C.3     
  16 C16            2.4957    -8.8926     1.3511 C.3     
  17 C17            2.6401   -10.4157     1.3646 C.3     
  18 C18            2.4104   -10.9372     2.7846 C.3     
  19 N19            1.6654    -8.8688    -0.9493 N.pl3   
  20 C20            2.8967   -10.9217    -1.2949 C.ar    
  21 C21            1.7812   -10.1320    -1.5383 C.ar    
  22 C22            0.7782   -10.6144    -2.3768 C.ar    
  23 C23            0.9352   -11.8698    -2.9370 C.ar    
  24 C24            2.0791   -12.6026    -2.6474 C.ar    
  25 N25            3.0118   -12.1136    -1.8467 N.ar    
  26 C26            1.4293   -14.4672    -4.1189 C.2     
  27 N27            1.9062   -15.6453    -4.4084 N.2     
  28 C28            3.0374   -15.8535    -3.7041 C.2     
  29 C29            3.2656   -14.7498    -2.9457 C.2     
  30 N30            2.2470   -13.8735    -3.2094 N.pl3   
  31 C31            3.8822   -17.0722    -3.7490 C.ar    
  32 C32            3.5299   -18.1373    -4.5758 C.ar    
  33 C33            4.3198   -19.2684    -4.6140 C.ar    
  34 C34            5.4589   -19.3462    -3.8332 C.ar    
  35 C35            5.8134   -18.2921    -3.0107 C.ar    
  36 C36            5.0341   -17.1538    -2.9689 C.ar    
  37 H37           -0.4983    -0.3791     0.8948 H       
  38 H38           -0.5153    -0.3696    -0.8850 H       
  39 H39            1.9516    -0.1193    -0.9073 H       
  40 H40            1.9686    -0.1289     0.8726 H       
  41 H41           -1.1523     3.1243     0.0245 H       
  42 H42            4.8137    -4.2307    -0.0674 H       
  43 H43            4.8359    -6.6902    -0.0796 H       
  44 H44            0.5700    -6.7482    -0.0391 H       
  45 H45            0.5257    -4.2891    -0.0157 H       
  46 H46            0.6378    -2.4556    -0.0172 H       
  47 H47            3.6924    -8.7193    -0.4318 H       
  48 H48            3.2317    -8.4519     2.0234 H       
  49 H49            1.4932    -8.6197     1.6806 H       
  50 H50            1.9040   -10.8565     0.6922 H       
  51 H51            3.6426   -10.6886     1.0351 H       
  52 H52            1.4079   -10.6643     3.1141 H       
  53 H53            2.5132   -12.0223     2.7942 H       
  54 H54            3.1464   -10.4964     3.4570 H       
  55 H55            0.8833    -8.3222    -1.1236 H       
  56 H56            3.6809   -10.5538    -0.6499 H       
  57 H57           -0.1011   -10.0225    -2.5841 H       
  58 H58            0.1775   -12.2751    -3.5912 H       
  59 H59            0.5335   -14.0320    -4.5366 H       
  60 H60            4.0902   -14.5941    -2.2659 H       
  61 H61            2.6403   -18.0778    -5.1853 H       
  62 H62            4.0477   -20.0944    -5.2543 H       
  63 H63            6.0738   -20.2336    -3.8656 H       
  64 H64            6.7039   -18.3582    -2.4032 H       
  65 H65            5.3141   -16.3295    -2.3297 H       
@<TRIPOS>BOND
   1    1    2 1
   2    1    4 2
   3    1    5 1
   4    2    3 1
   5    2   37 1
   6    2   38 1
   7    3   14 1
   8    3   39 1
   9    3   40 1
  10    5   41 1
  11    6    7 1
  12    6   13 2
  13    6   14 am
  14    7    8 ar
  15    7   12 ar
  16    8    9 ar
  17    8   42 1
  18    9   10 ar
  19    9   43 1
  20   10   11 ar
  21   10   15 1
  22   11   12 ar
  23   11   44 1
  24   12   45 1
  25   14   46 1
  26   15   16 1
  27   15   19 1
  28   15   47 1
  29   16   17 1
  30   16   48 1
  31   16   49 1
  32   17   18 1
  33   17   50 1
  34   17   51 1
  35   18   52 1
  36   18   53 1
  37   18   54 1
  38   19   21 1
  39   19   55 1
  40   20   21 ar
  41   20   25 ar
  42   20   56 1
  43   21   22 ar
  44   22   23 ar
  45   22   57 1
  46   23   24 ar
  47   23   58 1
  48   24   25 ar
  49   24   30 1
  50   26   27 2
  51   26   30 1
  52   26   59 1
  53   27   28 1
  54   28   29 2
  55   28   31 1
  56   29   30 1
  57   29   60 1
  58   31   32 ar
  59   31   36 ar
  60   32   33 ar
  61   32   61 1
  62   33   34 ar
  63   33   62 1
  64   34   35 ar
  65   34   63 1
  66   35   36 ar
  67   35   64 1
  68   36   65 1

#	End of record

