#	Name: ASD03090243
#	Creating user name:	WinNT
#	Creation time:	15. 06. 2019 20:28

#	Modifying user name:	WinNT
#	Modification time:	15. 06. 2019 20:28

#	Program:	/corina/corina34_cracker 3.40 0067  02.08.2006

@<TRIPOS>MOLECULE
ASD03090243
  47   49    0    0    0
SMALL
NO_CHARGES


@<TRIPOS>ATOM
   1 N1             0.2266     1.3187     1.8543 N.ar    
   2 C2             0.2335     0.0134     1.6299 C.ar    
   3 C3             1.3712    -0.6167     1.1420 C.ar    
   4 C4             2.5117     0.1484     0.8905 C.ar    
   5 C5             2.4555     1.5248     1.1435 C.ar    
   6 C6             1.2865     2.0718     1.6277 C.ar    
   7 C7             3.7477    -0.4787     0.3708 C.2     
   8 N8             5.5640    -3.0660    -1.1658 N.pl3   
   9 C9             4.6668    -4.0852    -1.5016 C.ar    
  10 C10            3.3571    -3.7742    -1.8429 C.ar    
  11 C11            2.4730    -4.7823    -2.1746 C.ar    
  12 C12            2.8916    -6.1020    -2.1669 C.ar    
  13 C13            4.1973    -6.4145    -1.8269 C.ar    
  14 C14            5.0861    -5.4095    -1.4997 C.ar    
  15 N15            3.8357    -1.6652    -0.1958 N.2     
  16 C16            5.1009    -1.9058    -0.5423 C.2     
  17 N17            5.8414    -0.8756    -0.2019 N.2     
  18 N18            4.9841     0.0671     0.3883 N.pl3   
  19 C19            5.3572     1.3784     0.9245 C.3     
  20 C20            6.8810     1.5152     0.9229 C.3     
  21 F21            2.0251    -7.0864    -2.4913 F       
  22 C22            7.2732     2.8572     1.5444 C.3     
  23 O23            7.3635     1.4534    -0.4207 O.3     
  24 N24           -0.9104    -0.7344     1.8860 N.pl3   
  25 C25           -0.9115    -2.1787     1.6407 C.3     
  26 C26            4.6500    -7.8519    -1.8195 C.3     
  27 F27            5.9971    -7.9146    -1.4471 F       
  28 F28            3.8793    -8.5788    -0.9059 F       
  29 F29            4.4940    -8.3965    -3.0986 F       
  30 H30            1.3736    -1.6813     0.9605 H       
  31 H31            3.3174     2.1497     0.9617 H       
  32 H32            1.2373     3.1325     1.8246 H       
  33 H33            6.5078    -3.1652    -1.3662 H       
  34 H34            3.0300    -2.7450    -1.8486 H       
  35 H35            1.4542    -4.5410    -2.4397 H       
  36 H36            6.1042    -5.6536    -1.2346 H       
  37 H37            4.9214     2.1618     0.3044 H       
  38 H38            4.9849     1.4732     1.9445 H       
  39 H39            7.3193     0.7038     1.5040 H       
  40 H40            6.9052     2.9043     2.5693 H       
  41 H41            8.3589     2.9546     1.5433 H       
  42 H42            6.8350     3.6686     0.9634 H       
  43 H43            6.9582     2.1004    -1.0143 H       
  44 H44           -1.7077    -0.2998     2.2271 H       
  45 H45           -1.8876    -2.5902     1.8977 H       
  46 H46           -0.7030    -2.3686     0.5878 H       
  47 H47           -0.1447    -2.6520     2.2540 H       
@<TRIPOS>BOND
   1    1    2 ar
   2    1    6 ar
   3    2    3 ar
   4    2   24 1
   5    3    4 ar
   6    3   30 1
   7    4    5 ar
   8    4    7 1
   9    5    6 ar
  10    5   31 1
  11    6   32 1
  12    7   15 2
  13    7   18 1
  14    8    9 1
  15    8   16 1
  16    8   33 1
  17    9   10 ar
  18    9   14 ar
  19   10   11 ar
  20   10   34 1
  21   11   12 ar
  22   11   35 1
  23   12   13 ar
  24   12   21 1
  25   13   14 ar
  26   13   26 1
  27   14   36 1
  28   15   16 1
  29   16   17 2
  30   17   18 1
  31   18   19 1
  32   19   20 1
  33   19   37 1
  34   19   38 1
  35   20   22 1
  36   20   23 1
  37   20   39 1
  38   22   40 1
  39   22   41 1
  40   22   42 1
  41   23   43 1
  42   24   25 1
  43   24   44 1
  44   25   45 1
  45   25   46 1
  46   25   47 1
  47   26   27 1
  48   26   28 1
  49   26   29 1

#	End of record

