#	Name: ASD02039382
#	Creating user name:	WinNT
#	Creation time:	15. 06. 2019 20:18

#	Modifying user name:	WinNT
#	Modification time:	15. 06. 2019 20:18

#	Program:	/corina/corina34_cracker 3.40 0067  02.08.2006

@<TRIPOS>MOLECULE
ASD02039382
  53   55    0    0    0
SMALL
NO_CHARGES


@<TRIPOS>ATOM
   1 C1            -1.1381     1.1439    -2.7545 C.ar    
   2 C2            -1.1686     0.0971    -3.6647 C.ar    
   3 C3            -2.2247     0.0006    -4.5521 C.ar    
   4 C4            -3.2122     1.8974    -3.6826 C.ar    
   5 C5            -2.1771     2.0585    -2.7642 C.ar    
   6 C6            -4.3325     2.8690    -3.7062 C.ar    
   7 C7            -0.0024     1.2786    -1.7731 C.3     
   8 N8             1.0984     2.0158    -2.3983 N.am    
   9 C9             1.0941     3.4808    -2.3950 C.3     
  10 C10            2.1152     1.3463    -2.9766 C.2     
  11 C11            2.0713    -0.1234    -3.0691 C.2     
  12 C12            2.9672    -0.9174    -3.7232 C.2     
  13 N13            1.1350    -0.9348    -2.5139 N.2     
  14 C14            1.4220    -2.1703    -2.8063 C.2     
  15 N15            2.5541    -2.1958    -3.5567 N.pl3   
  16 O16            3.0690     1.9554    -3.4221 O.2     
  17 C17            3.2098    -3.3921    -4.0907 C.3     
  18 C18           -5.3721     2.7151    -4.6218 C.ar    
  19 N19           -3.1984     0.8880    -4.5439 N.ar    
  20 C20           -4.3518     3.9354    -2.8089 C.ar    
  21 C21           -5.3961     4.8366    -2.8340 C.ar    
  22 C22           -6.4248     4.6827    -3.7495 C.ar    
  23 C23           -6.4124     3.6210    -4.6399 C.ar    
  24 C24            2.2713     3.9924    -1.5624 C.3     
  25 C25            1.2232     3.9944    -3.8304 C.3     
  26 F26           -7.4457     5.5672    -3.7704 F       
  27 C27           -0.0256     3.6071    -4.6250 C.3     
  28 C28            2.0685     3.6002    -0.0975 C.3     
  29 H29           -0.3750    -0.6352    -3.6801 H       
  30 H30           -2.2515    -0.8130    -5.2619 H       
  31 H31           -2.1896     2.8805    -2.0638 H       
  32 H32           -0.3465     1.8185    -0.8910 H       
  33 H33            0.3441     0.2875    -1.4802 H       
  34 H34            0.1601     3.8403    -1.9631 H       
  35 H35            3.8390    -0.5890    -4.2696 H       
  36 H36            0.8535    -3.0357    -2.4993 H       
  37 H37            2.8069    -3.6171    -5.0782 H       
  38 H38            4.2825    -3.2146    -4.1678 H       
  39 H39            3.0279    -4.2346    -3.4235 H       
  40 H40           -5.3630     1.8881    -5.3164 H       
  41 H41           -3.5506     4.0559    -2.0948 H       
  42 H42           -5.4120     5.6630    -2.1389 H       
  43 H43           -7.2162     3.5049    -5.3518 H       
  44 H44            3.1968     3.5508    -1.9319 H       
  45 H45            2.3290     5.0779    -1.6432 H       
  46 H46            1.3253     5.0796    -3.8202 H       
  47 H47            2.1028     3.5512    -4.2972 H       
  48 H48           -0.1276     2.5220    -4.6352 H       
  49 H49           -0.9052     4.0504    -4.1582 H       
  50 H50            0.0664     3.9731    -5.6476 H       
  51 H51            2.9071     3.9647     0.4957 H       
  52 H52            1.1430     4.0418     0.2721 H       
  53 H53            2.0108     2.5147    -0.0166 H       
@<TRIPOS>BOND
   1    1    2 ar
   2    1    7 1
   3    1    5 ar
   4    2    3 ar
   5    2   29 1
   6    3   19 ar
   7    3   30 1
   8    4    5 ar
   9    4    6 1
  10    4   19 ar
  11    5   31 1
  12    6   18 ar
  13    6   20 ar
  14    7    8 1
  15    7   32 1
  16    7   33 1
  17    8    9 1
  18    8   10 am
  19    9   24 1
  20    9   25 1
  21    9   34 1
  22   10   11 1
  23   10   16 2
  24   11   12 2
  25   11   13 1
  26   12   15 1
  27   12   35 1
  28   13   14 2
  29   14   15 1
  30   14   36 1
  31   15   17 1
  32   17   37 1
  33   17   38 1
  34   17   39 1
  35   18   23 ar
  36   18   40 1
  37   20   21 ar
  38   20   41 1
  39   21   22 ar
  40   21   42 1
  41   22   23 ar
  42   22   26 1
  43   23   43 1
  44   24   28 1
  45   24   44 1
  46   24   45 1
  47   25   27 1
  48   25   46 1
  49   25   47 1
  50   27   48 1
  51   27   49 1
  52   27   50 1
  53   28   51 1
  54   28   52 1
  55   28   53 1

#	End of record

