#	Name: ASD01028678
#	Creating user name:	WinNT
#	Creation time:	15. 06. 2019 18:57

#	Modifying user name:	WinNT
#	Modification time:	15. 06. 2019 18:57

#	Program:	/corina/corina34_cracker 3.40 0067  02.08.2006

@<TRIPOS>MOLECULE
ASD01028678
  24   24    0    0    0
SMALL
NO_CHARGES


@<TRIPOS>ATOM
   1 C1            -0.0143     1.2036     0.0087 C.2     
   2 O2             0.0021    -0.0041     0.0020 O.2     
   3 C3             1.2804     1.9748     0.0004 C.3     
   4 N4             5.3373    -1.1993    -2.2501 N.ar    
   5 C5             5.5782    -1.1732    -3.5383 C.ar    
   6 C6             4.8469    -0.3633    -4.4048 C.ar    
   7 C7             3.8485     0.4304    -3.9163 C.ar    
   8 C8             3.5923     0.3994    -2.5324 C.ar    
   9 C9             2.5824     1.1874    -1.9580 C.ar    
  10 C10            2.3651     1.1287    -0.6150 C.ar    
  11 C11            3.1327     0.2973     0.1977 C.ar    
  12 C12            4.1201    -0.4796    -0.3257 C.ar    
  13 C13            4.3744    -0.4471    -1.7078 C.ar    
  14 F14            1.1210     3.1457    -0.7483 F       
  15 F15            1.6348     2.3051     1.3129 F       
  16 Cl16          -1.5293     2.0510     0.0205 Cl      
  17 H17            6.3648    -1.7956    -3.9387 H       
  18 H18            5.0695    -0.3630    -5.4616 H       
  19 H19            3.2719     1.0645    -4.5735 H       
  20 H20            1.9810     1.8361    -2.5776 H       
  21 H21            2.9414     0.2691     1.2603 H       
  22 H22            4.7062    -1.1183     0.3184 H       
  23 Cl23          11.3648     8.1457     6.3129 Cl      
  24 H24           11.3648     9.5157     6.3129 H       
@<TRIPOS>BOND
   1    1    2 2
   2    1    3 1
   3    1   16 1
   4    3   10 1
   5    3   14 1
   6    3   15 1
   7    4    5 ar
   8    4   13 ar
   9    5    6 ar
  10    5   17 1
  11    6    7 ar
  12    6   18 1
  13    7    8 ar
  14    7   19 1
  15    8    9 ar
  16    8   13 ar
  17    9   10 ar
  18    9   20 1
  19   10   11 ar
  20   11   12 ar
  21   11   21 1
  22   12   13 ar
  23   12   22 1
  24   23   24 1

#	End of record

