#	Name: ASD05740120
#	Creating user name:	WinNT
#	Creation time:	15. 06. 2019 21:02

#	Modifying user name:	WinNT
#	Modification time:	15. 06. 2019 21:02

#	Program:	/corina/corina34_cracker 3.40 0067  02.08.2006

@<TRIPOS>MOLECULE
ASD05740120
  48   51    0    0    0
SMALL
NO_CHARGES


@<TRIPOS>ATOM
   1 C1            -0.0184     1.5028     0.0103 C.3     
   2 C2             1.2820    -0.7399    -0.0142 C.2     
   3 C3             1.2323    -2.1974    -0.0208 C.2     
   4 C4             0.0021    -0.0041     0.0020 C.2     
   5 C5            -1.1528    -0.7105     0.0097 C.2     
   6 C6            -1.1312    -2.1174     0.0029 C.2     
   7 O7             0.0103    -2.8151    -0.0105 O.3     
   8 C8            -2.4729     0.0162     0.0262 C.3     
   9 C9            -2.9865     0.1571    -1.3836 C.ar    
  10 C10           -2.7424     1.3116    -2.1164 C.ar    
  11 O11           -2.1888    -2.7212     0.0105 O.2     
  12 C12           -4.1649    -0.6956    -3.2852 C.ar    
  13 N13           -3.9153     0.4228    -3.9472 N.ar    
  14 C14           -3.2259     1.4094    -3.4051 C.ar    
  15 N15           -4.8954    -1.7103    -3.8959 N.am    
  16 S16           -5.4485    -1.5154    -5.4446 S.o2    
  17 O17           -6.1165    -2.7220    -5.7868 O.2     
  18 O18           -6.0748    -0.2407    -5.4896 O.2     
  19 C19            2.4587    -2.7504    -0.0360 C.2     
  20 S20            3.7040    -1.5185    -0.0426 S.3     
  21 C21            2.5639    -0.2564    -0.0301 C.2     
  22 O22            2.6998    -4.0890    -0.0446 O.3     
  23 C23            3.9892    -4.5027    -0.0598 C.ar    
  24 N24            4.2509    -5.8001    -0.0685 N.ar    
  25 N25            4.9569    -3.5998    -0.0711 N.ar    
  26 C26            6.2270    -3.9696    -0.0861 C.ar    
  27 C27            6.5375    -5.3204    -0.0899 C.ar    
  28 C28            5.4990    -6.2384    -0.0834 C.ar    
  29 C29           -3.7073    -0.8634    -1.9798 C.ar    
  30 F30           -3.9631    -2.0059    -1.3057 F       
  31 N31           -4.1216    -1.4197    -6.4306 N.am    
  32 C32           -3.2332    -2.5753    -6.5775 C.3     
  33 H33            1.0042     1.8801     0.0026 H       
  34 H34           -0.5455     1.8639    -0.8728 H       
  35 H35           -0.5286     1.8543     0.9071 H       
  36 H36           -3.1914    -0.5490     0.6198 H       
  37 H37           -2.3378     1.0052     0.4642 H       
  38 H38           -2.1800     2.1247    -1.6818 H       
  39 H39           -3.0380     2.3055    -3.9779 H       
  40 H40           -5.0807    -2.5317    -3.4144 H       
  41 H41            2.8182     0.7932    -0.0296 H       
  42 H42            7.0121    -3.2281    -0.0956 H       
  43 H43            7.5658    -5.6503    -0.1020 H       
  44 H44            5.7062    -7.2983    -0.0861 H       
  45 H45           -3.9325    -0.5984    -6.9109 H       
  46 H46           -2.4217    -2.3252    -7.2610 H       
  47 H47           -2.8197    -2.8417    -5.6047 H       
  48 H48           -3.7970    -3.4187    -6.9760 H       
@<TRIPOS>BOND
   1    1    4 1
   2    1   33 1
   3    1   34 1
   4    1   35 1
   5    2    3 1
   6    2    4 1
   7    2   21 2
   8    3   19 2
   9    3    7 1
  10    4    5 2
  11    5    6 1
  12    5    8 1
  13    6    7 1
  14    6   11 2
  15    8    9 1
  16    8   36 1
  17    8   37 1
  18    9   10 ar
  19    9   29 ar
  20   10   14 ar
  21   10   38 1
  22   12   13 ar
  23   12   15 1
  24   12   29 ar
  25   13   14 ar
  26   14   39 1
  27   15   16 am
  28   15   40 1
  29   16   17 2
  30   16   18 2
  31   16   31 am
  32   19   20 1
  33   19   22 1
  34   20   21 1
  35   21   41 1
  36   22   23 1
  37   23   24 ar
  38   23   25 ar
  39   24   28 ar
  40   25   26 ar
  41   26   27 ar
  42   26   42 1
  43   27   28 ar
  44   27   43 1
  45   28   44 1
  46   29   30 1
  47   31   32 1
  48   31   45 1
  49   32   46 1
  50   32   47 1
  51   32   48 1

#	End of record

