#	Name: ASD01911138
#	Creating user name:	WinNT
#	Creation time:	15. 06. 2019 19:57

#	Modifying user name:	WinNT
#	Modification time:	15. 06. 2019 19:57

#	Program:	/corina/corina34_cracker 3.40 0067  02.08.2006

@<TRIPOS>MOLECULE
ASD01911138
  37   38    0    0    0
SMALL
NO_CHARGES


@<TRIPOS>ATOM
   1 C1            -0.1802     0.9850     0.0982 C.ar    
   2 C2             0.8980     1.7688    -0.2686 C.ar    
   3 C3             2.1675     1.2253    -0.3095 C.ar    
   4 C4             2.3605    -0.1100     0.0183 C.ar    
   5 C5             1.2744    -0.8959     0.3868 C.ar    
   6 C6             0.0076    -0.3457     0.4254 C.ar    
   7 Cl7            1.5096    -2.5663     0.7971 Cl      
   8 N8             3.6433    -0.6629    -0.0225 N.am    
   9 C9             4.1680    -1.2042    -1.2787 C.3     
  10 S10            4.5703    -0.7062     1.3490 S.o2    
  11 C11            4.1575    -2.2932     2.1245 C.3     
  12 O12            5.9074    -0.7190     0.8680 O.2     
  13 O13            4.0847     0.3739     2.1344 O.2     
  14 C14            4.8156    -0.0978    -2.0708 C.2     
  15 N15            5.4305    -0.3752    -3.2376 N.am    
  16 O16            4.7835     1.0423    -1.6583 O.2     
  17 C17            6.1226     0.6312    -3.9203 C.ar    
  18 C18            6.7788     1.6283    -3.2108 C.ar    
  19 C19            7.4614     2.6208    -3.8871 C.ar    
  20 C20            7.4921     2.6225    -5.2691 C.ar    
  21 C21            6.8391     1.6302    -5.9798 C.ar    
  22 C22            6.1594     0.6315    -5.3085 C.ar    
  23 Cl23           6.8801     1.6362    -7.7153 Cl      
  24 H24           -1.1707     1.4138     0.1336 H       
  25 H25            0.7476     2.8074    -0.5238 H       
  26 H26            3.0090     1.8384    -0.5965 H       
  27 H27           -0.8368    -0.9553     0.7115 H       
  28 H28            4.9066    -1.9758    -1.0614 H       
  29 H29            3.3514    -1.6356    -1.8576 H       
  30 H30            4.2622    -3.0936     1.3920 H       
  31 H31            4.8325    -2.4755     2.9607 H       
  32 H32            3.1299    -2.2643     2.4866 H       
  33 H33            5.3931    -1.2725    -3.6042 H       
  34 H34            6.7552     1.6281    -2.1311 H       
  35 H35            7.9715     3.3965    -3.3353 H       
  36 H36            8.0262     3.3998    -5.7954 H       
  37 H37            5.6499    -0.1427    -5.8630 H       
@<TRIPOS>BOND
   1    1    2 ar
   2    1    6 ar
   3    1   24 1
   4    2    3 ar
   5    2   25 1
   6    3    4 ar
   7    3   26 1
   8    4    5 ar
   9    4    8 1
  10    5    6 ar
  11    5    7 1
  12    6   27 1
  13    8    9 1
  14    8   10 am
  15    9   14 1
  16    9   28 1
  17    9   29 1
  18   10   11 1
  19   10   12 2
  20   10   13 2
  21   11   30 1
  22   11   31 1
  23   11   32 1
  24   14   15 am
  25   14   16 2
  26   15   17 1
  27   15   33 1
  28   17   18 ar
  29   17   22 ar
  30   18   19 ar
  31   18   34 1
  32   19   20 ar
  33   19   35 1
  34   20   21 ar
  35   20   36 1
  36   21   22 ar
  37   21   23 1
  38   22   37 1

#	End of record

