#	Name: ASD01150455
#	Creating user name:	WinNT
#	Creation time:	15. 06. 2019 19:04

#	Modifying user name:	WinNT
#	Modification time:	15. 06. 2019 19:04

#	Program:	/corina/corina34_cracker 3.40 0067  02.08.2006

@<TRIPOS>MOLECULE
ASD01150455
  53   55    0    0    0
SMALL
NO_CHARGES


@<TRIPOS>ATOM
   1 C1             1.7503     1.2237     1.6773 C.ar    
   2 C2             1.6555    -0.1410     1.8683 C.ar    
   3 C3             0.3234    -0.3308    -0.1199 C.ar    
   4 C4             0.4161     1.0399    -0.3145 C.ar    
   5 C5             1.1306     1.8186     0.5848 C.ar    
   6 N6             1.2266     3.2011     0.3922 N.am    
   7 C7             0.1121     3.9171     0.1614 C.2     
   8 N8             0.1676     5.2486    -0.0277 N.am    
   9 C9             1.3551     5.8879     0.0124 C.2     
  10 C10            2.5779     5.1105     0.2644 C.2     
  11 N11            2.4809     3.8201     0.4483 N.2     
  12 O12            1.4137     7.0914    -0.1581 O.2     
  13 C13           -1.0622     6.0043    -0.2779 C.3     
  14 O14           -0.9642     3.3521     0.1226 O.2     
  15 C15           -1.6421     6.4685     1.0334 C.ar    
  16 C16           -1.2702     7.6930     1.5572 C.ar    
  17 C17           -1.7996     8.1215     2.7586 C.ar    
  18 C18           -2.7068     7.3208     3.4409 C.ar    
  19 C19           -3.0782     6.0912     2.9119 C.ar    
  20 C20           -2.5492     5.6714     1.7072 C.ar    
  21 O21            3.7887     5.7248     0.3103 O.3     
  22 C22            4.9268     4.8975     0.5602 C.3     
  23 C23            0.9447    -0.9191     0.9744 C.ar    
  24 N24           -0.3957    -1.1196    -1.0247 N.am    
  25 C25            0.0333    -2.3614    -1.3253 C.2     
  26 C26           -0.6848    -3.1741    -2.3716 C.3     
  27 O27            0.9975    -2.8248    -0.7537 O.2     
  28 N28           -3.2438     7.7508     4.6565 N.pl3   
  29 C29           -2.7539     8.9833     5.2786 C.3     
  30 C30           -4.2971     6.9693     5.3093 C.3     
  31 H31            2.3028     1.8296     2.3801 H       
  32 H32            2.1383    -0.6010     2.7178 H       
  33 H33           -0.0664     1.4997    -1.1643 H       
  34 H34           -0.8368     6.8691    -0.9019 H       
  35 H35           -1.7834     5.3660    -0.7884 H       
  36 H36           -0.5646     8.3149     1.0263 H       
  37 H37           -1.5084     9.0778     3.1673 H       
  38 H38           -3.7833     5.4663     3.4399 H       
  39 H39           -2.8378     4.7157     1.2952 H       
  40 H40            5.0093     4.1461    -0.2251 H       
  41 H41            5.8272     5.5118     0.5712 H       
  42 H42            4.8122     4.4036     1.5251 H       
  43 H43            0.8726    -1.9859     1.1265 H       
  44 H44           -1.2030    -0.7727    -1.4356 H       
  45 H45           -0.6545    -2.6469    -3.3252 H       
  46 H46           -0.1975    -4.1434    -2.4766 H       
  47 H47           -1.7221    -3.3197    -2.0699 H       
  48 H48           -2.0442     9.4705     4.6100 H       
  49 H49           -3.5928     9.6529     5.4683 H       
  50 H50           -2.2602     8.7436     6.2203 H       
  51 H51           -3.8446     6.2363     5.9772 H       
  52 H52           -4.9409     7.6355     5.8835 H       
  53 H53           -4.8894     6.4546     4.5527 H       
@<TRIPOS>BOND
   1    1    2 ar
   2    1    5 ar
   3    1   31 1
   4    2   23 ar
   5    2   32 1
   6    3    4 ar
   7    3   24 1
   8    3   23 ar
   9    4    5 ar
  10    4   33 1
  11    5    6 1
  12    6    7 am
  13    6   11 1
  14    7    8 am
  15    7   14 2
  16    8    9 am
  17    8   13 1
  18    9   10 1
  19    9   12 2
  20   10   11 2
  21   10   21 1
  22   13   15 1
  23   13   34 1
  24   13   35 1
  25   15   16 ar
  26   15   20 ar
  27   16   17 ar
  28   16   36 1
  29   17   18 ar
  30   17   37 1
  31   18   19 ar
  32   18   28 1
  33   19   20 ar
  34   19   38 1
  35   20   39 1
  36   21   22 1
  37   22   40 1
  38   22   41 1
  39   22   42 1
  40   23   43 1
  41   24   25 am
  42   24   44 1
  43   25   26 1
  44   25   27 2
  45   26   45 1
  46   26   46 1
  47   26   47 1
  48   28   29 1
  49   28   30 1
  50   29   48 1
  51   29   49 1
  52   29   50 1
  53   30   51 1
  54   30   52 1
  55   30   53 1

#	End of record

