#	Name: ASD05730127
#	Creating user name:	WinNT
#	Creation time:	15. 06. 2019 21:02

#	Modifying user name:	WinNT
#	Modification time:	15. 06. 2019 21:02

#	Program:	/corina/corina34_cracker 3.40 0067  02.08.2006

@<TRIPOS>MOLECULE
ASD05730127
  73   78    0    0    0
SMALL
NO_CHARGES


@<TRIPOS>ATOM
   1 N1             0.5099     1.3646     0.2223 N.3     
   2 C2             0.4666    -0.0354     0.1894 C.ar    
   3 C3            -0.6079    -0.7098     0.7515 C.ar    
   4 C4            -0.6506    -2.0904     0.7197 C.ar    
   5 C5             0.3809    -2.8041     0.1249 C.ar    
   6 C6             1.4571    -2.1304    -0.4387 C.ar    
   7 C7             1.4979    -0.7493    -0.4119 C.ar    
   8 N8             0.3368    -4.2036     0.0935 N.pl3   
   9 C9            -0.2190    -4.9009     1.1483 C.ar    
  10 N10           -0.3510    -6.2146     1.0456 N.ar    
  11 C11           -0.8805    -6.9193     2.0392 C.ar    
  12 C12           -1.2986    -6.2403     3.2043 C.ar    
  13 C13           -1.1373    -4.8479     3.2641 C.ar    
  14 N14           -0.5966    -4.2297     2.2310 N.ar    
  15 N15           -1.0214    -8.2805     1.9412 N.am    
  16 C16           -1.5595    -8.9901     2.9517 C.2     
  17 C17           -2.0038    -8.3168     4.1738 C.2     
  18 C18           -1.8659    -6.9588     4.2813 C.2     
  19 C19           -0.5827    -8.9692     0.7248 C.3     
  20 O20           -1.6774   -10.1981     2.8484 O.2     
  21 C21           -2.5964    -9.0981     5.2846 C.ar    
  22 C22           -0.6461     1.9438    -0.4761 C.3     
  23 C23            0.6074    -9.8976     1.0432 C.3     
  24 C24           -3.8988    -9.5862     5.1800 C.ar    
  25 C25           -4.4457   -10.3130     6.2171 C.ar    
  26 C26           -3.7042   -10.5580     7.3607 C.ar    
  27 C27           -2.4112   -10.0755     7.4699 C.ar    
  28 C28           -1.8521    -9.3530     6.4358 C.ar    
  29 Cl29          -4.3987   -11.4729     8.6623 Cl      
  30 C30            0.5870     1.8568     1.6049 C.3     
  31 C31            0.7126     3.3821     1.5943 C.3     
  32 N32           -0.4434     3.9613     0.8959 N.3     
  33 C33           -0.5206     3.4692    -0.4867 C.3     
  34 F34            2.5439    -0.0933    -0.9602 F       
  35 C35           -1.7117    -9.8688     0.1921 C.3     
  36 C36           -1.1682   -11.3125     0.2054 C.3     
  37 C37           -0.0430   -11.2850     1.2694 C.3     
  38 C38           -0.6857     1.4250    -1.9149 C.3     
  39 S39           -0.2061    -8.7401     6.5762 S.o     
  40 C40            0.7792   -10.0259     5.7599 C.3     
  41 O41           -0.2289    -7.5740     5.7644 O.2     
  42 H42           -1.4108    -0.1554     1.2144 H       
  43 H43           -1.4869    -2.6147     1.1580 H       
  44 H44            2.2596    -2.6857    -0.9014 H       
  45 H45            0.6966    -4.6832    -0.6690 H       
  46 H46           -1.4456    -4.2941     4.1386 H       
  47 H47           -2.1875    -6.4441     5.1746 H       
  48 H48           -0.2964    -8.2407    -0.0337 H       
  49 H49           -1.5631     1.6576     0.0390 H       
  50 H50            1.2993    -9.9332     0.2017 H       
  51 H51            1.1200    -9.5649     1.9458 H       
  52 H52           -4.4782    -9.3951     4.2888 H       
  53 H53           -5.4540   -10.6914     6.1371 H       
  54 H54           -1.8375   -10.2688     8.3643 H       
  55 H55           -0.3159     1.5699     2.1439 H       
  56 H56            1.4578     1.4236     2.0970 H       
  57 H57            0.7408     3.7517     2.6193 H       
  58 H58            1.6295     3.6679     1.0789 H       
  59 H59           -1.2996     3.7723     1.3953 H       
  60 H60            0.3823     3.7560    -1.0257 H       
  61 H61           -1.3914     3.9023    -0.9788 H       
  62 H62           -2.5860    -9.7930     0.8386 H       
  63 H63           -1.9727    -9.5774    -0.8253 H       
  64 H64           -1.9516   -12.0123     0.4965 H       
  65 H65           -0.7632   -11.5766    -0.7715 H       
  66 H66            0.6774   -12.0832     1.0905 H       
  67 H67           -0.4595   -11.3572     2.2741 H       
  68 H68           -0.7732     0.3385    -1.9071 H       
  69 H69           -1.5432     1.8548    -2.4327 H       
  70 H70            0.2310     1.7120    -2.4300 H       
  71 H71            0.4570   -10.1275     4.7236 H       
  72 H72            1.8329    -9.7484     5.7873 H       
  73 H73            0.6397   -10.9745     6.2784 H       
@<TRIPOS>BOND
   1    1    2 1
   2    1   22 1
   3    1   30 1
   4    2    3 ar
   5    2    7 ar
   6    3    4 ar
   7    3   42 1
   8    4    5 ar
   9    4   43 1
  10    5    6 ar
  11    5    8 1
  12    6    7 ar
  13    6   44 1
  14    7   34 1
  15    8    9 1
  16    8   45 1
  17    9   10 ar
  18    9   14 ar
  19   10   11 ar
  20   11   12 ar
  21   11   15 1
  22   12   13 ar
  23   12   18 1
  24   13   14 ar
  25   13   46 1
  26   15   16 am
  27   15   19 1
  28   16   17 1
  29   16   20 2
  30   17   18 2
  31   17   21 1
  32   18   47 1
  33   19   35 1
  34   19   23 1
  35   19   48 1
  36   21   24 ar
  37   21   28 ar
  38   22   38 1
  39   22   33 1
  40   22   49 1
  41   23   37 1
  42   23   50 1
  43   23   51 1
  44   24   25 ar
  45   24   52 1
  46   25   26 ar
  47   25   53 1
  48   26   27 ar
  49   26   29 1
  50   27   28 ar
  51   27   54 1
  52   28   39 1
  53   30   31 1
  54   30   55 1
  55   30   56 1
  56   31   32 1
  57   31   57 1
  58   31   58 1
  59   32   33 1
  60   32   59 1
  61   33   60 1
  62   33   61 1
  63   35   36 1
  64   35   62 1
  65   35   63 1
  66   36   37 1
  67   36   64 1
  68   36   65 1
  69   37   66 1
  70   37   67 1
  71   38   68 1
  72   38   69 1
  73   38   70 1
  74   39   40 1
  75   39   41 2
  76   40   71 1
  77   40   72 1
  78   40   73 1

#	End of record

