#	Name: ASD03331541
#	Creating user name:	WinNT
#	Creation time:	15. 06. 2019 20:39

#	Modifying user name:	WinNT
#	Modification time:	15. 06. 2019 20:39

#	Program:	/corina/corina34_cracker 3.40 0067  02.08.2006

@<TRIPOS>MOLECULE
ASD03331541
  62   64    0    0    0
SMALL
NO_CHARGES


@<TRIPOS>ATOM
   1 C1            -0.5168     1.4324    -1.6645 C.3     
   2 C2            -0.4887    -0.0986    -1.7048 C.3     
   3 C3             0.8532     1.9526    -1.3128 C.2     
   4 N4             1.1532     2.7148    -0.2297 N.pl3   
   5 C5             2.4783     2.9860    -0.2754 C.2     
   6 C6             2.9766     2.3705    -1.3819 C.2     
   7 N7             1.9416     1.7393    -1.9956 N.2     
   8 C8             0.2172     3.1550     0.8093 C.3     
   9 C9             0.7146     4.4661     1.4219 C.3     
  10 C10            1.6392     4.1698     2.6018 C.3     
  11 C11            2.8626     3.3866     2.1356 C.3     
  12 C12            3.2387     3.8254     0.7169 C.3     
  13 C13            4.3803     2.3819    -1.8291 C.2     
  14 O14            5.2187     2.9838    -1.1856 O.2     
  15 N15            4.7354     1.7252    -2.9512 N.am    
  16 C16            6.1313     1.7365    -3.3958 C.3     
  17 C17            6.1864     1.5047    -4.8839 C.2     
  18 C18            6.2092    -0.7142    -2.9156 C.3     
  19 N19            7.2048     2.0106    -5.6074 N.am    
  20 O20            5.3143     0.8631    -5.4304 O.2     
  21 C21            6.9041     0.6280    -2.6781 C.3     
  22 C22            8.3322     0.5665    -3.2236 C.3     
  23 C23            6.9437     0.9234    -1.1774 C.3     
  24 C24            7.3182     1.6942    -7.0333 C.3     
  25 C25           -1.8627    -0.6152    -2.1393 C.3     
  26 O26           -2.1972    -0.0615    -3.4135 O.3     
  27 C27           -2.2846     1.3648    -3.4251 C.3     
  28 C28           -0.9275     1.9609    -3.0423 C.3     
  29 H29           -1.2361     1.7643    -0.9159 H       
  30 H30            0.2671    -0.4305    -2.4168 H       
  31 H31           -0.2511    -0.4848    -0.7136 H       
  32 H32           -0.7677     3.3104     0.3689 H       
  33 H33            0.1518     2.3930     1.5859 H       
  34 H34            1.2599     5.0341     0.6681 H       
  35 H35           -0.1380     5.0506     1.7677 H       
  36 H36            1.9621     5.1087     3.0514 H       
  37 H37            1.0984     3.5845     3.3455 H       
  38 H38            3.6970     3.5809     2.8094 H       
  39 H39            2.6343     2.3207     2.1378 H       
  40 H40            4.3094     3.6889     0.5650 H       
  41 H41            2.9807     4.8754     0.5797 H       
  42 H42            4.0668     1.2452    -3.4644 H       
  43 H43            6.5794     2.7021    -3.1616 H       
  44 H44            6.1810    -0.9246    -3.9847 H       
  45 H45            6.7597    -1.5039    -2.4043 H       
  46 H46            5.1918    -0.6704    -2.5269 H       
  47 H47            7.8626     2.5841    -5.1840 H       
  48 H48            8.8433     1.5054    -3.0105 H       
  49 H49            8.8678    -0.2549    -2.7479 H       
  50 H50            8.3029     0.4054    -4.3013 H       
  51 H51            5.9263     0.9672    -0.7888 H       
  52 H52            7.4942     0.1337    -0.6661 H       
  53 H53            7.4387     1.8796    -1.0082 H       
  54 H54            6.4265     2.0421    -7.5548 H       
  55 H55            8.1971     2.1892    -7.4465 H       
  56 H56            7.4156     0.6159    -7.1596 H       
  57 H57           -1.8362    -1.7025    -2.2111 H       
  58 H58           -2.6117    -0.3173    -1.4056 H       
  59 H59           -2.5621     1.7039    -4.4232 H       
  60 H60           -3.0392     1.6886    -2.7082 H       
  61 H61           -1.0038     3.0477    -3.0075 H       
  62 H62           -0.1807     1.6707    -3.7812 H       
@<TRIPOS>BOND
   1    1    2 1
   2    1    3 1
   3    1   28 1
   4    1   29 1
   5    2   25 1
   6    2   30 1
   7    2   31 1
   8    3    4 1
   9    3    7 2
  10    4    5 1
  11    4    8 1
  12    5    6 2
  13    5   12 1
  14    6    7 1
  15    6   13 1
  16    8    9 1
  17    8   32 1
  18    8   33 1
  19    9   10 1
  20    9   34 1
  21    9   35 1
  22   10   11 1
  23   10   36 1
  24   10   37 1
  25   11   12 1
  26   11   38 1
  27   11   39 1
  28   12   40 1
  29   12   41 1
  30   13   14 2
  31   13   15 am
  32   15   16 1
  33   15   42 1
  34   16   21 1
  35   16   17 1
  36   16   43 1
  37   17   19 am
  38   17   20 2
  39   18   21 1
  40   18   44 1
  41   18   45 1
  42   18   46 1
  43   19   24 1
  44   19   47 1
  45   21   22 1
  46   21   23 1
  47   22   48 1
  48   22   49 1
  49   22   50 1
  50   23   51 1
  51   23   52 1
  52   23   53 1
  53   24   54 1
  54   24   55 1
  55   24   56 1
  56   25   26 1
  57   25   57 1
  58   25   58 1
  59   26   27 1
  60   27   28 1
  61   27   59 1
  62   27   60 1
  63   28   61 1
  64   28   62 1

#	End of record

