#	Name: ASD01230744
#	Creating user name:	WinNT
#	Creation time:	15. 06. 2019 19:15

#	Modifying user name:	WinNT
#	Modification time:	15. 06. 2019 19:15

#	Program:	/corina/corina34_cracker 3.40 0067  02.08.2006

@<TRIPOS>MOLECULE
ASD01230744
  37   39    0    0    0
SMALL
NO_CHARGES


@<TRIPOS>ATOM
   1 C1            -0.0169     1.3981     0.0097 C.ar    
   2 C2             0.0021    -0.0041     0.0020 C.ar    
   3 C3             1.2324    -0.6605    -0.0132 C.ar    
   4 C4             2.3882     0.1054    -0.0201 C.ar    
   5 C5             2.2901     1.4830    -0.0118 C.ar    
   6 N6             1.1145     2.0833     0.0026 N.ar    
   7 N7            -1.2310     2.0713     0.0191 N.pl3   
   8 C8            -1.2643    -0.7756     0.0104 C.ar    
   9 C9            -1.4664    -1.7965    -0.9176 C.ar    
  10 C10           -2.6465    -2.5130    -0.9065 C.ar    
  11 C11           -3.6319    -2.2165     0.0285 C.ar    
  12 C12           -3.4321    -1.2011     0.9523 C.ar    
  13 C13           -2.2523    -0.4855     0.9496 C.ar    
  14 F14           -2.8440    -3.5025    -1.8049 F       
  15 O15           -4.7935    -2.9226     0.0372 O.3     
  16 C16           -5.7626    -2.5653     1.0247 C.3     
  17 C17           -6.9749    -3.4490     0.8817 C.ar    
  18 C18           -7.0464    -4.6420     1.5764 C.ar    
  19 C19           -8.1584    -5.4526     1.4452 C.ar    
  20 C20           -9.1990    -5.0701     0.6196 C.ar    
  21 C21           -9.1279    -3.8768    -0.0745 C.ar    
  22 C22           -8.0178    -3.0641     0.0601 C.ar    
  23 H23            1.2837    -1.7392    -0.0192 H       
  24 H24            3.3572    -0.3714    -0.0316 H       
  25 H25            3.1905     2.0794    -0.0172 H       
  26 H26           -2.0626     1.5719     0.0203 H       
  27 H27           -1.2478     3.0412     0.0245 H       
  28 H28           -0.7011    -2.0261    -1.6442 H       
  29 H29           -4.1994    -0.9731     1.6773 H       
  30 H30           -2.0963     0.3018     1.6722 H       
  31 H31           -5.3336    -2.6950     2.0183 H       
  32 H32           -6.0539    -1.5239     0.8878 H       
  33 H33           -6.2334    -4.9408     2.2215 H       
  34 H34           -8.2140    -6.3850     1.9874 H       
  35 H35          -10.0675    -5.7038     0.5165 H       
  36 H36           -9.9408    -3.5781    -0.7198 H       
  37 H37           -7.9638    -2.1299    -0.4793 H       
@<TRIPOS>BOND
   1    1    2 ar
   2    1    6 ar
   3    1    7 1
   4    2    3 ar
   5    2    8 1
   6    3    4 ar
   7    3   23 1
   8    4    5 ar
   9    4   24 1
  10    5    6 ar
  11    5   25 1
  12    7   26 1
  13    7   27 1
  14    8    9 ar
  15    8   13 ar
  16    9   10 ar
  17    9   28 1
  18   10   11 ar
  19   10   14 1
  20   11   12 ar
  21   11   15 1
  22   12   13 ar
  23   12   29 1
  24   13   30 1
  25   15   16 1
  26   16   17 1
  27   16   31 1
  28   16   32 1
  29   17   18 ar
  30   17   22 ar
  31   18   19 ar
  32   18   33 1
  33   19   20 ar
  34   19   34 1
  35   20   21 ar
  36   20   35 1
  37   21   22 ar
  38   21   36 1
  39   22   37 1

#	End of record

