#	Name: ASD03092915
#	Creating user name:	WinNT
#	Creation time:	15. 06. 2019 20:33

#	Modifying user name:	WinNT
#	Modification time:	15. 06. 2019 20:33

#	Program:	/corina/corina34_cracker 3.40 0067  02.08.2006

@<TRIPOS>MOLECULE
ASD03092915
  46   48    0    0    0
SMALL
NO_CHARGES


@<TRIPOS>ATOM
   1 C1             0.5888     0.0063     1.8403 C.3     
   2 C2            -0.0006    -0.0663     0.4552 C.2     
   3 O3             0.5165     0.5450    -0.4572 O.2     
   4 C4            -1.1952    -0.8729     0.2104 C.2     
   5 C5            -2.5341    -0.4082     0.1626 C.2     
   6 C6            -2.9917     1.0147     0.3552 C.3     
   7 C7            -3.3280    -1.4803    -0.0893 C.2     
   8 C8            -4.8002    -1.4475    -0.2216 C.ar    
   9 C9            -5.4259    -2.1392    -1.2599 C.ar    
  10 C10           -6.7998    -2.1049    -1.3782 C.ar    
  11 C11           -7.5580    -1.3859    -0.4696 C.ar    
  12 Cl12          -9.2866    -1.3473    -0.6250 Cl      
  13 C13           -6.9429    -0.6980     0.5629 C.ar    
  14 C14           -5.5702    -0.7292     0.6946 C.ar    
  15 N15           -2.5406    -2.6008    -0.2017 N.pl3   
  16 C16           -3.0259    -3.9564    -0.4718 C.3     
  17 C17           -1.2369    -2.2490    -0.0275 C.2     
  18 C18           -0.0766    -3.1585    -0.0773 C.ar    
  19 C19           -0.1249    -4.3939     0.5736 C.ar    
  20 C20            0.9630    -5.2405     0.5231 C.ar    
  21 C21            2.1013    -4.8697    -0.1700 C.ar    
  22 C22            2.1577    -3.6458    -0.8186 C.ar    
  23 F23            3.2730    -3.2910    -1.4934 F       
  24 C24            1.0735    -2.7909    -0.7805 C.ar    
  25 S25            3.4860    -5.9577    -0.2282 S.o2    
  26 N26            3.6780    -6.4229    -1.8059 N.am    
  27 O27            4.6254    -5.1750     0.1009 O.2     
  28 O28            3.1103    -7.1242     0.4912 O.2     
  29 H29            1.4935     0.6138     1.8188 H       
  30 H30           -0.1349     0.4562     2.5200 H       
  31 H31            0.8340    -0.9986     2.1839 H       
  32 H32           -3.0986     1.4967    -0.6166 H       
  33 H33           -3.9517     1.0209     0.8714 H       
  34 H34           -2.2558     1.5557     0.9501 H       
  35 H35           -4.8356    -2.7000    -1.9694 H       
  36 H36           -7.2851    -2.6395    -2.1814 H       
  37 H37           -7.5395    -0.1392     1.2688 H       
  38 H38           -5.0918    -0.1957     1.5027 H       
  39 H39           -3.0525    -4.1250    -1.5484 H       
  40 H40           -2.3574    -4.6810    -0.0070 H       
  41 H41           -4.0290    -4.0718    -0.0611 H       
  42 H42           -1.0124    -4.6854     1.1157 H       
  43 H43            0.9261    -6.1953     1.0264 H       
  44 H44            1.1161    -1.8392    -1.2893 H       
  45 H45            3.0732    -6.0892    -2.4869 H       
  46 H46            4.3952    -7.0290    -2.0490 H       
@<TRIPOS>BOND
   1    1    2 1
   2    1   29 1
   3    1   30 1
   4    1   31 1
   5    2    3 2
   6    2    4 1
   7    4   17 2
   8    4    5 1
   9    5    6 1
  10    5    7 2
  11    6   32 1
  12    6   33 1
  13    6   34 1
  14    7    8 1
  15    7   15 1
  16    8   14 ar
  17    8    9 ar
  18    9   10 ar
  19    9   35 1
  20   10   11 ar
  21   10   36 1
  22   11   12 1
  23   11   13 ar
  24   13   14 ar
  25   13   37 1
  26   14   38 1
  27   15   16 1
  28   15   17 1
  29   16   39 1
  30   16   40 1
  31   16   41 1
  32   17   18 1
  33   18   24 ar
  34   18   19 ar
  35   19   20 ar
  36   19   42 1
  37   20   21 ar
  38   20   43 1
  39   21   22 ar
  40   21   25 1
  41   22   23 1
  42   22   24 ar
  43   24   44 1
  44   25   26 am
  45   25   27 2
  46   25   28 2
  47   26   45 1
  48   26   46 1

#	End of record

