#	Name: ASD07932005
#	Creating user name:	WinNT
#	Creation time:	15. 06. 2019 21:14

#	Modifying user name:	WinNT
#	Modification time:	15. 06. 2019 21:14

#	Program:	/corina/corina34_cracker 3.40 0067  02.08.2006

@<TRIPOS>MOLECULE
ASD07932005
  20   21    0    0    0
SMALL
NO_CHARGES


@<TRIPOS>ATOM
   1 C1            -0.0160     1.3266     0.0093 C.ar    
   2 N2             0.0021    -0.0041     0.0020 N.ar    
   3 C3            -1.1317    -0.6786     0.0097 C.ar    
   4 C4            -2.3494     0.0030     0.0255 C.ar    
   5 N5            -2.3681     1.3360     0.0323 N.ar    
   6 C6            -1.2395     2.0098     0.0305 C.ar    
   7 C7            -3.6185    -0.7531     0.0340 C.2     
   8 O8            -3.6019    -1.9678     0.0273 O.2     
   9 O9            -4.7943    -0.0956     0.0492 O.3     
  10 C10            1.2543     2.0839     0.0013 C.2     
  11 C11            1.3066     3.4259     0.1071 C.2     
  12 C12            2.5037     1.4687    -0.1108 C.2     
  13 C13            3.5245     2.3223    -0.0985 C.2     
  14 S14            2.9246     3.9660     0.0624 S.3     
  15 H15           -1.1175    -1.7585     0.0034 H       
  16 H16           -1.2551     3.0897     0.0361 H       
  17 H17           -5.5980    -0.6333     0.0544 H       
  18 H18            0.4452     4.0697     0.2059 H       
  19 H19            2.6293     0.3996    -0.1988 H       
  20 H20            4.5659     2.0459    -0.1735 H       
@<TRIPOS>BOND
   1    1    2 ar
   2    1   10 1
   3    1    6 ar
   4    2    3 ar
   5    3    4 ar
   6    3   15 1
   7    4    5 ar
   8    4    7 1
   9    5    6 ar
  10    6   16 1
  11    7    8 2
  12    7    9 1
  13    9   17 1
  14   10   11 2
  15   10   12 1
  16   11   14 1
  17   11   18 1
  18   12   13 2
  19   12   19 1
  20   13   14 1
  21   13   20 1

#	End of record

