#	Name: ASD03240559
#	Creating user name:	WinNT
#	Creation time:	15. 06. 2019 20:35

#	Modifying user name:	WinNT
#	Modification time:	15. 06. 2019 20:35

#	Program:	/corina/corina34_cracker 3.40 0067  02.08.2006

@<TRIPOS>MOLECULE
ASD03240559
  69   75    0    0    0
SMALL
NO_CHARGES


@<TRIPOS>ATOM
   1 C1            -0.0166     1.3755     0.0096 C.ar    
   2 C2             0.0021    -0.0041     0.0020 C.ar    
   3 N3             1.1422    -0.6683    -0.0058 N.ar    
   4 C4             2.3145    -0.0481    -0.0058 C.ar    
   5 C5             2.3702     1.3442    -0.0124 C.ar    
   6 C6             1.1860     2.0698     0.0018 C.ar    
   7 N7             3.4820    -0.8058     0.0220 N.pl3   
   8 C8             4.3592    -0.7194     1.0997 C.ar    
   9 C9             4.9952     0.4890     1.4036 C.ar    
  10 C10            4.7637     1.6835     0.5620 C.2     
  11 N11            3.5939     2.0276    -0.0512 N.pl3   
  12 C12            4.6051    -1.8391     1.8830 C.ar    
  13 C13            5.4649    -1.7538     2.9614 C.ar    
  14 C14            6.0859    -0.5557     3.2701 C.ar    
  15 C15            5.8562     0.5653     2.4982 C.ar    
  16 N16            5.6751     2.5941     0.2849 N.2     
  17 C17            5.1447     3.5399    -0.5055 C.2     
  18 C18            3.8223     3.2039    -0.7365 C.2     
  19 C19            2.8492     3.9544    -1.5536 C.ar    
  20 C20            2.7501     5.3423    -1.4283 C.ar    
  21 C21            2.0267     3.2809    -2.4601 C.ar    
  22 C22            1.1195     3.9888    -3.2205 C.ar    
  23 C23            1.0228     5.3628    -3.0870 C.ar    
  24 C24            1.8383     6.0371    -2.1952 C.ar    
  25 C25            5.8485     4.7308    -1.0354 C.ar    
  26 C26            0.0290     6.1291    -3.9214 C.3     
  27 N27           -1.0498     5.2811    -4.4457 N.3     
  28 C28           -0.4721     7.4197    -3.2518 C.3     
  29 C29           -0.3861     8.0791    -4.6384 C.3     
  30 C30            0.6810     7.0257    -4.9872 C.3     
  31 C31            6.8181     5.3718    -0.2644 C.ar    
  32 C32            7.4705     6.4804    -0.7637 C.ar    
  33 C33            7.1644     6.9565    -2.0261 C.ar    
  34 C34            6.2036     6.3250    -2.7956 C.ar    
  35 C35            5.5484     5.2122    -2.3096 C.ar    
  36 C36            7.8801     8.1683    -2.5649 C.3     
  37 C37            9.1191     7.7327    -3.3039 C.2     
  38 O38            9.9186     8.6489    -3.8723 O.3     
  39 O39            9.3929     6.5586    -3.3846 O.2     
  40 C40           11.0946     8.1572    -4.5677 C.3     
  41 H41           -0.9556     1.9091     0.0170 H       
  42 H42           -0.9306    -0.5486     0.0028 H       
  43 H43            1.2002     3.1497     0.0068 H       
  44 H44            3.6863    -1.4002    -0.7168 H       
  45 H45            4.1238    -2.7773     1.6495 H       
  46 H46            5.6534    -2.6275     3.5676 H       
  47 H47            6.7523    -0.4979     4.1181 H       
  48 H48            6.3420     1.4988     2.7410 H       
  49 H49            3.3856     5.8698    -0.7325 H       
  50 H50            2.1014     2.2087    -2.5656 H       
  51 H51            0.4833     3.4696    -3.9219 H       
  52 H52            1.7574     7.1095    -2.0962 H       
  53 H53           -0.6768     4.4595    -4.8973 H       
  54 H54           -1.6989     5.0290    -3.7155 H       
  55 H55           -1.4888     7.3450    -2.8661 H       
  56 H56            0.2274     7.8353    -2.5265 H       
  57 H57           -1.3000     7.9837    -5.2247 H       
  58 H58           -0.0024     9.0991    -4.6137 H       
  59 H59            1.6963     7.3331    -4.7365 H       
  60 H60            0.5941     6.6352    -6.0011 H       
  61 H61            7.0574     5.0014     0.7214 H       
  62 H62            8.2215     6.9776    -0.1677 H       
  63 H63            5.9687     6.7016    -3.7801 H       
  64 H64            4.7985     4.7201    -2.9112 H       
  65 H65            7.2210     8.7064    -3.2463 H       
  66 H66            8.1606     8.8218    -1.7389 H       
  67 H67           11.6517     8.9987    -4.9793 H       
  68 H68           11.7272     7.6095    -3.8691 H       
  69 H69           10.7876     7.4941    -5.3765 H       
@<TRIPOS>BOND
   1    1    2 ar
   2    1    6 ar
   3    1   41 1
   4    2    3 ar
   5    2   42 1
   6    3    4 ar
   7    4    5 ar
   8    4    7 1
   9    5    6 ar
  10    5   11 1
  11    6   43 1
  12    7    8 1
  13    7   44 1
  14    8    9 ar
  15    8   12 ar
  16    9   10 1
  17    9   15 ar
  18   10   11 1
  19   10   16 2
  20   11   18 1
  21   12   13 ar
  22   12   45 1
  23   13   14 ar
  24   13   46 1
  25   14   15 ar
  26   14   47 1
  27   15   48 1
  28   16   17 1
  29   17   18 2
  30   17   25 1
  31   18   19 1
  32   19   20 ar
  33   19   21 ar
  34   20   24 ar
  35   20   49 1
  36   21   22 ar
  37   21   50 1
  38   22   23 ar
  39   22   51 1
  40   23   24 ar
  41   23   26 1
  42   24   52 1
  43   25   31 ar
  44   25   35 ar
  45   26   27 1
  46   26   28 1
  47   26   30 1
  48   27   53 1
  49   27   54 1
  50   28   29 1
  51   28   55 1
  52   28   56 1
  53   29   30 1
  54   29   57 1
  55   29   58 1
  56   30   59 1
  57   30   60 1
  58   31   32 ar
  59   31   61 1
  60   32   33 ar
  61   32   62 1
  62   33   34 ar
  63   33   36 1
  64   34   35 ar
  65   34   63 1
  66   35   64 1
  67   36   37 1
  68   36   65 1
  69   36   66 1
  70   37   38 1
  71   37   39 2
  72   38   40 1
  73   40   67 1
  74   40   68 1
  75   40   69 1

#	End of record

