#	Name: ASD01948348
#	Creating user name:	WinNT
#	Creation time:	15. 06. 2019 20:14

#	Modifying user name:	WinNT
#	Modification time:	15. 06. 2019 20:14

#	Program:	/corina/corina34_cracker 3.40 0067  02.08.2006

@<TRIPOS>MOLECULE
ASD01948348
  59   61    0    0    0
SMALL
NO_CHARGES


@<TRIPOS>ATOM
   1 C1             1.2208     1.2403     0.6237 C.2     
   2 N2             1.1515    -0.1207     0.5670 N.am    
   3 C3             2.2627    -0.8769     0.6305 C.2     
   4 C4             3.6039     1.1053     0.8148 C.2     
   5 C5             2.4137     1.8686     0.7455 C.2     
   6 C6             4.5328     2.7776    -1.2155 C.ar    
   7 C7             5.2730     2.6132    -0.0530 C.ar    
   8 N8             4.8337     1.7295     0.9390 N.pl3   
   9 C9             4.9691     3.6505    -2.1937 C.ar    
  10 C10            6.1428     4.3606    -2.0166 C.ar    
  11 C11            6.8841     4.2003    -0.8589 C.ar    
  12 C12            6.4531     3.3285     0.1237 C.ar    
  13 N13            2.4702     3.2708     0.8032 N.am    
  14 S14            1.0754     4.1597     0.7218 S.o2    
  15 C15            0.1782     3.7342     2.2399 C.3     
  16 O16            2.1738    -2.0944     0.5779 O.2     
  17 C17           -0.1550    -0.7703     0.4351 C.3     
  18 F18            7.1766     3.1719     1.2539 F       
  19 Br19           6.7359     5.5529    -3.3591 Br      
  20 O20            1.5171     5.5096     0.7653 O.2     
  21 O21            0.3988     3.6466    -0.4177 O.2     
  22 C22            3.5187    -0.2755     0.7559 C.2     
  23 C23           -1.1620     4.4297     2.4869 C.3     
  24 C24           -1.1283     2.9518     2.0926 C.3     
  25 C25            1.0512     3.4294     3.4589 C.3     
  26 C26            1.8062     4.6936     3.8743 C.3     
  27 O27            2.5296     4.4416     5.0807 O.3     
  28 O28           -0.3255    -1.2290    -0.9075 O.3     
  29 C29           -0.6943    -0.2020    -1.8301 C.3     
  30 C30           -0.2372    -0.5922    -3.2371 C.3     
  31 C31           -2.2142    -0.0271    -1.8179 C.3     
  32 C32            4.7647    -1.1201     0.8273 C.3     
  33 F33            4.9988    -1.4947     2.1547 F       
  34 F34            4.5972    -2.2657     0.0420 F       
  35 F35            5.8550    -0.3839     0.3514 F       
  36 H36            0.3138     1.8237     0.5664 H       
  37 H37            3.6186     2.2203    -1.3573 H       
  38 H38            5.3905     1.5542     1.7136 H       
  39 H39            4.3929     3.7783    -3.0982 H       
  40 H40            7.8002     4.7560    -0.7233 H       
  41 H41            3.3262     3.7185     0.8908 H       
  42 H42           -0.2100    -1.6178     1.1183 H       
  43 H43           -0.9419    -0.0563     0.6779 H       
  44 H44           -1.4220     4.6698     3.5179 H       
  45 H45           -1.5046     5.1429     1.7372 H       
  46 H46           -1.4488     2.6927     1.0835 H       
  47 H47           -1.3661     2.2195     2.8642 H       
  48 H48            0.4207     3.0954     4.2829 H       
  49 H49            1.7656     2.6456     3.2072 H       
  50 H50            2.5030     4.9765     3.0853 H       
  51 H51            1.0957     5.5036     4.0392 H       
  52 H52            3.0330     5.2015     5.4035 H       
  53 H53           -0.2184     0.7348    -1.5403 H       
  54 H54           -0.7130    -1.5291    -3.5270 H       
  55 H55           -0.5185     0.1911    -3.9409 H       
  56 H56            0.8457    -0.7168    -3.2459 H       
  57 H57           -2.5495     0.1665    -0.7989 H       
  58 H58           -2.4885     0.8126    -2.4564 H       
  59 H59           -2.6875    -0.9359    -2.1896 H       
@<TRIPOS>BOND
   1    1    2 1
   2    1    5 2
   3    1   36 1
   4    2    3 am
   5    2   17 1
   6    3   22 1
   7    3   16 2
   8    4    5 1
   9    4    8 1
  10    4   22 2
  11    5   13 1
  12    6    7 ar
  13    6    9 ar
  14    6   37 1
  15    7    8 1
  16    7   12 ar
  17    8   38 1
  18    9   10 ar
  19    9   39 1
  20   10   11 ar
  21   10   19 1
  22   11   12 ar
  23   11   40 1
  24   12   18 1
  25   13   14 am
  26   13   41 1
  27   14   15 1
  28   14   20 2
  29   14   21 2
  30   15   23 1
  31   15   25 1
  32   15   24 1
  33   17   28 1
  34   17   42 1
  35   17   43 1
  36   22   32 1
  37   23   24 1
  38   23   44 1
  39   23   45 1
  40   24   46 1
  41   24   47 1
  42   25   26 1
  43   25   48 1
  44   25   49 1
  45   26   27 1
  46   26   50 1
  47   26   51 1
  48   27   52 1
  49   28   29 1
  50   29   30 1
  51   29   31 1
  52   29   53 1
  53   30   54 1
  54   30   55 1
  55   30   56 1
  56   31   57 1
  57   31   58 1
  58   31   59 1
  59   32   33 1
  60   32   34 1
  61   32   35 1

#	End of record

