#	Name: ASD01830002
#	Creating user name:	WinNT
#	Creation time:	15. 06. 2019 19:36

#	Modifying user name:	WinNT
#	Modification time:	15. 06. 2019 19:36

#	Program:	/corina/corina34_cracker 3.40 0067  02.08.2006

@<TRIPOS>MOLECULE
ASD01830002
  75   75    0    0    0
SMALL
NO_CHARGES


@<TRIPOS>ATOM
   1 O1             2.0342    -2.1641     3.5082 O.3     
   2 O2             2.2152    -0.5410     1.2919 O.3     
   3 O3             2.5102    -4.8651     3.2689 O.3     
   4 N4             1.8846     0.1033     5.2756 N.3     
   5 N5             0.4462     1.7008     0.9040 N.3     
   6 N6             1.2260    -6.9714     4.8324 N.3     
   7 C7             2.5735    -1.1443     5.6317 C.3     
   8 C8             1.8236     1.6683     0.3942 C.3     
   9 C9             2.6307    -6.9958     4.4030 C.3     
  10 C10            3.1202    -1.8047     4.3645 C.3     
  11 C11            1.1031     0.6152     6.4092 C.3     
  12 C12            2.8380     1.1124     4.7950 C.3     
  13 C13            2.2187     0.2231     0.0843 C.3     
  14 C14            2.7696    -6.2563     3.0708 C.3     
  15 C15            0.1276     3.0156     1.4763 C.3     
  16 C16           -0.5131     1.3379    -0.1477 C.3     
  17 C17            0.9780    -7.9722     5.8787 C.3     
  18 C18            0.8372    -5.6291     5.2851 C.3     
  19 C19            2.3526    -2.6963     2.2967 C.ar    
  20 C20            2.4441    -1.8768     1.1780 C.ar    
  21 C21            2.5926    -4.0599     2.1761 C.ar    
  22 C22            3.8316     1.4468     5.9093 C.3     
  23 C23            0.1187     1.6760     5.9124 C.3     
  24 C24           -1.1347     2.9062     2.3339 C.3     
  25 C25           -0.4305     2.3561    -1.2867 C.3     
  26 C26           -0.5283    -8.2013     6.0185 C.3     
  27 C27            1.7930    -5.1653     6.3861 C.3     
  28 C28            2.7687    -2.4229    -0.0545 C.ar    
  29 C29            2.9167    -4.5982     0.9399 C.ar    
  30 C30            3.0011    -3.7805    -0.1714 C.ar    
  31 H31            3.3972    -0.9235     6.3107 H       
  32 H32            1.8715    -1.8204     6.1199 H       
  33 H33            1.8885     2.2657    -0.5153 H       
  34 H34            2.4990     2.0765     1.1460 H       
  35 H35            3.2493    -6.5074     5.1559 H       
  36 H36            2.9552    -8.0291     4.2805 H       
  37 H37            3.6817    -2.6991     4.6342 H       
  38 H38            3.7767    -1.1064     3.8452 H       
  39 H39            0.5519    -0.2044     6.8702 H       
  40 H40            1.7756     1.0591     7.1433 H       
  41 H41            3.3774     0.7209     3.9325 H       
  42 H42            2.2979     2.0143     4.5070 H       
  43 H43            3.2166     0.2052    -0.3540 H       
  44 H44            1.5052    -0.2059    -0.6191 H       
  45 H45            2.0545    -6.6608     2.3544 H       
  46 H46            3.7814    -6.3862     2.6869 H       
  47 H47           -0.2752     0.3452    -0.5297 H       
  48 H48           -1.5217     1.3361     0.2656 H       
  49 H49            0.9590     3.3537     2.0949 H       
  50 H50           -0.0408     3.7311     0.6715 H       
  51 H51            0.8850    -4.9347     4.4462 H       
  52 H52           -0.1801    -5.6578     5.6754 H       
  53 H53            1.4644    -8.9093     5.6078 H       
  54 H54            1.3806    -7.6146     6.8264 H       
  55 H55            3.2911     1.8274     6.7759 H       
  56 H56            4.3798     0.5472     6.1893 H       
  57 H57            4.5319     2.2039     5.5565 H       
  58 H58            0.6710     2.5435     5.5514 H       
  59 H59           -0.4809     1.2635     5.1009 H       
  60 H60           -0.5353     1.9764     6.7310 H       
  61 H61           -1.1421     2.0867    -2.0672 H       
  62 H62           -0.6687     3.3488    -0.9047 H       
  63 H63            0.5783     2.3582    -1.6997 H       
  64 H64           -1.9684     2.5782     1.7131 H       
  65 H65           -0.9698     2.1830     3.1326 H       
  66 H66           -1.3652     3.8796     2.7670 H       
  67 H67            1.4321    -4.2281     6.8096 H       
  68 H68            1.8410    -5.9229     7.1684 H       
  69 H69            2.7869    -5.0147     5.9647 H       
  70 H70           -1.0000    -7.2948     6.3978 H       
  71 H71           -0.9499    -8.4501     5.0447 H       
  72 H72           -0.7081    -9.0221     6.7128 H       
  73 H73            2.8397    -1.7868    -0.9244 H       
  74 H74            3.1034    -5.6577     0.8453 H       
  75 H75            3.2534    -4.2029    -1.1328 H       
@<TRIPOS>BOND
   1    1   10 1
   2    1   19 1
   3    2   13 1
   4    2   20 1
   5    3   14 1
   6    3   21 1
   7    4    7 1
   8    4   11 1
   9    4   12 1
  10    5    8 1
  11    5   15 1
  12    5   16 1
  13    6    9 1
  14    6   17 1
  15    6   18 1
  16    7   10 1
  17    7   31 1
  18    7   32 1
  19    8   13 1
  20    8   33 1
  21    8   34 1
  22    9   14 1
  23    9   35 1
  24    9   36 1
  25   10   37 1
  26   10   38 1
  27   11   23 1
  28   11   39 1
  29   11   40 1
  30   12   22 1
  31   12   41 1
  32   12   42 1
  33   13   43 1
  34   13   44 1
  35   14   45 1
  36   14   46 1
  37   15   24 1
  38   15   49 1
  39   15   50 1
  40   16   25 1
  41   16   47 1
  42   16   48 1
  43   17   26 1
  44   17   53 1
  45   17   54 1
  46   18   27 1
  47   18   51 1
  48   18   52 1
  49   19   20 ar
  50   19   21 ar
  51   20   28 ar
  52   21   29 ar
  53   22   55 1
  54   22   56 1
  55   22   57 1
  56   23   58 1
  57   23   59 1
  58   23   60 1
  59   24   64 1
  60   24   65 1
  61   24   66 1
  62   25   61 1
  63   25   62 1
  64   25   63 1
  65   26   70 1
  66   26   71 1
  67   26   72 1
  68   27   67 1
  69   27   68 1
  70   27   69 1
  71   28   30 ar
  72   28   73 1
  73   29   30 ar
  74   29   74 1
  75   30   75 1

#	End of record

