#	Name: ASD01813966
#	Creating user name:	WinNT
#	Creation time:	15. 06. 2019 19:31

#	Modifying user name:	WinNT
#	Modification time:	15. 06. 2019 19:31

#	Program:	/corina/corina34_cracker 3.40 0067  02.08.2006

@<TRIPOS>MOLECULE
ASD01813966
  40   43    0    0    0
SMALL
NO_CHARGES


@<TRIPOS>ATOM
   1 C1            -0.0169     1.3922     0.0097 C.ar    
   2 C2             0.0021    -0.0041     0.0020 C.ar    
   3 C3             1.2425    -0.6793    -0.0135 C.ar    
   4 C4             2.4322     0.0460    -0.0218 C.ar    
   5 C5             2.3877     1.4229    -0.0149 C.ar    
   6 C6             1.1697     2.0902     0.0021 C.ar    
   7 C7             1.2279    -2.1497    -0.0207 C.2     
   8 N8            -1.1430    -0.7314     0.0095 N.2     
   9 C9            -1.1247    -2.0297     0.0028 C.2     
  10 N10            0.0203    -2.7608    -0.0121 N.am    
  11 C11           -0.0529    -4.2239    -0.0187 C.3     
  12 C12           -1.2670    -4.9057     2.0603 C.ar    
  13 C13           -0.0642    -4.7328     1.3997 C.ar    
  14 C14            1.1284    -5.0257     2.0362 C.ar    
  15 C15           -1.2830    -5.3719     3.3593 C.ar    
  16 C16           -0.0849    -5.6689     4.0049 C.ar    
  17 C17            1.1237    -5.4930     3.3350 C.ar    
  18 C18           -0.0961    -6.1711     5.4021 C.2     
  19 O19            2.2616    -2.7923    -0.0344 O.2     
  20 C20           -1.2374    -6.4014     6.1946 C.2     
  21 N21           -0.8407    -6.8406     7.3596 N.2     
  22 N22            0.5578    -6.9076     7.3571 N.pl3   
  23 C23            0.9971    -6.4992     6.1496 C.2     
  24 C24            1.3985    -7.3505     8.4722 C.3     
  25 H25           -0.9579     1.9220     0.0170 H       
  26 H26            3.3822    -0.4675    -0.0333 H       
  27 H27            3.3078     1.9883    -0.0210 H       
  28 H28            1.1533     3.1700     0.0077 H       
  29 H29           -2.0682    -2.5553     0.0093 H       
  30 H30           -0.9649    -4.5398    -0.5253 H       
  31 H31            0.8128    -4.6286    -0.5431 H       
  32 H32           -2.1951    -4.6708     1.5603 H       
  33 H33            2.0649    -4.8890     1.5159 H       
  34 H34           -2.2228    -5.5061     3.8743 H       
  35 H35            2.0554    -5.7221     3.8308 H       
  36 H36           -2.2619    -6.2423     5.8923 H       
  37 H37            2.0277    -6.4404     5.8323 H       
  38 H38            1.5604    -8.4260     8.4004 H       
  39 H39            2.3580    -6.8350     8.4308 H       
  40 H40            0.9025    -7.1199     9.4150 H       
@<TRIPOS>BOND
   1    1    2 ar
   2    1    6 ar
   3    1   25 1
   4    2    3 ar
   5    2    8 1
   6    3    4 ar
   7    3    7 1
   8    4    5 ar
   9    4   26 1
  10    5    6 ar
  11    5   27 1
  12    6   28 1
  13    7   10 am
  14    7   19 2
  15    8    9 2
  16    9   10 1
  17    9   29 1
  18   10   11 1
  19   11   13 1
  20   11   30 1
  21   11   31 1
  22   12   15 ar
  23   12   13 ar
  24   12   32 1
  25   13   14 ar
  26   14   17 ar
  27   14   33 1
  28   15   16 ar
  29   15   34 1
  30   16   17 ar
  31   16   18 1
  32   17   35 1
  33   18   23 2
  34   18   20 1
  35   20   21 2
  36   20   36 1
  37   21   22 1
  38   22   23 1
  39   22   24 1
  40   23   37 1
  41   24   38 1
  42   24   39 1
  43   24   40 1

#	End of record

