#	Name: ASD00840784
#	Creating user name:	WinNT
#	Creation time:	15. 06. 2019 18:40

#	Modifying user name:	WinNT
#	Modification time:	15. 06. 2019 18:40

#	Program:	/corina/corina34_cracker 3.40 0067  02.08.2006

@<TRIPOS>MOLECULE
ASD00840784
 101  106    0    0    0
SMALL
NO_CHARGES


@<TRIPOS>ATOM
   1 F1             6.0051    -1.9449    -2.0980 F       
   2 N2             0.9754     1.4237    -0.8197 N.ar    
   3 C3             1.2525     0.1334    -0.9059 C.ar    
   4 C4             1.1968    -0.6791     0.2195 C.ar    
   5 C5             0.8467    -0.1209     1.4363 C.ar    
   6 C6             0.5633     1.2373     1.4846 C.ar    
   7 C7             0.6386     1.9845     0.3263 C.ar    
   8 C8             1.5130    -2.1490     0.1165 C.3     
   9 C9             1.2572    -2.8404     1.4387 C.2     
  10 C10            0.6863    -2.7970    -0.9960 C.3     
  11 C11           -0.7756    -2.5120    -0.7664 C.2     
  12 N12           -1.7031    -3.0469    -1.5850 N.am    
  13 O13           -1.1175    -1.8012     0.1549 O.2     
  14 C14           -3.1207    -2.6861    -1.4471 C.3     
  15 C15           -3.9450    -3.9698    -1.3076 C.3     
  16 C16           -3.6439    -4.8954    -2.4886 C.3     
  17 C17           -2.1603    -5.2707    -2.4796 C.3     
  18 C18           -1.3151    -3.9974    -2.6360 C.3     
  19 C19           -4.4913    -6.1639    -2.3709 C.3     
  20 C20           -5.9761    -5.7902    -2.3815 C.3     
  21 C21           -6.8187    -7.0665    -2.3250 C.3     
  22 N22           -6.5011    -7.9159    -3.4800 N.3     
  23 C23           -5.0912    -8.3263    -3.4655 C.3     
  24 C24           -4.1970    -7.0876    -3.5561 C.3     
  25 C25           -7.3891    -9.0848    -3.5339 C.3     
  26 O26            0.1936    -2.9196     2.0163 O.2     
  27 N27            2.4296    -3.3506     1.8519 N.am    
  28 C28            2.9900    -2.3570    -0.1278 C.ar    
  29 C29            3.4667    -3.0847     0.9554 C.ar    
  30 C30            3.8324    -1.9753    -1.1475 C.ar    
  31 C31            5.1745    -2.3177    -1.0998 C.ar    
  32 C32            5.6616    -3.0432    -0.0245 C.ar    
  33 C33            4.8166    -3.4261     0.9982 C.ar    
  34 Cl34           7.3424    -3.4731     0.0372 Cl      
  35 C35            2.3468    -5.8971     2.8924 C.ar    
  36 C36            1.0919    -6.3223     2.4803 C.ar    
  37 C37            3.3820    -6.8054     3.0075 C.ar    
  38 C38            3.1706    -8.1383     2.7123 C.ar    
  39 C39            1.9172    -8.5686     2.2997 C.ar    
  40 C40            0.8771    -7.6596     2.1839 C.ar    
  41 O41            1.7097    -9.8800     2.0099 O.3     
  42 O42            0.0742    -5.4288     2.3678 O.3     
  43 C43            2.8263   -10.7603     2.1518 C.3     
  44 C44           -1.1905    -5.9367     1.9382 C.3     
  45 C45           -2.2038    -4.7922     1.8717 C.3     
  46 C46           -7.1125    -9.8769    -4.8134 C.3     
  47 C47           -7.1334    -9.9761    -2.3169 C.3     
  48 O48            1.5940    -0.4019    -2.1049 O.3     
  49 C49            2.0550    -0.2788    -4.4740 C.3     
  50 C50            1.5248     0.4593    -3.2431 C.3     
  51 S51            2.6225    -4.1966     3.2623 S.o2    
  52 O52            3.9939    -4.0801     3.6157 O.2     
  53 O53            1.5623    -3.7953     4.1192 O.2     
  54 H54            0.7948    -0.7280     2.3280 H       
  55 H55            0.2865     1.7042     2.4183 H       
  56 H56            0.4194     3.0416     0.3586 H       
  57 H57            0.9894    -2.3873    -1.9595 H       
  58 H58            0.8515    -3.8743    -0.9910 H       
  59 H59           -3.2556    -2.0670    -0.5602 H       
  60 H60           -3.4457    -2.1374    -2.3311 H       
  61 H61           -3.6824    -4.4714    -0.3762 H       
  62 H62           -5.0063    -3.7218    -1.3011 H       
  63 H63           -3.8835    -4.3841    -3.4210 H       
  64 H64           -1.9145    -5.7600    -1.5371 H       
  65 H65           -1.9514    -5.9485    -3.3073 H       
  66 H66           -1.4941    -3.5583    -3.6175 H       
  67 H67           -0.2587    -4.2449    -2.5313 H       
  68 H68           -4.2514    -6.6771    -1.4397 H       
  69 H69           -6.2008    -5.1672    -1.5158 H       
  70 H70           -6.2069    -5.2420    -3.2949 H       
  71 H71           -6.5976    -7.6073    -1.4048 H       
  72 H72           -7.8766    -6.8046    -2.3468 H       
  73 H73           -4.8781    -8.8611    -2.5400 H       
  74 H74           -4.8943    -8.9793    -4.3158 H       
  75 H75           -4.3998    -6.5598    -4.4880 H       
  76 H76           -3.1506    -7.3915    -3.5297 H       
  77 H77           -8.4274    -8.7529    -3.5295 H       
  78 H78            3.4479    -1.4102    -1.9837 H       
  79 H79            5.2030    -3.9915     1.8332 H       
  80 H80            4.3580    -6.4725     3.3284 H       
  81 H81            3.9813    -8.8461     2.8024 H       
  82 H82           -0.0990    -7.9925     1.8633 H       
  83 H83            2.5250   -11.7746     1.8899 H       
  84 H84            3.6298   -10.4376     1.4897 H       
  85 H85            3.1759   -10.7402     3.1840 H       
  86 H86           -1.0851    -6.3864     0.9509 H       
  87 H87           -1.5387    -6.6897     2.6452 H       
  88 H88           -3.1685    -5.1797     1.5440 H       
  89 H89           -2.3092    -4.3425     2.8590 H       
  90 H90           -1.8555    -4.0392     1.1647 H       
  91 H91           -6.0742   -10.2088    -4.8178 H       
  92 H92           -7.7714   -10.7442    -4.8534 H       
  93 H93           -7.2946    -9.2419    -5.6804 H       
  94 H94           -7.3306    -9.4118    -1.4055 H       
  95 H95           -7.7924   -10.8435    -2.3570 H       
  96 H96           -6.0952   -10.3081    -2.3214 H       
  97 H97            3.0599    -0.6489    -4.2708 H       
  98 H98            1.3987    -1.1177    -4.7053 H       
  99 H99            2.0842     0.4045    -5.3228 H       
 100 H100           0.4892     0.7532    -3.4139 H       
 101 H101           2.1299     1.3480    -3.0638 H       
@<TRIPOS>BOND
   1    1   31 1
   2    2    3 ar
   3    2    7 ar
   4    3    4 ar
   5    3   48 1
   6    4    5 ar
   7    4    8 1
   8    5    6 ar
   9    5   54 1
  10    6    7 ar
  11    6   55 1
  12    7   56 1
  13    8    9 1
  14    8   10 1
  15    8   28 1
  16    9   26 2
  17    9   27 am
  18   10   11 1
  19   10   57 1
  20   10   58 1
  21   11   12 am
  22   11   13 2
  23   12   14 1
  24   12   18 1
  25   14   15 1
  26   14   59 1
  27   14   60 1
  28   15   16 1
  29   15   61 1
  30   15   62 1
  31   16   17 1
  32   16   19 1
  33   16   63 1
  34   17   18 1
  35   17   64 1
  36   17   65 1
  37   18   66 1
  38   18   67 1
  39   19   20 1
  40   19   24 1
  41   19   68 1
  42   20   21 1
  43   20   69 1
  44   20   70 1
  45   21   22 1
  46   21   71 1
  47   21   72 1
  48   22   23 1
  49   22   25 1
  50   23   24 1
  51   23   73 1
  52   23   74 1
  53   24   75 1
  54   24   76 1
  55   25   46 1
  56   25   47 1
  57   25   77 1
  58   27   51 am
  59   27   29 1
  60   28   29 ar
  61   28   30 ar
  62   29   33 ar
  63   30   31 ar
  64   30   78 1
  65   31   32 ar
  66   32   33 ar
  67   32   34 1
  68   33   79 1
  69   35   36 ar
  70   35   37 ar
  71   35   51 1
  72   36   42 1
  73   36   40 ar
  74   37   38 ar
  75   37   80 1
  76   38   39 ar
  77   38   81 1
  78   39   40 ar
  79   39   41 1
  80   40   82 1
  81   41   43 1
  82   42   44 1
  83   43   83 1
  84   43   84 1
  85   43   85 1
  86   44   45 1
  87   44   86 1
  88   44   87 1
  89   45   88 1
  90   45   89 1
  91   45   90 1
  92   46   91 1
  93   46   92 1
  94   46   93 1
  95   47   94 1
  96   47   95 1
  97   47   96 1
  98   48   50 1
  99   49   50 1
 100   49   97 1
 101   49   98 1
 102   49   99 1
 103   50  100 1
 104   50  101 1
 105   51   52 2
 106   51   53 2

#	End of record

