#	Name: ASD04910538
#	Creating user name:	WinNT
#	Creation time:	15. 06. 2019 20:56

#	Modifying user name:	WinNT
#	Modification time:	15. 06. 2019 20:56

#	Program:	/corina/corina34_cracker 3.40 0067  02.08.2006

@<TRIPOS>MOLECULE
ASD04910538
  50   50    0    0    0
SMALL
NO_CHARGES


@<TRIPOS>ATOM
   1 N1            -0.0169     1.3968     0.0097 N.am    
   2 N2             0.0021    -0.0041     0.0020 N.am    
   3 C3             1.1410     2.0865     0.0024 C.2     
   4 O4             1.1245     3.3016     0.0091 O.2     
   5 O5             2.3162     1.4291    -0.0124 O.3     
   6 C6             0.3240    -0.6798     1.1228 C.2     
   7 O7             0.3405    -1.8948     1.1161 O.2     
   8 O8             0.6274    -0.0086     2.2498 O.3     
   9 C9            -1.2424     2.0823     0.0193 C.ar    
  10 C10           -1.8435     2.4152     1.2269 C.ar    
  11 C11           -3.0507     3.0904     1.2349 C.ar    
  12 C12           -3.6611     3.4351     0.0381 C.ar    
  13 C13           -3.0623     3.1030    -1.1682 C.ar    
  14 C14           -1.8521     2.4333    -1.1789 C.ar    
  15 O15           -4.8478     4.0989     0.0473 O.3     
  16 C16           -5.4200     4.4224    -1.2215 C.3     
  17 F17           -1.2660     2.1156    -2.3540 F       
  18 F18           -1.2494     2.0791     2.3928 F       
  19 C19            3.5230     2.2364    -0.0196 C.3     
  20 C20            3.5579     3.1128     1.2341 C.3     
  21 C21            4.7489     1.3210    -0.0362 C.3     
  22 C22            3.5340     3.1262    -1.2642 C.3     
  23 C23            0.9645    -0.8014     3.4187 C.3     
  24 C24            2.1892    -1.6659     3.1127 C.3     
  25 C25            1.2770     0.1285     4.5928 C.3     
  26 C26           -0.2176    -1.7022     3.7822 C.3     
  27 H27           -0.2165    -0.4876    -0.8100 H       
  28 H28           -3.5183     3.3490     2.1735 H       
  29 H29           -3.5390     3.3714    -2.0993 H       
  30 H30           -4.7326     5.0592    -1.7783 H       
  31 H31           -5.6015     3.5058    -1.7826 H       
  32 H32           -6.3624     4.9492    -1.0713 H       
  33 H33            3.5500     2.4789     2.1208 H       
  34 H34            4.4638     3.7188     1.2287 H       
  35 H35            2.6846     3.7649     1.2460 H       
  36 H36            4.7240     0.6967    -0.9293 H       
  37 H37            5.6548     1.9271    -0.0416 H       
  38 H38            4.7410     0.6872     0.8505 H       
  39 H39            2.6607     3.7783    -1.2524 H       
  40 H40            4.4400     3.7322    -1.2696 H       
  41 H41            3.5092     2.5019    -2.1574 H       
  42 H42            3.0314    -1.0241     2.8538 H       
  43 H43            2.4423    -2.2610     3.9902 H       
  44 H44            1.9666    -2.3283     2.2763 H       
  45 H45            0.4045     0.7443     4.8108 H       
  46 H46            1.5301    -0.4666     5.4702 H       
  47 H47            2.1192     0.7702     4.3338 H       
  48 H48           -0.4403    -2.3647     2.9458 H       
  49 H49            0.0354    -2.2973     4.6596 H       
  50 H50           -1.0901    -1.0863     4.0002 H       
@<TRIPOS>BOND
   1    1    2 1
   2    1    3 am
   3    1    9 1
   4    2    6 am
   5    2   27 1
   6    3    4 2
   7    3    5 1
   8    5   19 1
   9    6    7 2
  10    6    8 1
  11    8   23 1
  12    9   10 ar
  13    9   14 ar
  14   10   11 ar
  15   10   18 1
  16   11   12 ar
  17   11   28 1
  18   12   13 ar
  19   12   15 1
  20   13   14 ar
  21   13   29 1
  22   14   17 1
  23   15   16 1
  24   16   30 1
  25   16   31 1
  26   16   32 1
  27   19   20 1
  28   19   22 1
  29   19   21 1
  30   20   33 1
  31   20   34 1
  32   20   35 1
  33   21   36 1
  34   21   37 1
  35   21   38 1
  36   22   39 1
  37   22   40 1
  38   22   41 1
  39   23   24 1
  40   23   26 1
  41   23   25 1
  42   24   42 1
  43   24   43 1
  44   24   44 1
  45   25   45 1
  46   25   46 1
  47   25   47 1
  48   26   48 1
  49   26   49 1
  50   26   50 1

#	End of record

