#	Name: ASD01148804
#	Creating user name:	WinNT
#	Creation time:	15. 06. 2019 19:03

#	Modifying user name:	WinNT
#	Modification time:	15. 06. 2019 19:03

#	Program:	/corina/corina34_cracker 3.40 0067  02.08.2006

@<TRIPOS>MOLECULE
ASD01148804
  34   34    0    0    0
SMALL
NO_CHARGES


@<TRIPOS>ATOM
   1 C1             0.2435     1.4433     0.0002 C.2     
   2 C2             0.2084    -0.0607     0.0887 C.3     
   3 C3             1.6378    -0.6062     0.0703 C.3     
   4 C4             2.2636    -0.3297    -1.2725 C.2     
   5 O5             1.3030     2.0197    -0.0704 O.2     
   6 O6            -0.9025     2.1421    -0.0057 O.3     
   7 O7             1.5978     0.1521    -2.1641 O.2     
   8 C8             3.6823    -0.6443    -1.5015 C.ar    
   9 C9             4.2667    -0.3891    -2.7466 C.ar    
  10 C10            5.5964    -0.6865    -2.9539 C.ar    
  11 C11            6.3538    -1.2373    -1.9331 C.ar    
  12 C12            5.7818    -1.4933    -0.6976 C.ar    
  13 C13            4.4550    -1.1949    -0.4735 C.ar    
  14 Br14           8.1772    -1.6424    -2.2277 Br      
  15 C15           -0.4700    -0.4729     1.3697 C.2     
  16 O16           -0.4165     0.2450     2.3393 O.2     
  17 C17           -1.2152    -1.7808     1.4407 C.3     
  18 C18           -0.7929     3.5873    -0.0931 C.3     
  19 C19           -2.1920     4.2063    -0.0868 C.3     
  20 H20           -0.3446    -0.4619    -0.7606 H       
  21 H21            2.2225    -0.1194     0.8508 H       
  22 H22            1.6186    -1.6814     0.2477 H       
  23 H23            3.6772     0.0396    -3.5436 H       
  24 H24            6.0490    -0.4900    -3.9146 H       
  25 H25            6.3782    -1.9235     0.0934 H       
  26 H26            4.0116    -1.3905     0.4916 H       
  27 H27           -1.0799    -2.3272     0.5072 H       
  28 H28           -0.8285    -2.3749     2.2687 H       
  29 H29           -2.2762    -1.5864     1.5974 H       
  30 H30           -0.2264     3.9609     0.7600 H       
  31 H31           -0.2801     3.8577    -1.0162 H       
  32 H32           -2.1097     5.2912    -0.1523 H       
  33 H33           -2.7585     3.8327    -0.9398 H       
  34 H34           -2.7048     3.9360     0.8364 H       
@<TRIPOS>BOND
   1    1    2 1
   2    1    5 2
   3    1    6 1
   4    2    3 1
   5    2   15 1
   6    2   20 1
   7    3    4 1
   8    3   21 1
   9    3   22 1
  10    4    7 2
  11    4    8 1
  12    6   18 1
  13    8    9 ar
  14    8   13 ar
  15    9   10 ar
  16    9   23 1
  17   10   11 ar
  18   10   24 1
  19   11   12 ar
  20   11   14 1
  21   12   13 ar
  22   12   25 1
  23   13   26 1
  24   15   16 2
  25   15   17 1
  26   17   27 1
  27   17   28 1
  28   17   29 1
  29   18   19 1
  30   18   30 1
  31   18   31 1
  32   19   32 1
  33   19   33 1
  34   19   34 1

#	End of record

