#	Name: ASD03091233
#	Creating user name:	WinNT
#	Creation time:	15. 06. 2019 20:30

#	Modifying user name:	WinNT
#	Modification time:	15. 06. 2019 20:30

#	Program:	/corina/corina34_cracker 3.40 0067  02.08.2006

@<TRIPOS>MOLECULE
ASD03091233
  51   55    0    0    0
SMALL
NO_CHARGES


@<TRIPOS>ATOM
   1 N1             0.0226     1.1585     0.4540 N.2     
   2 C2             0.0601    -0.0766     0.0248 C.2     
   3 N3             1.2052    -0.6762    -0.4261 N.am    
   4 C4             2.3737     0.0064    -0.4451 C.2     
   5 C5             2.3551     1.3970     0.0326 C.ar    
   6 C6             3.5059     2.1818     0.0517 C.ar    
   7 C7             3.4308     3.4857     0.5116 C.ar    
   8 C8             2.2155     4.0104     0.9519 C.ar    
   9 C9             1.0796     3.2533     0.9396 C.ar    
  10 C10            1.1261     1.9332     0.4804 C.ar    
  11 O11            3.4014    -0.5113    -0.8423 O.2     
  12 C12            1.1657    -2.0652    -0.8902 C.3     
  13 C13           -1.1917    -0.8611     0.0270 C.ar    
  14 C14           -2.0629    -0.7874     1.1158 C.ar    
  15 C15           -3.2297    -1.5217     1.1126 C.ar    
  16 C16           -3.5385    -2.3326     0.0315 C.ar    
  17 C17           -2.6772    -2.4095    -1.0520 C.ar    
  18 C18           -1.5107    -1.6747    -1.0621 C.ar    
  19 F19           -4.6828    -3.0507     0.0339 F       
  20 N20            7.0630     5.5083    -0.5127 N.3     
  21 C21            7.0529     4.2878     0.3080 C.3     
  22 C22            5.7576     3.5165     0.1079 C.3     
  23 N23            4.5798     4.2811     0.5351 N.3     
  24 C24            4.4087     5.4784    -0.2998 C.3     
  25 C25            5.0710     6.6813     0.3552 C.3     
  26 C26            6.5842     6.6504     0.2793 C.3     
  27 C27            6.4250     5.4142    -1.8083 C.3     
  28 C28            4.9260     5.1890    -1.6970 C.3     
  29 H29            4.4476     1.7771    -0.2886 H       
  30 H30            2.1727     5.0291     1.3078 H       
  31 H31            0.1462     3.6732     1.2843 H       
  32 H32            0.8788    -2.0889    -1.9415 H       
  33 H33            2.1511    -2.5159    -0.7723 H       
  34 H34            0.4378    -2.6242    -0.3022 H       
  35 H35           -1.8230    -0.1565     1.9589 H       
  36 H36           -3.9043    -1.4654     1.9542 H       
  37 H37           -2.9226    -3.0428    -1.8917 H       
  38 H38           -0.8427    -1.7317    -1.9088 H       
  39 H39            7.8945     3.6564     0.0229 H       
  40 H40            7.1495     4.5608     1.3588 H       
  41 H41            5.6537     3.2690    -0.9485 H       
  42 H42            5.8053     2.5913     0.6823 H       
  43 H43            3.3412     5.6826    -0.3816 H       
  44 H44            4.7149     7.5868    -0.1360 H       
  45 H45            4.7744     6.7158     1.4035 H       
  46 H46            6.9897     6.5786     1.2885 H       
  47 H47            6.9364     7.5742    -0.1795 H       
  48 H48            6.6038     6.3381    -2.3583 H       
  49 H49            6.8670     4.5849    -2.3605 H       
  50 H50            4.7038     4.1521    -1.9493 H       
  51 H51            4.4162     5.8415    -2.4057 H       
@<TRIPOS>BOND
   1    1    2 2
   2    1   10 1
   3    2    3 1
   4    2   13 1
   5    3    4 am
   6    3   12 1
   7    4    5 1
   8    4   11 2
   9    5    6 ar
  10    5   10 ar
  11    6    7 ar
  12    6   29 1
  13    7    8 ar
  14    7   23 1
  15    8    9 ar
  16    8   30 1
  17    9   10 ar
  18    9   31 1
  19   12   32 1
  20   12   33 1
  21   12   34 1
  22   13   14 ar
  23   13   18 ar
  24   14   15 ar
  25   14   35 1
  26   15   16 ar
  27   15   36 1
  28   16   17 ar
  29   16   19 1
  30   17   18 ar
  31   17   37 1
  32   18   38 1
  33   20   21 1
  34   20   26 1
  35   20   27 1
  36   21   22 1
  37   21   39 1
  38   21   40 1
  39   22   23 1
  40   22   41 1
  41   22   42 1
  42   23   24 1
  43   24   25 1
  44   24   28 1
  45   24   43 1
  46   25   26 1
  47   25   44 1
  48   25   45 1
  49   26   46 1
  50   26   47 1
  51   27   28 1
  52   27   48 1
  53   27   49 1
  54   28   50 1
  55   28   51 1

#	End of record

