#	Name: ASD03082202
#	Creating user name:	WinNT
#	Creation time:	15. 06. 2019 20:27

#	Modifying user name:	WinNT
#	Modification time:	15. 06. 2019 20:27

#	Program:	/corina/corina34_cracker 3.40 0067  02.08.2006

@<TRIPOS>MOLECULE
ASD03082202
  42   44    0    0    0
SMALL
NO_CHARGES


@<TRIPOS>ATOM
   1 N1             0.2548     1.8533    -0.2115 N.pl3   
   2 N2             0.0325     0.4677    -0.2635 N.2     
   3 C3             1.1815    -0.1141    -0.0056 C.2     
   4 N4             2.1064     0.8236     0.2039 N.2     
   5 C5             1.5635     2.0184     0.0834 C.2     
   6 N6             1.3995    -1.4923     0.0419 N.pl3   
   7 C7             0.3213    -2.3754    -0.0766 C.ar    
   8 C8             0.5262    -3.6632    -0.5555 C.ar    
   9 C9            -0.5397    -4.5333    -0.6718 C.ar    
  10 C10           -1.8124    -4.1229    -0.3114 C.ar    
  11 C11           -2.0191    -2.8399     0.1662 C.ar    
  12 C12           -0.9548    -1.9680     0.2896 C.ar    
  13 C13           -0.3181    -5.9302    -1.1918 C.3     
  14 F14            1.0378    -6.1083    -1.4869 F       
  15 F15           -0.7094    -6.8572    -0.2197 F       
  16 F16           -1.0769    -6.1221    -2.3513 F       
  17 C17            4.2687     4.6200     0.3003 C.ar    
  18 C18            3.6571     3.3930     0.1460 C.ar    
  19 C19            2.2635     3.3127     0.2423 C.ar    
  20 C20            1.5502     4.4897     0.4926 C.ar    
  21 C21            2.2431     5.6748     0.6337 C.ar    
  22 N22            3.5581     5.7064     0.5355 N.ar    
  23 C23           -0.7341     2.9102    -0.4382 C.3     
  24 O24           -1.3687     3.2419     0.7984 O.3     
  25 F25           -2.8539    -4.9757    -0.4264 F       
  26 C26            5.7694     4.7197     0.2052 C.3     
  27 C27            6.1454     5.7576    -0.8542 C.3     
  28 H28            2.2987    -1.8375     0.1572 H       
  29 H29            1.5185    -3.9835    -0.8371 H       
  30 H30           -3.0124    -2.5219     0.4463 H       
  31 H31           -1.1156    -0.9688     0.6667 H       
  32 H32            4.2451     2.5079    -0.0467 H       
  33 H33            0.4734     4.4713     0.5739 H       
  34 H34            1.7013     6.5889     0.8267 H       
  35 H35           -0.2367     3.7931    -0.8396 H       
  36 H36           -1.4832     2.5606    -1.1487 H       
  37 H37           -2.0372     3.9366     0.7236 H       
  38 H38            6.1754     5.0222     1.1704 H       
  39 H39            6.1809     3.7498    -0.0743 H       
  40 H40            5.7394     5.4551    -1.8195 H       
  41 H41            5.7339     6.7275    -0.5748 H       
  42 H42            7.2309     5.8297    -0.9230 H       
@<TRIPOS>BOND
   1    1    2 1
   2    1    5 1
   3    1   23 1
   4    2    3 2
   5    3    4 1
   6    3    6 1
   7    4    5 2
   8    5   19 1
   9    6    7 1
  10    6   28 1
  11    7    8 ar
  12    7   12 ar
  13    8    9 ar
  14    8   29 1
  15    9   10 ar
  16    9   13 1
  17   10   11 ar
  18   10   25 1
  19   11   12 ar
  20   11   30 1
  21   12   31 1
  22   13   14 1
  23   13   15 1
  24   13   16 1
  25   17   18 ar
  26   17   22 ar
  27   17   26 1
  28   18   19 ar
  29   18   32 1
  30   19   20 ar
  31   20   21 ar
  32   20   33 1
  33   21   22 ar
  34   21   34 1
  35   23   24 1
  36   23   35 1
  37   23   36 1
  38   24   37 1
  39   26   27 1
  40   26   38 1
  41   26   39 1
  42   27   40 1
  43   27   41 1
  44   27   42 1

#	End of record

