#	Name: ASD01884571
#	Creating user name:	WinNT
#	Creation time:	15. 06. 2019 19:48

#	Modifying user name:	WinNT
#	Modification time:	15. 06. 2019 19:48

#	Program:	/corina/corina34_cracker 3.40 0067  02.08.2006

@<TRIPOS>MOLECULE
ASD01884571
  40   42    0    0    0
SMALL
NO_CHARGES


@<TRIPOS>ATOM
   1 C1            -0.0164     1.3576     0.0095 C.2     
   2 C2             0.0021    -0.0041     0.0020 C.2     
   3 C3             1.2440    -0.6751    -0.0134 C.2     
   4 C4             2.4024     0.0465    -0.0206 C.2     
   5 N5             2.3700     1.4024    -0.0126 N.am    
   6 C6             1.1986     2.0652     0.0017 C.2     
   7 O7             1.1911     3.2857     0.0083 O.2     
   8 C8             3.6266     2.1554    -0.0196 C.3     
   9 C9             4.0447     2.4218    -1.4427 C.ar    
  10 C10            1.2897    -2.1584    -0.0214 C.ar    
  11 C11            0.8124    -2.8774     1.0728 C.ar    
  12 C12            1.8048    -2.8351    -1.1254 C.ar    
  13 C13            1.8460    -4.2138    -1.1298 C.ar    
  14 C14            1.3747    -4.9272    -0.0363 C.ar    
  15 C15            0.8562    -4.2560     1.0626 C.ar    
  16 O16            1.4158    -6.2856    -0.0439 O.3     
  17 C17            0.9144    -6.9563     1.1140 C.3     
  18 C18            3.7079     3.6182    -2.0502 C.ar    
  19 N19            4.0749     3.8520    -3.2980 N.ar    
  20 C20            4.7635     2.9431    -3.9655 C.ar    
  21 C21            5.1004     1.7463    -3.3578 C.ar    
  22 N22            4.7378     1.5147    -2.1085 N.ar    
  23 C23            5.1816     3.2095    -5.3886 C.3     
  24 H24           -0.9563     1.8895     0.0169 H       
  25 H25           -0.9217    -0.5635     0.0082 H       
  26 H26            3.3528    -0.4664    -0.0325 H       
  27 H27            3.4854     3.1026     0.5010 H       
  28 H28            4.4003     1.5759     0.4840 H       
  29 H29            0.4089    -2.3558     1.9281 H       
  30 H30            2.1710    -2.2806    -1.9768 H       
  31 H31            2.2451    -4.7388    -1.9851 H       
  32 H32            0.4906    -4.8137     1.9121 H       
  33 H33            1.4892    -6.6507     1.9883 H       
  34 H34           -0.1340    -6.6958     1.2593 H       
  35 H35            1.0055    -8.0339     0.9777 H       
  36 H36            3.1447     4.3610    -1.5048 H       
  37 H37            5.6633     1.0034    -3.9033 H       
  38 H38            6.1592     3.6915    -5.3959 H       
  39 H39            5.2370     2.2671    -5.9335 H       
  40 H40            4.4509     3.8626    -5.8657 H       
@<TRIPOS>BOND
   1    1    2 2
   2    1    6 1
   3    1   24 1
   4    2    3 1
   5    2   25 1
   6    3    4 2
   7    3   10 1
   8    4    5 1
   9    4   26 1
  10    5    6 am
  11    5    8 1
  12    6    7 2
  13    8    9 1
  14    8   27 1
  15    8   28 1
  16    9   18 ar
  17    9   22 ar
  18   10   11 ar
  19   10   12 ar
  20   11   15 ar
  21   11   29 1
  22   12   13 ar
  23   12   30 1
  24   13   14 ar
  25   13   31 1
  26   14   15 ar
  27   14   16 1
  28   15   32 1
  29   16   17 1
  30   17   33 1
  31   17   34 1
  32   17   35 1
  33   18   19 ar
  34   18   36 1
  35   19   20 ar
  36   20   21 ar
  37   20   23 1
  38   21   22 ar
  39   21   37 1
  40   23   38 1
  41   23   39 1
  42   23   40 1

#	End of record

