#	Name: ASD01940166
#	Creating user name:	WinNT
#	Creation time:	15. 06. 2019 20:11

#	Modifying user name:	WinNT
#	Modification time:	15. 06. 2019 20:11

#	Program:	/corina/corina34_cracker 3.40 0067  02.08.2006

@<TRIPOS>MOLECULE
ASD01940166
  42   43    0    0    0
SMALL
NO_CHARGES


@<TRIPOS>ATOM
   1 I1             2.0073    -4.2497    -1.9939 I       
   2 F2             2.0356     2.2244     1.9683 F       
   3 C3             1.1357     2.7345     1.0993 C.ar    
   4 C4             1.3174     2.5675    -0.2672 C.ar    
   5 C5             0.3859     3.0951    -1.1599 C.ar    
   6 C6            -0.7177     3.7841    -0.6796 C.ar    
   7 C7            -0.8933     3.9477     0.6821 C.ar    
   8 C8             0.0275     3.4197     1.5710 C.ar    
   9 N9             2.4348     1.8707    -0.7476 N.pl3   
  10 N10            0.5645     2.9300    -2.5399 N.am    
  11 C11            2.3398     0.5043    -1.0256 C.ar    
  12 C12            1.1800    -0.1911    -0.7096 C.ar    
  13 C13            1.0889    -1.5416    -0.9860 C.ar    
  14 C14            2.1510    -2.2016    -1.5770 C.ar    
  15 C15            3.3085    -1.5124    -1.8930 C.ar    
  16 C16            3.4042    -0.1606    -1.6245 C.ar    
  17 Cl17           4.8565     0.7038    -2.0211 Cl      
  18 F18           -0.1519     3.5777     2.9007 F       
  19 S19            0.1550     4.1520    -3.5798 S.o2    
  20 O20            0.5715     3.6818    -4.8544 O.2     
  21 O21           -1.2162     4.4026    -3.3035 O.2     
  22 C22            1.3918     6.7793    -5.1036 C.3     
  23 C23            0.4184     7.4651    -6.0644 C.3     
  24 C24            2.6959     7.5772    -5.0432 C.3     
  25 C25            1.1771     5.5554    -3.0539 C.3     
  26 O26            0.8102     6.7178    -3.7998 O.3     
  27 H27           -1.4405     4.1936    -1.3699 H       
  28 H28           -1.7534     4.4850     1.0535 H       
  29 H29            3.2739     2.3368    -0.8871 H       
  30 H30            0.9279     2.1000    -2.8860 H       
  31 H31            0.3502     0.3232    -0.2478 H       
  32 H32            0.1872    -2.0827    -0.7400 H       
  33 H33            4.1364    -2.0309    -2.3537 H       
  34 H34            1.5998     5.7693    -5.4567 H       
  35 H35            0.2104     8.4751    -5.7113 H       
  36 H36            0.8621     7.5121    -7.0589 H       
  37 H37           -0.5106     6.8967    -6.1074 H       
  38 H38            3.4199     7.0439    -4.4270 H       
  39 H39            3.0949     7.6980    -6.0503 H       
  40 H40            2.5020     8.5580    -4.6091 H       
  41 H41            1.0204     5.7410    -1.9914 H       
  42 H42            2.2279     5.3263    -3.2317 H       
@<TRIPOS>BOND
   1    1   14 1
   2    2    3 1
   3    3    4 ar
   4    3    8 ar
   5    4    5 ar
   6    4    9 1
   7    5    6 ar
   8    5   10 1
   9    6    7 ar
  10    6   27 1
  11    7    8 ar
  12    7   28 1
  13    8   18 1
  14    9   11 1
  15    9   29 1
  16   10   19 am
  17   10   30 1
  18   11   12 ar
  19   11   16 ar
  20   12   13 ar
  21   12   31 1
  22   13   14 ar
  23   13   32 1
  24   14   15 ar
  25   15   16 ar
  26   15   33 1
  27   16   17 1
  28   19   20 2
  29   19   21 2
  30   19   25 1
  31   22   23 1
  32   22   26 1
  33   22   24 1
  34   22   34 1
  35   23   35 1
  36   23   36 1
  37   23   37 1
  38   24   38 1
  39   24   39 1
  40   24   40 1
  41   25   26 1
  42   25   41 1
  43   25   42 1

#	End of record

