#	Name: ASD01880103
#	Creating user name:	WinNT
#	Creation time:	15. 06. 2019 19:40

#	Modifying user name:	WinNT
#	Modification time:	15. 06. 2019 19:40

#	Program:	/corina/corina34_cracker 3.40 0067  02.08.2006

@<TRIPOS>MOLECULE
ASD01880103
  67   71    0    0    0
SMALL
NO_CHARGES


@<TRIPOS>ATOM
   1 C1            -0.0515     1.4122     0.2568 C.ar    
   2 C2            -0.0663     0.0328     0.4800 C.ar    
   3 C3            -1.2142    -0.6898     0.2442 C.ar    
   4 C4            -2.3622    -0.0455    -0.2173 C.ar    
   5 C5            -2.3486     1.3317    -0.4410 C.ar    
   6 C6            -1.2042     2.0573    -0.2006 C.ar    
   7 C7            -3.5977    -0.8250    -0.4708 C.ar    
   8 C8            -4.7467    -0.1845    -0.9319 C.ar    
   9 C9            -5.8938    -0.9153    -1.1666 C.ar    
  10 C10           -5.9046    -2.2806    -0.9451 C.ar    
  11 C11           -4.7672    -2.9217    -0.4874 C.ar    
  12 C12           -3.6131    -2.2022    -0.2543 C.ar    
  13 C13           -4.7871    -4.4095    -0.2485 C.3     
  14 O14           -4.3999    -5.0892    -1.4444 O.3     
  15 C15           -4.3657    -6.4446    -1.3989 C.ar    
  16 C16           -4.6990    -7.1084    -0.2242 C.ar    
  17 C17           -4.6654    -8.4864    -0.1742 C.ar    
  18 C18           -4.2961    -9.2153    -1.3069 C.ar    
  19 C19           -3.9618    -8.5315    -2.4887 C.ar    
  20 C20           -4.0028    -7.1687    -2.5294 C.ar    
  21 C21           -4.9755    -9.4350     0.9588 C.3     
  22 C22           -4.7578   -10.8503     0.4061 C.3     
  23 C23           -4.3295   -10.6576    -1.0284 C.2     
  24 C24           -3.6591   -11.5645     1.1959 C.3     
  25 C25           -4.0578   -11.6675     2.6785 C.3     
  26 C26           -4.1209   -13.1718     3.0144 C.3     
  27 C27           -3.2007   -13.8354     1.9599 C.3     
  28 C28           -3.4939   -13.0099     0.6826 C.3     
  29 O29           -4.0594   -11.5406    -1.8149 O.2     
  30 C30           -3.6432    -6.4446    -3.8012 C.3     
  31 C31           -3.5613    -9.3073    -3.7170 C.3     
  32 C32           -1.1901     3.5449    -0.4417 C.3     
  33 C33            1.1782     2.1882     0.5096 C.2     
  34 O34            1.1607     3.3998     0.4223 O.2     
  35 O35            2.3203     1.5528     0.8373 O.3     
  36 H36            0.8224    -0.4663     0.8369 H       
  37 H37           -1.2258    -1.7559     0.4162 H       
  38 H38           -3.2379     1.8292    -0.7989 H       
  39 H39           -4.7394     0.8815    -1.1049 H       
  40 H40           -6.7847    -0.4201    -1.5236 H       
  41 H41           -6.8046    -2.8483    -1.1297 H       
  42 H42           -2.7258    -2.7037     0.1029 H       
  43 H43           -4.0909    -4.6582     0.5525 H       
  44 H44           -5.7931    -4.7184     0.0355 H       
  45 H45           -4.9844    -6.5442     0.6513 H       
  46 H46           -4.3015    -9.2519     1.7957 H       
  47 H47           -6.0107    -9.3124     1.2773 H       
  48 H48           -5.6862   -11.4196     0.4498 H       
  49 H49           -2.7180   -11.0232     1.0990 H       
  50 H50           -3.3098   -11.1769     3.3013 H       
  51 H51           -5.0340   -11.2086     2.8354 H       
  52 H52           -3.7422   -13.3544     4.0201 H       
  53 H53           -5.1415   -13.5420     2.9171 H       
  54 H54           -2.1536   -13.7427     2.2479 H       
  55 H55           -3.4714   -14.8812     1.8145 H       
  56 H56           -4.4132   -13.3538     0.2086 H       
  57 H57           -2.6576   -13.0742    -0.0135 H       
  58 H58           -4.5388    -6.3085    -4.4074 H       
  59 H59           -3.2182    -5.4710    -3.5572 H       
  60 H60           -2.9126    -7.0306    -4.3588 H       
  61 H61           -4.4476    -9.5295    -4.3114 H       
  62 H62           -2.8652    -8.7144    -4.3103 H       
  63 H63           -3.0816   -10.2392    -3.4178 H       
  64 H64           -1.3722     4.0670     0.4976 H       
  65 H65           -0.2185     3.8394    -0.8386 H       
  66 H66           -1.9692     3.8041    -1.1586 H       
  67 H67            3.0997     2.1034     0.9935 H       
@<TRIPOS>BOND
   1    1    2 ar
   2    1   33 1
   3    1    6 ar
   4    2    3 ar
   5    2   36 1
   6    3    4 ar
   7    3   37 1
   8    4    5 ar
   9    4    7 1
  10    5    6 ar
  11    5   38 1
  12    6   32 1
  13    7    8 ar
  14    7   12 ar
  15    8    9 ar
  16    8   39 1
  17    9   10 ar
  18    9   40 1
  19   10   11 ar
  20   10   41 1
  21   11   12 ar
  22   11   13 1
  23   12   42 1
  24   13   14 1
  25   13   43 1
  26   13   44 1
  27   14   15 1
  28   15   16 ar
  29   15   20 ar
  30   16   17 ar
  31   16   45 1
  32   17   18 ar
  33   17   21 1
  34   18   19 ar
  35   18   23 1
  36   19   20 ar
  37   19   31 1
  38   20   30 1
  39   21   22 1
  40   21   46 1
  41   21   47 1
  42   22   23 1
  43   22   24 1
  44   22   48 1
  45   23   29 2
  46   24   25 1
  47   24   28 1
  48   24   49 1
  49   25   26 1
  50   25   50 1
  51   25   51 1
  52   26   27 1
  53   26   52 1
  54   26   53 1
  55   27   28 1
  56   27   54 1
  57   27   55 1
  58   28   56 1
  59   28   57 1
  60   30   58 1
  61   30   59 1
  62   30   60 1
  63   31   61 1
  64   31   62 1
  65   31   63 1
  66   32   64 1
  67   32   65 1
  68   32   66 1
  69   33   34 2
  70   33   35 1
  71   35   67 1

#	End of record

