#	Name: ASD02038250
#	Creating user name:	WinNT
#	Creation time:	15. 06. 2019 20:16

#	Modifying user name:	WinNT
#	Modification time:	15. 06. 2019 20:16

#	Program:	/corina/corina34_cracker 3.40 0067  02.08.2006

@<TRIPOS>MOLECULE
ASD02038250
  61   64    0    0    0
SMALL
NO_CHARGES


@<TRIPOS>ATOM
   1 C1            -0.0187     1.5263     0.0104 C.3     
   2 C2             0.0021    -0.0041     0.0020 C.3     
   3 N3             0.7238    -0.4751    -1.1883 N.3     
   4 C4             0.7003    -1.9415    -1.2723 C.3     
   5 C5             1.6601    -2.4049    -2.3699 C.3     
   6 O6             1.2550    -1.8495    -3.6227 O.3     
   7 C7             1.6357    -3.9322    -2.4573 C.3     
   8 O8             2.6158    -4.3711    -3.4001 O.3     
   9 C9             2.7249    -5.7119    -3.5982 C.ar    
  10 C10            3.6562    -6.2060    -4.4997 C.ar    
  11 C11            1.9085    -6.5855    -2.8944 C.ar    
  12 C12            2.0192    -7.9472    -3.0940 C.ar    
  13 C13            2.9475    -8.4422    -4.0002 C.ar    
  14 C14            3.7672    -7.5675    -4.7007 C.ar    
  15 C15            2.1034     0.0310    -1.1988 C.3     
  16 C16            2.0826     1.5614    -1.1904 C.3     
  17 N17            1.3610     2.0324    -0.0000 N.3     
  18 C18            1.3833     3.4267     0.0798 C.ar    
  19 C19            2.0342     4.1696    -0.8972 C.ar    
  20 C20            2.0539     5.5479    -0.8155 C.ar    
  21 C21            1.4270     6.1888     0.2376 C.ar    
  22 C22            0.7783     5.4525     1.2116 C.ar    
  23 C23            0.7499     4.0737     1.1329 C.ar    
  24 C24            1.4515     7.6931     0.3240 C.3     
  25 N25            3.0624    -9.8225    -4.2056 N.am    
  26 C26            4.1679   -10.3374    -4.7744 C.2     
  27 C27            5.3094    -9.4461    -5.1835 C.3     
  28 C28            4.7730    -8.1075    -5.6839 C.3     
  29 O29            4.2454   -11.5337    -4.9590 O.2     
  30 C30            0.0967     6.1552     2.3573 C.3     
  31 H31           -0.5453     1.8877    -0.8728 H       
  32 H32           -0.5283     1.8781     0.9074 H       
  33 H33            0.5048    -0.3659     0.8989 H       
  34 H34           -1.0203    -0.3815    -0.0195 H       
  35 H35            1.0093    -2.3651    -0.3167 H       
  36 H36           -0.3100    -2.2758    -1.5082 H       
  37 H37            2.6704    -2.0706    -2.1340 H       
  38 H38            0.3635    -2.1054    -3.8965 H       
  39 H39            1.8583    -4.3558    -1.4780 H       
  40 H40            0.6481    -4.2619    -2.7798 H       
  41 H41            4.2942    -5.5258    -5.0444 H       
  42 H42            1.1864    -6.2002    -2.1897 H       
  43 H43            1.3842    -8.6270    -2.5453 H       
  44 H44            2.6300    -0.3304    -0.3155 H       
  45 H45            2.6130    -0.3208    -2.0958 H       
  46 H46            3.1050     1.9388    -1.1689 H       
  47 H47            1.5799     1.9232    -2.0873 H       
  48 H48            2.5245     3.6697    -1.7195 H       
  49 H49            2.5597     6.1260    -1.5747 H       
  50 H50            0.2427     3.4992     1.8939 H       
  51 H51            0.5876     8.1013    -0.2006 H       
  52 H52            1.4186     7.9976     1.3701 H       
  53 H53            2.3661     8.0686    -0.1351 H       
  54 H54            2.3404   -10.4115    -3.9359 H       
  55 H55            5.9600    -9.2745    -4.3259 H       
  56 H56            5.8790    -9.9289    -5.9775 H       
  57 H57            4.2927    -8.2478    -6.6523 H       
  58 H58            5.5971    -7.4015    -5.7865 H       
  59 H59           -0.9376     6.3698     2.0882 H       
  60 H60            0.1174     5.5158     3.2398 H       
  61 H61            0.6172     7.0884     2.5725 H       
@<TRIPOS>BOND
   1    1    2 1
   2    1   17 1
   3    1   31 1
   4    1   32 1
   5    2    3 1
   6    2   33 1
   7    2   34 1
   8    3    4 1
   9    3   15 1
  10    4    5 1
  11    4   35 1
  12    4   36 1
  13    5    6 1
  14    5    7 1
  15    5   37 1
  16    6   38 1
  17    7    8 1
  18    7   39 1
  19    7   40 1
  20    8    9 1
  21    9   10 ar
  22    9   11 ar
  23   10   14 ar
  24   10   41 1
  25   11   12 ar
  26   11   42 1
  27   12   13 ar
  28   12   43 1
  29   13   14 ar
  30   13   25 1
  31   14   28 1
  32   15   16 1
  33   15   44 1
  34   15   45 1
  35   16   17 1
  36   16   46 1
  37   16   47 1
  38   17   18 1
  39   18   19 ar
  40   18   23 ar
  41   19   20 ar
  42   19   48 1
  43   20   21 ar
  44   20   49 1
  45   21   22 ar
  46   21   24 1
  47   22   23 ar
  48   22   30 1
  49   23   50 1
  50   24   51 1
  51   24   52 1
  52   24   53 1
  53   25   26 am
  54   25   54 1
  55   26   27 1
  56   26   29 2
  57   27   28 1
  58   27   55 1
  59   27   56 1
  60   28   57 1
  61   28   58 1
  62   30   59 1
  63   30   60 1
  64   30   61 1

#	End of record

