#	Name: ASD03090568
#	Creating user name:	WinNT
#	Creation time:	15. 06. 2019 20:29

#	Modifying user name:	WinNT
#	Modification time:	15. 06. 2019 20:29

#	Program:	/corina/corina34_cracker 3.40 0067  02.08.2006

@<TRIPOS>MOLECULE
ASD03090568
  47   49    0    0    0
SMALL
NO_CHARGES


@<TRIPOS>ATOM
   1 N1            -0.0162     1.3436     0.0094 N.am    
   2 C2             0.1031     0.0011     0.0186 C.2     
   3 O3             1.2015    -0.5123    -0.0735 O.2     
   4 N4            -0.9951    -0.7723     0.1300 N.am    
   5 S5            -2.1643    -3.2739     0.2736 S.3     
   6 C6            -0.8719    -2.1574     0.1395 C.2     
   7 N7             0.2420    -2.8192     0.0474 N.2     
   8 N8             0.1784    -4.0799     0.0714 N.2     
   9 C9            -1.0027    -4.5985     0.1867 C.2     
  10 C10           -1.3264    -6.0694     0.2380 C.3     
  11 C11           -1.3045    -6.5461     1.6917 C.3     
  12 C12           -1.6282    -8.0170     1.7429 C.ar    
  13 C13           -0.6125    -8.9514     1.6637 C.ar    
  14 C14           -0.9095   -10.3007     1.7107 C.ar    
  15 C15           -2.2220   -10.7155     1.8373 C.ar    
  16 C16           -3.2376    -9.7811     1.9175 C.ar    
  17 C17           -2.9402    -8.4318     1.8749 C.ar    
  18 C18            1.1321     2.1499    -0.0211 C.ar    
  19 C19            1.0890     3.4440     0.4924 C.ar    
  20 C20            2.2234     4.2377     0.4611 C.ar    
  21 C21            3.4003     3.7432    -0.0812 C.ar    
  22 C22            3.4420     2.4538    -0.5925 C.ar    
  23 C23            2.3121     1.6571    -0.5572 C.ar    
  24 O24            4.5141     4.5228    -0.1124 O.3     
  25 C25            4.3997     5.8396     0.4307 C.3     
  26 O26           -0.0658     3.9277     1.0234 O.3     
  27 C27           -0.0370     5.2630     1.5314 C.3     
  28 Cl28           4.9163     1.8377    -1.2712 Cl      
  29 H29           -0.8958     1.7524     0.0198 H       
  30 H30           -1.8713    -0.3627     0.2034 H       
  31 H31           -2.3167    -6.2385    -0.1849 H       
  32 H32           -0.5858    -6.6247    -0.3377 H       
  33 H33           -0.3142    -6.3770     2.1146 H       
  34 H34           -2.0450    -5.9908     2.2673 H       
  35 H35            0.4129    -8.6273     1.5648 H       
  36 H36           -0.1161   -11.0307     1.6481 H       
  37 H37           -2.4541   -11.7697     1.8733 H       
  38 H38           -4.2631   -10.1052     2.0161 H       
  39 H39           -3.7333    -7.7017     1.9412 H       
  40 H40            2.1917     5.2414     0.8584 H       
  41 H41            2.3476     0.6521    -0.9512 H       
  42 H42            5.3573     6.3531     0.3433 H       
  43 H43            3.6387     6.3942    -0.1183 H       
  44 H44            4.1160     5.7761     1.4812 H       
  45 H45           -1.0196     5.5234     1.9248 H       
  46 H46            0.7035     5.3327     2.3282 H       
  47 H47            0.2271     5.9515     0.7287 H       
@<TRIPOS>BOND
   1    1    2 am
   2    1   18 1
   3    1   29 1
   4    2    3 2
   5    2    4 am
   6    4    6 1
   7    4   30 1
   8    5    6 1
   9    5    9 1
  10    6    7 2
  11    7    8 1
  12    8    9 2
  13    9   10 1
  14   10   11 1
  15   10   31 1
  16   10   32 1
  17   11   12 1
  18   11   33 1
  19   11   34 1
  20   12   13 ar
  21   12   17 ar
  22   13   14 ar
  23   13   35 1
  24   14   15 ar
  25   14   36 1
  26   15   16 ar
  27   15   37 1
  28   16   17 ar
  29   16   38 1
  30   17   39 1
  31   18   19 ar
  32   18   23 ar
  33   19   20 ar
  34   19   26 1
  35   20   21 ar
  36   20   40 1
  37   21   22 ar
  38   21   24 1
  39   22   23 ar
  40   22   28 1
  41   23   41 1
  42   24   25 1
  43   25   42 1
  44   25   43 1
  45   25   44 1
  46   26   27 1
  47   27   45 1
  48   27   46 1
  49   27   47 1

#	End of record

