#	Name: ASD02030720
#	Creating user name:	WinNT
#	Creation time:	15. 06. 2019 20:15

#	Modifying user name:	WinNT
#	Modification time:	15. 06. 2019 20:15

#	Program:	/corina/corina34_cracker 3.40 0067  02.08.2006

@<TRIPOS>MOLECULE
ASD02030720
  25   26    0    0    0
SMALL
NO_CHARGES


@<TRIPOS>ATOM
   1 N1            -0.0169     1.3957     0.0097 N.2     
   2 N2             0.0021    -0.0041     0.0020 N.am    
   3 C3             1.1646    -0.6797    -0.0123 C.2     
   4 N4             2.3448    -0.0325    -0.0200 N.am    
   5 C5             2.3757     1.3164    -0.0131 C.2     
   6 C6             1.1074     2.0610     0.0026 C.2     
   7 O7             1.1494    -1.8958    -0.0178 O.2     
   8 O8             3.4386     1.9089    -0.0192 O.2     
   9 O9             1.1051     3.4197     0.0094 O.3     
  10 C10           -1.2627    -0.7434     0.0101 C.3     
  11 C11           -1.6892    -1.0085     1.4554 C.3     
  12 N12           -2.9539    -1.7478     1.4635 N.pl3   
  13 N13           -4.1397    -1.3594     0.8267 N.2     
  14 C14           -5.0472    -2.2724     1.0604 C.2     
  15 C15           -4.4694    -3.2701     1.8523 C.2     
  16 C16           -3.1808    -2.9262     2.0808 C.2     
  17 H17            3.1737    -0.5362    -0.0303 H       
  18 H18            0.2211     3.8114     0.0197 H       
  19 H19           -2.0303    -0.1556    -0.4933 H       
  20 H20           -1.1322    -1.6923    -0.5101 H       
  21 H21           -0.9215    -1.5962     1.9587 H       
  22 H22           -1.8197    -0.0596     1.9756 H       
  23 H23           -6.0665    -2.2580     0.7038 H       
  24 H24           -4.9632    -4.1600     2.2137 H       
  25 H25           -2.4632    -3.4919     2.6564 H       
@<TRIPOS>BOND
   1    1    2 1
   2    1    6 2
   3    2    3 am
   4    2   10 1
   5    3    4 am
   6    3    7 2
   7    4    5 am
   8    4   17 1
   9    5    6 1
  10    5    8 2
  11    6    9 1
  12    9   18 1
  13   10   11 1
  14   10   19 1
  15   10   20 1
  16   11   12 1
  17   11   21 1
  18   11   22 1
  19   12   13 1
  20   12   16 1
  21   13   14 2
  22   14   15 1
  23   14   23 1
  24   15   16 2
  25   15   24 1
  26   16   25 1

#	End of record

