#	Name: ASD04780005
#	Creating user name:	WinNT
#	Creation time:	15. 06. 2019 20:52

#	Modifying user name:	WinNT
#	Modification time:	15. 06. 2019 20:52

#	Program:	/corina/corina34_cracker 3.40 0067  02.08.2006

@<TRIPOS>MOLECULE
ASD04780005
  47   50    0    0    0
SMALL
NO_CHARGES


@<TRIPOS>ATOM
   1 C1            -2.4724    -4.7164     2.3787 C.ar    
   2 C2            -1.5423    -3.8609     1.8184 C.ar    
   3 C3            -0.2248    -4.2567     1.6928 C.ar    
   4 C4             0.1657    -5.5155     2.1299 C.ar    
   5 C5            -0.7702    -6.3734     2.6926 C.ar    
   6 C6            -2.0869    -5.9720     2.8157 C.ar    
   7 N7             1.4995    -5.9188     2.0034 N.am    
   8 C8             2.3136    -5.2912     1.1316 C.2     
   9 C9            -0.3506    -7.7406     3.1679 C.3     
  10 C10            3.7789    -5.6398     1.0841 C.3     
  11 O11            1.8667    -4.4459     0.3854 O.2     
  12 S12            4.5995    -4.6316    -0.1812 S.3     
  13 C13            6.3444    -5.0948    -0.0036 C.3     
  14 N14            6.9142    -4.4571     1.1970 N.2     
  15 N15            7.5124    -3.3789     1.1750 N.2     
  16 C16            7.6836    -2.6359     0.0517 C.2     
  17 N17            7.1011    -4.6125    -1.1389 N.3     
  18 N18            6.7827    -4.9245    -2.4162 N.pl3   
  19 C19            6.9760    -3.1193    -1.1772 C.3     
  20 C20            7.6465    -2.8373    -2.4942 C.2     
  21 C21            7.4814    -3.9784    -3.2036 C.2     
  22 C22            7.9585    -4.2023    -4.5877 C.ar    
  23 C23            7.7287    -5.4251    -5.2177 C.ar    
  24 C24            8.1749    -5.6289    -6.5069 C.ar    
  25 C25            8.8510    -4.6212    -7.1759 C.ar    
  26 C26            9.0821    -3.4046    -6.5540 C.ar    
  27 C27            8.6339    -3.1890    -5.2674 C.ar    
  28 F28            9.2865    -4.8255    -8.4383 F       
  29 Cl29          -3.2581    -7.0430     3.5192 Cl      
  30 O30            8.3681    -1.6403     0.0436 O.2     
  31 H31           -3.5009    -4.4028     2.4799 H       
  32 H32           -1.8462    -2.8820     1.4781 H       
  33 H33            0.5009    -3.5876     1.2545 H       
  34 H34            1.8383    -6.6502     2.5430 H       
  35 H35           -0.0444    -7.6840     4.2124 H       
  36 H36           -1.1881    -8.4315     3.0717 H       
  37 H37            0.4842    -8.0951     2.5632 H       
  38 H38            4.2312    -5.4420     2.0559 H       
  39 H39            3.8935    -6.6955     0.8381 H       
  40 H40            6.4353    -6.1783     0.0722 H       
  41 H41            6.2034    -5.6388    -2.7244 H       
  42 H42            5.9362    -2.7925    -1.1862 H       
  43 H43            8.1461    -1.9310    -2.8032 H       
  44 H44            7.2025    -6.2114    -4.6968 H       
  45 H45            7.9974    -6.5755    -6.9955 H       
  46 H46            9.6101    -2.6224    -7.0792 H       
  47 H47            8.8099    -2.2387    -4.7854 H       
@<TRIPOS>BOND
   1    1    2 ar
   2    1    6 ar
   3    1   31 1
   4    2    3 ar
   5    2   32 1
   6    3    4 ar
   7    3   33 1
   8    4    5 ar
   9    4    7 1
  10    5    6 ar
  11    5    9 1
  12    6   29 1
  13    7    8 am
  14    7   34 1
  15    8   10 1
  16    8   11 2
  17    9   35 1
  18    9   36 1
  19    9   37 1
  20   10   12 1
  21   10   38 1
  22   10   39 1
  23   12   13 1
  24   13   14 1
  25   13   17 1
  26   13   40 1
  27   14   15 2
  28   15   16 1
  29   16   19 1
  30   16   30 2
  31   17   18 1
  32   17   19 1
  33   18   21 1
  34   18   41 1
  35   19   20 1
  36   19   42 1
  37   20   21 2
  38   20   43 1
  39   21   22 1
  40   22   23 ar
  41   22   27 ar
  42   23   24 ar
  43   23   44 1
  44   24   25 ar
  45   24   45 1
  46   25   26 ar
  47   25   28 1
  48   26   27 ar
  49   26   46 1
  50   27   47 1

#	End of record

