#	Name: ASD02508003
#	Creating user name:	WinNT
#	Creation time:	15. 06. 2019 20:23

#	Modifying user name:	WinNT
#	Modification time:	15. 06. 2019 20:23

#	Program:	/corina/corina34_cracker 3.40 0067  02.08.2006

@<TRIPOS>MOLECULE
ASD02508003
  53   56    0    0    0
SMALL
NO_CHARGES


@<TRIPOS>ATOM
   1 N1            -0.0181     1.4813     0.0102 N.am    
   2 C2             0.0021    -0.0041     0.0020 C.3     
   3 C3            -0.2070    -0.5047     1.3561 C.3     
   4 N4            -1.4493     0.0834     1.9197 N.am    
   5 S5             1.3824     2.3650     0.0016 S.o2    
   6 C6             1.8074     2.6524    -1.6841 C.ar    
   7 C7             1.3353     3.7769    -2.3325 C.ar    
   8 O8             1.0601     3.6331     0.5559 O.2     
   9 O9             2.3938     1.5194     0.5318 O.2     
  10 C10            2.6178     1.7550    -2.3546 C.ar    
  11 C11            2.9546     1.9772    -3.6775 C.ar    
  12 C12            2.4818     3.0966    -4.3332 C.ar    
  13 C13            1.6712     4.0029    -3.6611 C.ar    
  14 S14           -2.8738    -0.7608     1.9394 S.o2    
  15 C15           -2.9315    -1.6510     3.4589 C.ar    
  16 O16           -3.9128     0.2067     2.0015 O.2     
  17 C17           -3.4977    -1.0700     4.5777 C.ar    
  18 O18           -2.7782    -1.7335     0.9079 O.2     
  19 C19           -3.5439    -1.7682     5.7752 C.ar    
  20 C20           -3.0225    -3.0545     5.8458 C.ar    
  21 C21           -2.4550    -3.6315     4.7193 C.ar    
  22 C22           -2.4154    -2.9317     3.5283 C.ar    
  23 O23           -4.0974    -1.1800     6.8707 O.3     
  24 C24           -4.4627    -2.0461     7.9507 C.3     
  25 C25           -3.2985    -3.0125     8.2070 C.3     
  26 O26           -3.0646    -3.7604     7.0087 O.3     
  27 C27           -1.2923     2.1104     0.0197 C.3     
  28 C28           -1.3611     1.4022     2.4415 C.3     
  29 C29           -1.8028     2.5271     1.4378 C.3     
  30 N30            1.1912     5.1362    -4.3214 N.pl3   
  31 H31           -0.7907    -0.3741    -0.6481 H       
  32 H32            0.9664    -0.3518    -0.3685 H       
  33 H33           -0.2984    -1.5905     1.3314 H       
  34 H34            0.6418    -0.2266     1.9808 H       
  35 H35            0.7054     4.4795    -1.8071 H       
  36 H36            2.9890     0.8786    -1.8440 H       
  37 H37            3.5884     1.2745    -4.1981 H       
  38 H38            2.7451     3.2695    -5.3663 H       
  39 H39           -3.9043    -0.0712     4.5195 H       
  40 H40           -2.0469    -4.6301     4.7722 H       
  41 H41           -1.9730    -3.3829     2.6525 H       
  42 H42           -4.6542    -1.4556     8.8467 H       
  43 H43           -5.3564    -2.6099     7.6835 H       
  44 H44           -2.4033    -2.4484     8.4689 H       
  45 H45           -3.5565    -3.6916     9.0197 H       
  46 H46           -1.2412     3.0026    -0.6044 H       
  47 H47           -2.0179     1.4268    -0.4210 H       
  48 H48           -1.9905     1.4648     3.3293 H       
  49 H49           -0.3294     1.5865     2.7411 H       
  50 H50           -1.3514     3.4750     1.7308 H       
  51 H51           -2.8888     2.6195     1.4287 H       
  52 H52            1.4237     5.2913    -5.2503 H       
  53 H53            0.6253     5.7683    -3.8511 H       
@<TRIPOS>BOND
   1    1    2 1
   2    1    5 am
   3    1   27 1
   4    2    3 1
   5    2   31 1
   6    2   32 1
   7    3    4 1
   8    3   33 1
   9    3   34 1
  10    4   14 am
  11    4   28 1
  12    5    6 1
  13    5    9 2
  14    5    8 2
  15    6    7 ar
  16    6   10 ar
  17    7   13 ar
  18    7   35 1
  19   10   11 ar
  20   10   36 1
  21   11   12 ar
  22   11   37 1
  23   12   13 ar
  24   12   38 1
  25   13   30 1
  26   14   15 1
  27   14   16 2
  28   14   18 2
  29   15   17 ar
  30   15   22 ar
  31   17   19 ar
  32   17   39 1
  33   19   20 ar
  34   19   23 1
  35   20   21 ar
  36   20   26 1
  37   21   22 ar
  38   21   40 1
  39   22   41 1
  40   23   24 1
  41   24   25 1
  42   24   42 1
  43   24   43 1
  44   25   26 1
  45   25   44 1
  46   25   45 1
  47   27   29 1
  48   27   46 1
  49   27   47 1
  50   28   29 1
  51   28   48 1
  52   28   49 1
  53   29   50 1
  54   29   51 1
  55   30   52 1
  56   30   53 1

#	End of record

