#	Name: ASD01140244
#	Creating user name:	WinNT
#	Creation time:	15. 06. 2019 19:00

#	Modifying user name:	WinNT
#	Modification time:	15. 06. 2019 19:00

#	Program:	/corina/corina34_cracker 3.40 0067  02.08.2006

@<TRIPOS>MOLECULE
ASD01140244
  79   84    0    0    0
SMALL
NO_CHARGES


@<TRIPOS>ATOM
   1 C1             0.2032     0.7075     1.0356 C.2     
   2 C2             0.3866    -0.6355     1.1121 C.2     
   3 S3             2.0782    -1.0214     0.8478 S.3     
   4 C4             2.4814     0.6823     0.6412 C.2     
   5 C5             1.3452     1.4513     0.7758 C.2     
   6 C6             3.8376     1.1760     0.3693 C.2     
   7 N7             4.3003     2.2769     0.8778 N.2     
   8 C8             3.5099     3.0901     1.7972 C.3     
   9 C9             2.2982     3.6346     1.1002 C.2     
  10 N10            1.3103     2.8556     0.6637 N.am    
  11 C11           -0.6456    -1.5938     1.3706 C.1     
  12 C12            0.1415     3.4831     0.0422 C.3     
  13 O13            2.2148     4.8323     0.9276 O.2     
  14 O14            8.5799     2.2779     9.7332 O.2     
  15 C15            7.5565     2.8494    10.0451 C.2     
  16 N16            7.3426     4.0781     9.5780 N.am    
  17 C17            8.3264     4.6646     8.6645 C.3     
  18 C18            6.5794     2.1417    10.9367 C.3     
  19 N19            6.4894     2.8183    12.2272 N.2     
  20 C20            6.0324     4.0284    12.3335 C.2     
  21 C21            5.6105     4.8243    11.1735 C.2     
  22 C22            6.2072     4.8362     9.9272 C.2     
  23 S23            4.2298     5.9205    11.1831 S.3     
  24 C24            4.5072     6.3566     9.5058 C.2     
  25 C25            5.5836     5.6857     9.0250 C.2     
  26 C26            3.7136     7.2814     8.7537 C.1     
  27 C27           -1.4919    -2.3794     1.5826 C.1     
  28 C28            3.0630     8.0396     8.1372 C.1     
  29 C29            5.9317     4.6325    13.6826 C.ar    
  30 C30            6.2094     3.8663    14.8168 C.ar    
  31 C31            6.1137     4.4374    16.0726 C.ar    
  32 C32            5.7441     5.7629    16.2051 C.ar    
  33 C33            5.4679     6.5261    15.0842 C.ar    
  34 C34            5.5648     5.9702    13.8253 C.ar    
  35 C35            4.7153     0.3832    -0.5232 C.ar    
  36 C36            4.2128    -0.7361    -1.1856 C.ar    
  37 C37            5.0345    -1.4702    -2.0157 C.ar    
  38 C38            6.3559    -1.0992    -2.1925 C.ar    
  39 C39            6.8626     0.0089    -1.5392 C.ar    
  40 C40            6.0481     0.7572    -0.7091 C.ar    
  41 C41            2.2899     1.9477     5.1958 C.3     
  42 O42            3.4459     1.3398     5.7755 O.3     
  43 C43            4.2092     2.2170     6.6061 C.3     
  44 O44            3.5307     2.4059     7.8496 O.3     
  45 C45            3.6183     1.2878     8.7351 C.3     
  46 F46            6.5432     1.8403    -0.0711 F       
  47 F47            6.5702     2.5708    14.6875 F       
  48 C48            5.2221     2.1334    10.2820 C.2     
  49 O49            4.9457     1.2375     9.3214 O.3     
  50 O50            4.3825     2.9331    10.6217 O.2     
  51 C51            3.0750     2.2427     2.9651 C.2     
  52 O52            2.6963     2.8259     4.1132 O.3     
  53 O53            3.0672     1.0384     2.8679 O.2     
  54 H54           -0.7665     1.1653     1.1637 H       
  55 H55            4.1187     3.9175     2.1618 H       
  56 H56            0.2718     4.5652     0.0333 H       
  57 H57            0.0358     3.1214    -0.9806 H       
  58 H58           -0.7528     3.2295     0.6115 H       
  59 H59            9.1363     3.9544     8.4981 H       
  60 H60            7.8462     4.8973     7.7140 H       
  61 H61            8.7286     5.5785     9.1017 H       
  62 H62            6.9095     1.1143    11.0901 H       
  63 H63            5.9306     5.8033     8.0091 H       
  64 H64           -2.2487    -3.0820     1.7722 H       
  65 H65            2.4811     8.7178     7.5858 H       
  66 H66            6.3276     3.8469    16.9512 H       
  67 H67            5.6702     6.2048    17.1878 H       
  68 H68            5.1794     7.5609    15.1951 H       
  69 H69            5.3491     6.5680    12.9520 H       
  70 H70            3.1821    -1.0281    -1.0488 H       
  71 H71            4.6454    -2.3372    -2.5289 H       
  72 H72            6.9944    -1.6781    -2.8433 H       
  73 H73            7.8949     0.2929    -1.6807 H       
  74 H74            1.6286     1.1734     4.8068 H       
  75 H75            1.7643     2.5265     5.9553 H       
  76 H76            5.1907     1.7803     6.7905 H       
  77 H77            4.3273     3.1788     6.1070 H       
  78 H78            2.8755     1.3918     9.5261 H       
  79 H79            3.4313     0.3688     8.1796 H       
@<TRIPOS>BOND
   1    1    2 2
   2    1    5 1
   3    1   54 1
   4    2    3 1
   5    2   11 1
   6    3    4 1
   7    4    5 2
   8    4    6 1
   9    5   10 1
  10    6    7 2
  11    6   35 1
  12    7    8 1
  13    8    9 1
  14    8   51 1
  15    8   55 1
  16    9   10 am
  17    9   13 2
  18   10   12 1
  19   11   27 3
  20   12   56 1
  21   12   57 1
  22   12   58 1
  23   14   15 2
  24   15   16 am
  25   15   18 1
  26   16   17 1
  27   16   22 1
  28   17   59 1
  29   17   60 1
  30   17   61 1
  31   18   19 1
  32   18   48 1
  33   18   62 1
  34   19   20 2
  35   20   21 1
  36   20   29 1
  37   21   22 2
  38   21   23 1
  39   22   25 1
  40   23   24 1
  41   24   25 2
  42   24   26 1
  43   25   63 1
  44   26   28 3
  45   27   64 1
  46   28   65 1
  47   29   30 ar
  48   29   34 ar
  49   30   31 ar
  50   30   47 1
  51   31   32 ar
  52   31   66 1
  53   32   33 ar
  54   32   67 1
  55   33   34 ar
  56   33   68 1
  57   34   69 1
  58   35   36 ar
  59   35   40 ar
  60   36   37 ar
  61   36   70 1
  62   37   38 ar
  63   37   71 1
  64   38   39 ar
  65   38   72 1
  66   39   40 ar
  67   39   73 1
  68   40   46 1
  69   41   42 1
  70   41   52 1
  71   41   74 1
  72   41   75 1
  73   42   43 1
  74   43   44 1
  75   43   76 1
  76   43   77 1
  77   44   45 1
  78   45   49 1
  79   45   78 1
  80   45   79 1
  81   48   49 1
  82   48   50 2
  83   51   52 1
  84   51   53 2

#	End of record

