#	Name: ASD01410603
#	Creating user name:	WinNT
#	Creation time:	15. 06. 2019 19:18

#	Modifying user name:	WinNT
#	Modification time:	15. 06. 2019 19:18

#	Program:	/corina/corina34_cracker 3.40 0067  02.08.2006

@<TRIPOS>MOLECULE
ASD01410603
  75   78    0    0    0
SMALL
NO_CHARGES


@<TRIPOS>ATOM
   1 C1            -2.4794     3.2458     2.0075 C.2     
   2 O2            -2.5352     2.6994     0.7648 O.3     
   3 C3            -3.1654     1.5035     0.6212 C.ar    
   4 C4            -4.5470     1.4282     0.7540 C.ar    
   5 C5            -5.1968     0.2192     0.6102 C.ar    
   6 C6            -4.4734    -0.9319     0.3308 C.ar    
   7 C7            -3.0784    -0.8627     0.1950 C.ar    
   8 C8            -2.4304     0.3666     0.3377 C.ar    
   9 N9            -5.1304    -2.1530     0.1861 N.am    
  10 C10           -5.5566    -2.5489    -1.0297 C.2     
  11 C11           -5.3575    -3.0057     1.3555 C.3     
  12 O12           -6.2031    -3.5688    -1.1431 O.2     
  13 C13           -5.2300    -1.7244    -2.2480 C.3     
  14 C14           -6.3889    -1.8045    -3.2437 C.3     
  15 C15           -6.0573    -0.9673    -4.4807 C.3     
  16 C16           -4.7841    -1.5070    -5.1355 C.3     
  17 C17           -3.6252    -1.4270    -4.1398 C.3     
  18 C18           -3.9569    -2.2641    -2.9028 C.3     
  19 C19           -4.4525    -0.6699    -6.3725 C.3     
  20 C20           -4.5958    -2.4393     2.5554 C.3     
  21 O21           -7.5494    -3.6988     0.6100 O.3     
  22 C22           -6.8534    -3.0466     1.6741 C.3     
  23 C23           -8.9615    -3.7903     0.8093 C.3     
  24 O24           -3.1908    -2.5103     2.3043 O.3     
  25 C25           -2.3837    -2.0036     3.3692 C.3     
  26 S26           -3.2420     2.5778     3.4447 S.3     
  27 C27           -1.8305     4.3729     2.3274 C.2     
  28 C28           -1.9161     4.7329     3.6626 C.2     
  29 C29           -2.6282     3.9031     4.4244 C.2     
  30 C30           -2.8696     4.0736     5.9021 C.3     
  31 N31           -4.0886     4.8592     6.1103 N.pl3   
  32 C32           -5.1557     4.4850     6.8533 C.2     
  33 C33           -6.0465     5.5008     6.7721 C.2     
  34 N34           -5.4881     6.4345     5.9937 N.2     
  35 N35           -4.3261     6.0263     5.6222 N.2     
  36 C36           -1.0663     5.1859     1.3144 C.3     
  37 F37           -0.4991     6.2999     1.9424 F       
  38 F38           -0.0533     4.4002     0.7543 F       
  39 F39           -1.9372     5.6122     0.3059 F       
  40 C40           -2.3016    -2.0798    -0.1011 C.2     
  41 O41           -2.8749    -3.1303    -0.3117 O.2     
  42 O42           -0.9555    -2.0276    -0.1384 O.3     
  43 H43           -5.1150     2.3207     0.9714 H       
  44 H44           -6.2704     0.1685     0.7155 H       
  45 H45           -1.3572     0.4278     0.2342 H       
  46 H46           -5.0035    -4.0146     1.1437 H       
  47 H47           -5.0751    -0.6864    -1.9535 H       
  48 H48           -6.5438    -2.8424    -3.5383 H       
  49 H49           -7.2959    -1.4200    -2.7773 H       
  50 H50           -6.8829    -1.0244    -5.1901 H       
  51 H51           -5.9024     0.0706    -4.1862 H       
  52 H52           -4.9390    -2.5450    -5.4300 H       
  53 H53           -2.7182    -1.8115    -4.6062 H       
  54 H54           -3.4704    -0.3890    -3.8452 H       
  55 H55           -3.1312    -2.2070    -2.1934 H       
  56 H56           -4.1117    -3.3020    -3.1974 H       
  57 H57           -4.2977     0.3680    -6.0779 H       
  58 H58           -3.5455    -1.0544    -6.8389 H       
  59 H59           -5.2781    -0.7270    -7.0818 H       
  60 H60           -4.8849    -1.4000     2.7116 H       
  61 H61           -4.8357    -3.0209     3.4455 H       
  62 H62           -7.0123    -3.5954     2.6024 H       
  63 H63           -7.2293    -2.0294     1.7845 H       
  64 H64           -9.3811    -2.7886     0.9017 H       
  65 H65           -9.4163    -4.2977    -0.0415 H       
  66 H66           -9.1642    -4.3546     1.7196 H       
  67 H67           -2.5777    -2.5762     4.2762 H       
  68 H68           -1.3309    -2.0930     3.1014 H       
  69 H69           -2.6269    -0.9553     3.5423 H       
  70 H70           -1.4401     5.6185     4.0568 H       
  71 H71           -2.9847     3.0944     6.3669 H       
  72 H72           -2.0223     4.5918     6.3513 H       
  73 H73           -5.2732     3.5615     7.4007 H       
  74 H74           -7.0173     5.5482     7.2430 H       
  75 H75           -0.4895    -2.8513    -0.3367 H       
@<TRIPOS>BOND
   1    1    2 1
   2    1   27 2
   3    1   26 1
   4    2    3 1
   5    3    4 ar
   6    3    8 ar
   7    4    5 ar
   8    4   43 1
   9    5    6 ar
  10    5   44 1
  11    6    7 ar
  12    6    9 1
  13    7    8 ar
  14    7   40 1
  15    8   45 1
  16    9   10 am
  17    9   11 1
  18   10   12 2
  19   10   13 1
  20   11   20 1
  21   11   22 1
  22   11   46 1
  23   13   14 1
  24   13   18 1
  25   13   47 1
  26   14   15 1
  27   14   48 1
  28   14   49 1
  29   15   16 1
  30   15   50 1
  31   15   51 1
  32   16   17 1
  33   16   19 1
  34   16   52 1
  35   17   18 1
  36   17   53 1
  37   17   54 1
  38   18   55 1
  39   18   56 1
  40   19   57 1
  41   19   58 1
  42   19   59 1
  43   20   24 1
  44   20   60 1
  45   20   61 1
  46   21   22 1
  47   21   23 1
  48   22   62 1
  49   22   63 1
  50   23   64 1
  51   23   65 1
  52   23   66 1
  53   24   25 1
  54   25   67 1
  55   25   68 1
  56   25   69 1
  57   26   29 1
  58   27   28 1
  59   27   36 1
  60   28   29 2
  61   28   70 1
  62   29   30 1
  63   30   31 1
  64   30   71 1
  65   30   72 1
  66   31   32 1
  67   31   35 1
  68   32   33 2
  69   32   73 1
  70   33   34 1
  71   33   74 1
  72   34   35 2
  73   36   37 1
  74   36   38 1
  75   36   39 1
  76   40   41 2
  77   40   42 1
  78   42   75 1

#	End of record

