#	Name: ASD01141049
#	Creating user name:	WinNT
#	Creation time:	15. 06. 2019 19:01

#	Modifying user name:	WinNT
#	Modification time:	15. 06. 2019 19:01

#	Program:	/corina/corina34_cracker 3.40 0067  02.08.2006

@<TRIPOS>MOLECULE
ASD01141049
  75   79    0    0    0
SMALL
NO_CHARGES


@<TRIPOS>ATOM
   1 C1            -0.0825     2.9571    -0.4873 C.3     
   2 C2            -0.3974     1.4635    -0.5560 C.3     
   3 C3             0.1647     0.7452     0.6722 C.3     
   4 C4             1.6746     0.9745     0.7508 C.3     
   5 C5             1.9745     2.4670     0.8613 C.3     
   6 C6             1.4261     3.1810    -0.3733 C.3     
   7 C7             2.2676     0.2042     1.9275 C.3     
   8 C8             3.7846     0.4241     1.9850 C.3     
   9 C9             4.1939     1.3318     0.8244 C.3     
  10 C10            3.4925     2.6797     0.9713 C.3     
  11 C11            5.6757     1.4723     0.6860 C.3     
  12 C12            6.1808     2.9148     0.9038 C.3     
  13 C13            5.5159     3.8433    -0.0738 C.3     
  14 C14            3.9855     3.6972    -0.0384 C.3     
  15 C15            6.5771     0.6930     1.6565 C.3     
  16 C16            7.9723     1.2941     1.3118 C.3     
  17 C17            7.7032     2.7212     0.7641 C.3     
  18 H18           -1.4825     1.3288    -0.5807 H       
  19 O19            0.1680     0.9047    -1.7424 O.3     
  20 C20            1.3309     3.0563     2.1204 C.3     
  21 H21            2.1163     0.5914    -0.1785 H       
  22 C22            5.9723     3.4052     2.3428 C.3     
  23 C23            8.4286     3.7558     1.6282 C.3     
  24 C24            8.1621     2.8233    -0.6854 C.3     
  25 O25            8.0730     5.0707     1.1961 O.3     
  26 H26            8.1392     3.6254     2.6710 H       
  27 C27            9.8831     3.5724     1.4961 C.1     
  28 C28           11.0432     3.4262     1.3907 C.1     
  29 C29           12.4582     3.2478     1.2621 C.ar    
  30 C30           13.3346     4.0796     1.9607 C.ar    
  31 C31           14.6962     3.9044     1.8347 C.ar    
  32 C32           15.1961     2.9022     1.0137 C.ar    
  33 C33           14.3274     2.0729     0.3167 C.ar    
  34 C34           12.9645     2.2379     0.4423 C.ar    
  35 O35           16.5386     2.7329     0.8918 O.3     
  36 C36           16.9845     1.6832     0.0308 C.3     
  37 H37           -0.4390     3.4345    -1.4080 H       
  38 H38           -0.6031     3.4090     0.3529 H       
  39 H39           -0.3296     1.0988     1.5712 H       
  40 H40           -0.0243    -0.3291     0.5702 H       
  41 H41            1.9138     2.7882    -1.2672 H       
  42 H42            1.6250     4.2509    -0.2948 H       
  43 H43            1.8133     0.5205     2.8629 H       
  44 H44            2.0719    -0.8645     1.7890 H       
  45 H45            4.0485     0.8959     2.9304 H       
  46 H46            4.2945    -0.5346     1.8964 H       
  47 H47            3.8245     0.8579    -0.1061 H       
  48 H48            3.6328     3.0617     1.9873 H       
  49 H49            5.9522     1.1542    -0.3430 H       
  50 H50            5.7800     4.8837     0.1666 H       
  51 H51            5.8460     3.6488    -1.1013 H       
  52 H52            3.6456     3.4096    -1.0428 H       
  53 H53            3.5445     4.6769     0.1880 H       
  54 H54            6.3147     0.8568     2.6914 H       
  55 H55            6.5598    -0.3723     1.4163 H       
  56 H56            8.5842     1.3494     2.2100 H       
  57 H57            8.4607     0.6882     0.5519 H       
  58 H58           -0.1627     1.3011    -2.5601 H       
  59 H59            1.7268     2.5510     3.0013 H       
  60 H60            1.5570     4.1209     2.1798 H       
  61 H61            0.2508     2.9162     2.0758 H       
  62 H62            6.6311     2.8538     3.0136 H       
  63 H63            6.2022     4.4691     2.4011 H       
  64 H64            4.9353     3.2410     2.6359 H       
  65 H65            7.9072     3.8074    -1.0788 H       
  66 H66            9.2416     2.6805    -0.7356 H       
  67 H67            7.6660     2.0552    -1.2786 H       
  68 H68            8.3017     5.2574     0.2753 H       
  69 H69           12.9466     4.8597     2.5989 H       
  70 H70           15.3750     4.5476     2.3750 H       
  71 H71           14.7199     1.2949    -0.3212 H       
  72 H72           12.2894     1.5923    -0.0999 H       
  73 H73           16.6007     0.7292     0.3920 H       
  74 H74           16.6189     1.8626    -0.9803 H       
  75 H75           18.0742     1.6573     0.0238 H       
@<TRIPOS>BOND
   1    1    2 1
   2    1    6 1
   3    1   37 1
   4    1   38 1
   5    2    3 1
   6    2   18 1
   7    2   19 1
   8    3    4 1
   9    3   39 1
  10    3   40 1
  11    4    5 1
  12    4    7 1
  13    4   21 1
  14    5    6 1
  15    5   20 1
  16    5   10 1
  17    6   41 1
  18    6   42 1
  19    7    8 1
  20    7   43 1
  21    7   44 1
  22    8    9 1
  23    8   45 1
  24    8   46 1
  25    9   10 1
  26    9   11 1
  27    9   47 1
  28   10   14 1
  29   10   48 1
  30   11   12 1
  31   11   15 1
  32   11   49 1
  33   12   13 1
  34   12   17 1
  35   12   22 1
  36   13   14 1
  37   13   50 1
  38   13   51 1
  39   14   52 1
  40   14   53 1
  41   15   16 1
  42   15   54 1
  43   15   55 1
  44   16   17 1
  45   16   56 1
  46   16   57 1
  47   17   23 1
  48   17   24 1
  49   19   58 1
  50   20   59 1
  51   20   60 1
  52   20   61 1
  53   22   62 1
  54   22   63 1
  55   22   64 1
  56   23   25 1
  57   23   26 1
  58   23   27 1
  59   24   65 1
  60   24   66 1
  61   24   67 1
  62   25   68 1
  63   27   28 3
  64   28   29 1
  65   29   30 ar
  66   29   34 ar
  67   30   31 ar
  68   30   69 1
  69   31   32 ar
  70   31   70 1
  71   32   33 ar
  72   32   35 1
  73   33   34 ar
  74   33   71 1
  75   34   72 1
  76   35   36 1
  77   36   73 1
  78   36   74 1
  79   36   75 1

#	End of record

