#	Name: ASD02030112
#	Creating user name:	WinNT
#	Creation time:	15. 06. 2019 20:14

#	Modifying user name:	WinNT
#	Modification time:	15. 06. 2019 20:14

#	Program:	/corina/corina34_cracker 3.40 0067  02.08.2006

@<TRIPOS>MOLECULE
ASD02030112
  72   77    0    0    0
SMALL
NO_CHARGES


@<TRIPOS>ATOM
   1 N1            -1.0931     1.7944    -0.5274 N.am    
   2 C2            -0.9414     0.3340    -0.4638 C.3     
   3 C3            -1.6582    -0.1791     0.7912 C.3     
   4 N4            -3.0108     0.3947     0.8270 N.am    
   5 C5            -3.1626     1.8551     0.7634 C.3     
   6 C6            -2.4454     2.3684    -0.4860 C.3     
   7 C7            -0.0113     2.5932    -0.6165 C.2     
   8 C8             1.3455     2.0127    -0.5284 C.2     
   9 N9             2.4742     2.6872    -0.4841 N.2     
  10 N10            1.6432     0.7016    -0.4736 N.2     
  11 C11            2.9461     0.6013    -0.4022 C.2     
  12 N12            3.4522     1.8516    -0.4097 N.pl3   
  13 O13           -0.1512     3.7910    -0.7693 O.2     
  14 C14           -4.0926    -0.4041     0.9161 C.2     
  15 C15           -3.9310    -1.8730     0.8875 C.ar    
  16 O16           -5.2013     0.0834     1.0201 O.2     
  17 C17           -2.3555     3.8949    -0.4357 C.3     
  18 C18           -3.2169     1.9368    -1.7347 C.3     
  19 C19            4.8119     2.1853    -0.3475 C.ar    
  20 C20            5.2026     3.5177    -0.3632 C.ar    
  21 C21            6.5434     3.8434    -0.3019 C.ar    
  22 C22            7.4963     2.8443    -0.2253 C.ar    
  23 C23            7.1104     1.5165    -0.2094 C.ar    
  24 C24            5.7708     1.1846    -0.2643 C.ar    
  25 C25           -4.7651    -2.6496     0.0656 C.ar    
  26 C26           -4.6349    -4.0058     0.0225 C.ar    
  27 C27           -3.6529    -4.6436     0.8095 C.ar    
  28 C28           -2.8073    -3.8666     1.6410 C.ar    
  29 C29           -2.9548    -2.4718     1.6669 C.ar    
  30 O30           -5.4498    -4.7421    -0.7768 O.3     
  31 C31           -6.4604    -4.0361    -1.4995 C.3     
  32 C32           -6.8937    -4.8503    -2.7312 C.3     
  33 C33           -3.4983    -6.0387     0.7840 C.ar    
  34 C34           -2.5420    -6.6263     1.5550 C.ar    
  35 C35           -1.7106    -5.8634     2.3728 C.ar    
  36 C36           -1.8305    -4.5087     2.4235 C.ar    
  37 C37           -8.3979    -5.1452    -2.5576 C.3     
  38 C38           -8.8973    -4.0268    -1.6095 C.3     
  39 C39           -7.7164    -3.8647    -0.6204 C.3     
  40 H40           -1.3860    -0.1189    -1.3500 H       
  41 H41            0.1169     0.0781    -0.4110 H       
  42 H42           -1.7230    -1.2666     0.7567 H       
  43 H43           -1.1065     0.1290     1.6793 H       
  44 H44           -4.2208     2.1110     0.7106 H       
  45 H45           -2.7180     2.3080     1.6496 H       
  46 H46            3.5131    -0.3161    -0.3445 H       
  47 H47           -1.7055     4.1938     0.3866 H       
  48 H48           -1.9465     4.2659    -1.3755 H       
  49 H49           -3.3506     4.3126    -0.2825 H       
  50 H50           -4.2248     2.3504    -1.7001 H       
  51 H51           -2.7039     2.3037    -2.6237 H       
  52 H52           -3.2717     0.8487    -1.7699 H       
  53 H53            4.4589     4.2984    -0.4238 H       
  54 H54            6.8479     4.8795    -0.3141 H       
  55 H55            8.5442     3.1015    -0.1781 H       
  56 H56            7.8569     0.7384    -0.1495 H       
  57 H57            5.4700     0.1474    -0.2515 H       
  58 H58           -5.5184    -2.1663    -0.5389 H       
  59 H59           -2.3165    -1.8694     2.2963 H       
  60 H60           -6.0849    -3.0610    -1.8097 H       
  61 H61           -6.7292    -4.2700    -3.6391 H       
  62 H62           -6.3331    -5.7839    -2.7777 H       
  63 H63           -4.1356    -6.6434     0.1558 H       
  64 H64           -2.4263    -7.6998     1.5325 H       
  65 H65           -0.9602    -6.3542     2.9747 H       
  66 H66           -1.1795    -3.9297     3.0617 H       
  67 H67           -8.9109    -5.0887    -3.5177 H       
  68 H68           -8.5446    -6.1248    -2.1027 H       
  69 H69           -9.0698    -3.1021    -2.1601 H       
  70 H70           -9.8002    -4.3396    -1.0851 H       
  71 H71           -7.7531    -4.6375     0.1474 H       
  72 H72           -7.7321    -2.8737    -0.1667 H       
@<TRIPOS>BOND
   1    1    2 1
   2    1    7 am
   3    1    6 1
   4    2    3 1
   5    2   40 1
   6    2   41 1
   7    3    4 1
   8    3   42 1
   9    3   43 1
  10    4    5 1
  11    4   14 am
  12    5    6 1
  13    5   44 1
  14    5   45 1
  15    6   17 1
  16    6   18 1
  17    7    8 1
  18    7   13 2
  19    8    9 2
  20    8   10 1
  21    9   12 1
  22   10   11 2
  23   11   12 1
  24   11   46 1
  25   12   19 1
  26   14   15 1
  27   14   16 2
  28   15   25 ar
  29   15   29 ar
  30   17   47 1
  31   17   48 1
  32   17   49 1
  33   18   50 1
  34   18   51 1
  35   18   52 1
  36   19   20 ar
  37   19   24 ar
  38   20   21 ar
  39   20   53 1
  40   21   22 ar
  41   21   54 1
  42   22   23 ar
  43   22   55 1
  44   23   24 ar
  45   23   56 1
  46   24   57 1
  47   25   26 ar
  48   25   58 1
  49   26   27 ar
  50   26   30 1
  51   27   28 ar
  52   27   33 ar
  53   28   29 ar
  54   28   36 ar
  55   29   59 1
  56   30   31 1
  57   31   32 1
  58   31   39 1
  59   31   60 1
  60   32   37 1
  61   32   61 1
  62   32   62 1
  63   33   34 ar
  64   33   63 1
  65   34   35 ar
  66   34   64 1
  67   35   36 ar
  68   35   65 1
  69   36   66 1
  70   37   38 1
  71   37   67 1
  72   37   68 1
  73   38   39 1
  74   38   69 1
  75   38   70 1
  76   39   71 1
  77   39   72 1

#	End of record

