#	Name: ASD05940068
#	Creating user name:	WinNT
#	Creation time:	15. 06. 2019 21:04

#	Modifying user name:	WinNT
#	Modification time:	15. 06. 2019 21:04

#	Program:	/corina/corina34_cracker 3.40 0067  02.08.2006

@<TRIPOS>MOLECULE
ASD05940068
  66   69    0    0    0
SMALL
NO_CHARGES


@<TRIPOS>ATOM
   1 N1             0.7176     1.7927     0.6500 N.ar    
   2 C2             0.4804     0.5014     0.4919 C.ar    
   3 N3             1.4545    -0.3776     0.3193 N.ar    
   4 C4             2.7257     0.0149     0.2989 C.ar    
   5 C5             3.0144     1.3693     0.4588 C.ar    
   6 C6             1.9645     2.2645     0.6394 C.ar    
   7 N7             4.3498     1.8057     0.4307 N.am    
   8 N8             2.2104     3.6207     0.8056 N.pl3   
   9 O9            -0.8021     0.0638     0.5075 O.3     
  10 C10           -1.8210     1.0477     0.6970 C.3     
  11 C11           -3.1927     0.3701     0.6859 C.3     
  12 N12            3.7487    -0.9019     0.1277 N.3     
  13 C13            4.8567    -0.3514    -0.6591 C.3     
  14 C14            5.2825     0.9807    -0.0981 C.2     
  15 O15            6.4499     1.3099    -0.1200 O.2     
  16 C16            3.2459    -2.1461    -0.4699 C.3     
  17 C17           -4.2836     1.4235     0.8888 C.3     
  18 C18           -5.6553     0.7459     0.8776 C.3     
  19 C19            6.0395    -1.3209    -0.6162 C.3     
  20 C20            4.4067    -0.1697    -2.1101 C.3     
  21 C21            2.3578    -2.8556     0.5195 C.ar    
  22 C22            0.9843    -2.7310     0.4285 C.ar    
  23 C23            0.1695    -3.3818     1.3363 C.ar    
  24 C24            0.7284    -4.1574     2.3345 C.ar    
  25 C25            2.1023    -4.2827     2.4249 C.ar    
  26 C26            2.9167    -3.6356     1.5148 C.ar    
  27 C27            2.7118    -5.1280     3.5135 C.3     
  28 N28            2.8638    -6.5084     3.0345 N.3     
  29 C29            3.6688    -7.3086     3.9755 C.3     
  30 C30            2.8132    -8.5241     4.3902 C.3     
  31 C31            1.7935    -8.6467     3.2274 C.3     
  32 C32            1.5469    -7.1599     2.8694 C.3     
  33 H33            4.5965     2.6757     0.7817 H       
  34 H34            3.1216     3.9531     0.7965 H       
  35 H35            1.4709     4.2359     0.9308 H       
  36 H36           -1.6702     1.5472     1.6541 H       
  37 H37           -1.7717     1.7815    -0.1075 H       
  38 H38           -3.3434    -0.1294    -0.2712 H       
  39 H39           -3.2420    -0.3637     1.4904 H       
  40 H40            2.6748    -1.9127    -1.3686 H       
  41 H41            4.0862    -2.7896    -0.7304 H       
  42 H42           -4.1328     1.9230     1.8458 H       
  43 H43           -4.2343     2.1573     0.0843 H       
  44 H44           -5.7046     0.0121     1.6822 H       
  45 H45           -6.4325     1.4964     1.0222 H       
  46 H46           -5.8060     0.2464    -0.0794 H       
  47 H47            5.7376    -2.2812    -1.0343 H       
  48 H48            6.8646    -0.9135    -1.2006 H       
  49 H49            6.3592    -1.4586     0.4167 H       
  50 H50            3.4986     0.4325    -2.1362 H       
  51 H51            5.1925     0.3331    -2.6739 H       
  52 H52            4.2086    -1.1453    -2.5540 H       
  53 H53            0.5475    -2.1249    -0.3514 H       
  54 H54           -0.9037    -3.2839     1.2656 H       
  55 H55            0.0920    -4.6652     3.0440 H       
  56 H56            3.9899    -3.7335     1.5854 H       
  57 H57            3.6892    -4.7266     3.7810 H       
  58 H58            2.0624    -5.1166     4.3889 H       
  59 H59            4.5823    -7.6475     3.4869 H       
  60 H60            3.9150    -6.7116     4.8536 H       
  61 H61            3.4274    -9.4218     4.4604 H       
  62 H62            2.3013    -8.3314     5.3330 H       
  63 H63            2.2260    -9.1849     2.3839 H       
  64 H64            0.8736    -9.1251     3.5636 H       
  65 H65            0.8183    -6.7212     3.5512 H       
  66 H66            1.2054    -7.0695     1.8382 H       
@<TRIPOS>BOND
   1    1    2 ar
   2    1    6 ar
   3    2    3 ar
   4    2    9 1
   5    3    4 ar
   6    4    5 ar
   7    4   12 1
   8    5    6 ar
   9    5    7 1
  10    6    8 1
  11    7   14 am
  12    7   33 1
  13    8   34 1
  14    8   35 1
  15    9   10 1
  16   10   11 1
  17   10   36 1
  18   10   37 1
  19   11   17 1
  20   11   38 1
  21   11   39 1
  22   12   13 1
  23   12   16 1
  24   13   14 1
  25   13   19 1
  26   13   20 1
  27   14   15 2
  28   16   21 1
  29   16   40 1
  30   16   41 1
  31   17   18 1
  32   17   42 1
  33   17   43 1
  34   18   44 1
  35   18   45 1
  36   18   46 1
  37   19   47 1
  38   19   48 1
  39   19   49 1
  40   20   50 1
  41   20   51 1
  42   20   52 1
  43   21   22 ar
  44   21   26 ar
  45   22   23 ar
  46   22   53 1
  47   23   24 ar
  48   23   54 1
  49   24   25 ar
  50   24   55 1
  51   25   26 ar
  52   25   27 1
  53   26   56 1
  54   27   28 1
  55   27   57 1
  56   27   58 1
  57   28   29 1
  58   28   32 1
  59   29   30 1
  60   29   59 1
  61   29   60 1
  62   30   31 1
  63   30   61 1
  64   30   62 1
  65   31   32 1
  66   31   63 1
  67   31   64 1
  68   32   65 1
  69   32   66 1

#	End of record

