#	Name: ASD04560208
#	Creating user name:	WinNT
#	Creation time:	15. 06. 2019 20:49

#	Modifying user name:	WinNT
#	Modification time:	15. 06. 2019 20:49

#	Program:	/corina/corina34_cracker 3.40 0067  02.08.2006

@<TRIPOS>MOLECULE
ASD04560208
  33   35    0    0    0
SMALL
NO_CHARGES


@<TRIPOS>ATOM
   1 C1            -0.0189     1.3790     0.0235 C.ar    
   2 C2            -0.0009     0.0001     0.0452 C.ar    
   3 C3             1.2116    -0.6769     0.0565 C.ar    
   4 C4             2.3971     0.0140     0.0467 C.ar    
   5 C5             1.1757     2.0947     0.0129 C.ar    
   6 S6             1.4892     3.8283    -0.0151 S.3     
   7 C7             2.4028     1.4244     0.0245 C.ar    
   8 N8             3.4581     2.2637     0.0127 N.2     
   9 C9             3.2216     3.5292    -0.0098 C.2     
  10 N10            4.1943     4.5153    -0.0263 N.am    
  11 C11            5.4985     4.1755    -0.0203 C.2     
  12 N12            6.4450     5.1349    -0.0363 N.am    
  13 O13            5.8213     3.0035    -0.0004 O.2     
  14 C14            7.7975     4.7855     0.0544 C.ar    
  15 C15            8.7173     5.6919     0.5655 C.ar    
  16 C16            8.2208     3.5302    -0.3611 C.ar    
  17 C17            9.5560     3.1879    -0.2705 C.ar    
  18 C18           10.4711     4.0946     0.2341 C.ar    
  19 C19           10.0509     5.3447     0.6539 C.ar    
  20 C20            8.2605     7.0532     1.0227 C.3     
  21 F21           -1.1615    -0.6912     0.0559 F       
  22 F22            9.3593     7.7800     1.4935 F       
  23 F23            7.6764     7.7340    -0.0509 F       
  24 F24            7.3217     6.9094     2.0499 F       
  25 Cl25          12.1483     3.6611     0.3471 Cl      
  26 H26           -0.9620     1.9051     0.0102 H       
  27 H27            1.2215    -1.7568     0.0735 H       
  28 H28            3.3324    -0.5259     0.0564 H       
  29 H29            3.9368     5.4504    -0.0421 H       
  30 H30            6.1889     6.0676    -0.1108 H       
  31 H31            7.5067     2.8218    -0.7544 H       
  32 H32            9.8857     2.2115    -0.5936 H       
  33 H33           10.7666     6.0492     1.0512 H       
@<TRIPOS>BOND
   1    1    2 ar
   2    1    5 ar
   3    1   26 1
   4    2    3 ar
   5    2   21 1
   6    3    4 ar
   7    3   27 1
   8    4    7 ar
   9    4   28 1
  10    5    7 ar
  11    5    6 1
  12    6    9 1
  13    7    8 1
  14    8    9 2
  15    9   10 1
  16   10   11 am
  17   10   29 1
  18   11   12 am
  19   11   13 2
  20   12   14 1
  21   12   30 1
  22   14   16 ar
  23   14   15 ar
  24   15   19 ar
  25   15   20 1
  26   16   17 ar
  27   16   31 1
  28   17   18 ar
  29   17   32 1
  30   18   19 ar
  31   18   25 1
  32   19   33 1
  33   20   22 1
  34   20   23 1
  35   20   24 1

#	End of record

