#	Name: ASD05720078
#	Creating user name:	WinNT
#	Creation time:	15. 06. 2019 21:01

#	Modifying user name:	WinNT
#	Modification time:	15. 06. 2019 21:01

#	Program:	/corina/corina34_cracker 3.40 0067  02.08.2006

@<TRIPOS>MOLECULE
ASD05720078
  64   67    0    0    0
SMALL
NO_CHARGES


@<TRIPOS>ATOM
   1 O1            -0.0161     1.3334     0.0094 O.3     
   2 C2             0.0021    -0.0041     0.0020 C.2     
   3 N3             1.2348    -0.5293    -0.0126 N.am    
   4 C4             2.2183     0.5645    -0.0161 C.3     
   5 C5             1.3508     1.8379    -0.0010 C.3     
   6 O6            -1.0069    -0.6808     0.0084 O.2     
   7 C7             2.4900     0.2050    -2.4835 C.ar    
   8 C8             3.0621     0.5136    -1.2636 C.ar    
   9 C9             4.4219     0.7761    -1.2024 C.ar    
  10 C10            5.1588     0.7182    -2.3757 C.ar    
  11 C11            4.5178     0.4030    -3.5586 C.ar    
  12 N12            3.2219     0.1586    -3.5793 N.ar    
  13 C13            3.0997    -3.5830    -0.0446 C.2     
  14 N14            2.7934    -2.2820    -0.0358 N.2     
  15 C15            1.5348    -1.8852    -0.0220 C.2     
  16 C16            0.4948    -2.8369    -0.0165 C.2     
  17 C17            0.8012    -4.1542    -0.0253 C.2     
  18 N18            2.1144    -4.5345    -0.0395 N.pl3   
  19 N19            2.7294    -5.7914    -0.0515 N.2     
  20 C20            4.0306    -5.6364    -0.0634 C.2     
  21 C21            4.3226    -4.2670    -0.0650 C.2     
  22 C22            5.6706    -3.6561    -0.0831 C.ar    
  23 C23            6.6407    -4.0788     0.8272 C.ar    
  24 C24            7.8966    -3.5089     0.8095 C.ar    
  25 C25            8.1963    -2.5093    -0.1195 C.ar    
  26 C26            7.2260    -2.0883    -1.0281 C.ar    
  27 C27            5.9737    -2.6612    -1.0144 C.ar    
  28 N28           11.2830    -0.6691    -0.6320 N.pl3   
  29 N29            9.9472    -0.9508    -0.9614 N.2     
  30 C30            9.5460    -1.8958    -0.1389 C.2     
  31 N31           10.5598    -2.2120     0.6787 N.2     
  32 C32           11.6046    -1.4818     0.3903 C.2     
  33 F33            8.8363    -3.9168     1.6903 F       
  34 H34            2.8457     0.5180     0.8740 H       
  35 H35            1.5314     2.4339    -0.8956 H       
  36 H36            1.5485     2.4243     0.8964 H       
  37 H37            1.4321    -0.0052    -2.5390 H       
  38 H38            4.8961     1.0203    -0.2633 H       
  39 H39            6.2202     0.9173    -2.3652 H       
  40 H40            5.0845     0.3558    -4.4767 H       
  41 H41           -0.5367    -2.5172    -0.0049 H       
  42 H42            0.0174    -4.8972    -0.0209 H       
  43 H43            4.7584    -6.4342    -0.0738 H       
  44 H44            6.4080    -4.8513     1.5451 H       
  45 H45            7.4581    -1.3156    -1.7461 H       
  46 H46            5.2243    -2.3375    -1.7215 H       
  47 H47           11.8615    -0.0190    -1.0605 H       
  48 H48           12.5623    -1.5238     0.8878 H       
  49 C49           18.7337     9.4221     7.8371 C.2     
  50 C50           18.7542     7.9153     7.8288 C.3     
  51 O51           19.7718    10.0404     7.8305 O.2     
  52 O52           17.5623    10.0774     7.8462 O.3     
  53 F53           20.0793     7.4670     7.8137 F       
  54 F54           18.1120     7.4339     8.9747 F       
  55 F55           18.0902     7.4462     6.6903 F       
  56 H56           17.5998    11.0437     7.8513 H       
  57 C57           26.2507    18.0319    15.1215 C.2     
  58 C58           26.2712    16.5251    15.1132 C.3     
  59 O59           27.2888    18.6502    15.1149 O.2     
  60 O60           25.0793    18.6872    15.1306 O.3     
  61 F61           27.5963    16.0767    15.0982 F       
  62 F62           25.6290    16.0437    16.2591 F       
  63 F63           25.6072    16.0559    13.9747 F       
  64 H64           25.1168    19.6534    15.1357 H       
@<TRIPOS>BOND
   1    1    2 1
   2    1    5 1
   3    2    3 am
   4    2    6 2
   5    3    4 1
   6    3   15 1
   7    4    5 1
   8    4    8 1
   9    4   34 1
  10    5   35 1
  11    5   36 1
  12    7    8 ar
  13    7   12 ar
  14    7   37 1
  15    8    9 ar
  16    9   10 ar
  17    9   38 1
  18   10   11 ar
  19   10   39 1
  20   11   12 ar
  21   11   40 1
  22   13   14 1
  23   13   18 1
  24   13   21 2
  25   14   15 2
  26   15   16 1
  27   16   17 2
  28   16   41 1
  29   17   18 1
  30   17   42 1
  31   18   19 1
  32   19   20 2
  33   20   21 1
  34   20   43 1
  35   21   22 1
  36   22   23 ar
  37   22   27 ar
  38   23   24 ar
  39   23   44 1
  40   24   25 ar
  41   24   33 1
  42   25   26 ar
  43   25   30 1
  44   26   27 ar
  45   26   45 1
  46   27   46 1
  47   28   29 1
  48   28   32 1
  49   28   47 1
  50   29   30 2
  51   30   31 1
  52   31   32 2
  53   32   48 1
  54   49   50 1
  55   49   51 2
  56   49   52 1
  57   50   53 1
  58   50   54 1
  59   50   55 1
  60   52   56 1
  61   57   58 1
  62   57   59 2
  63   57   60 1
  64   58   61 1
  65   58   62 1
  66   58   63 1
  67   60   64 1

#	End of record

