#	Name: ASD01911994
#	Creating user name:	WinNT
#	Creation time:	15. 06. 2019 19:58

#	Modifying user name:	WinNT
#	Modification time:	15. 06. 2019 19:58

#	Program:	/corina/corina34_cracker 3.40 0067  02.08.2006

@<TRIPOS>MOLECULE
ASD01911994
  39   41    0    0    0
SMALL
NO_CHARGES


@<TRIPOS>ATOM
   1 C1             0.7751     1.1503    -0.1317 C.ar    
   2 C2             0.5666    -0.2269    -0.1284 C.ar    
   3 C3             1.6750    -1.0617    -0.2500 C.ar    
   4 N4             2.8764    -0.5203    -0.3634 N.ar    
   5 C5             3.0317     0.7885    -0.3622 C.ar    
   6 N6             2.0088     1.6120    -0.2493 N.ar    
   7 N7            -0.7207    -0.7573    -0.0058 N.pl3   
   8 C8            -0.9087    -2.1422    -0.0046 C.ar    
   9 C9            -1.3097    -4.1862    -1.2008 C.ar    
  10 C10           -1.2841    -4.8890    -0.0110 C.ar    
  11 C11           -1.0755    -4.2202     1.1884 C.ar    
  12 C12           -0.8878    -2.8451     1.1915 C.ar    
  13 N13           -1.0503    -4.9328     2.3920 N.am    
  14 C14           -1.5531    -4.3794     3.5133 C.2     
  15 C15           -1.6212    -5.1694     4.7609 C.ar    
  16 O16           -1.9507    -3.2307     3.4988 O.2     
  17 C17           -2.1413    -4.5993     5.9238 C.ar    
  18 C18           -1.1228    -2.8169    -1.2020 C.ar    
  19 C19           -1.8729     0.1385     0.1215 C.3     
  20 C20           -2.2028    -5.3417     7.0853 C.ar    
  21 C21           -1.7499    -6.6485     7.0995 C.ar    
  22 C22           -1.2320    -7.2207     5.9494 C.ar    
  23 C23           -1.1708    -6.4905     4.7794 C.ar    
  24 Cl24          -0.6656    -8.8615     5.9774 Cl      
  25 Cl25          -1.1558    -1.9382    -2.6988 Cl      
  26 H26           -0.0588     1.8310    -0.0440 H       
  27 H27            1.5553    -2.1351    -0.2513 H       
  28 H28            4.0265     1.1983    -0.4562 H       
  29 H29           -1.4718    -4.7087    -2.1320 H       
  30 H30           -1.4309    -5.9590    -0.0134 H       
  31 H31           -0.7255    -2.3232     2.1230 H       
  32 H32           -0.6709    -5.8251     2.4195 H       
  33 H33           -2.4948    -3.5788     5.9148 H       
  34 H34           -2.2614     0.3738    -0.8694 H       
  35 H35           -2.6496    -0.3500     0.7097 H       
  36 H36           -1.5648     1.0583     0.6187 H       
  37 H37           -2.6052    -4.9012     7.9855 H       
  38 H38           -1.7999    -7.2251     8.0113 H       
  39 H39           -0.7669    -6.9373     3.8830 H       
@<TRIPOS>BOND
   1    1    2 ar
   2    1    6 ar
   3    1   26 1
   4    2    3 ar
   5    2    7 1
   6    3    4 ar
   7    3   27 1
   8    4    5 ar
   9    5    6 ar
  10    5   28 1
  11    7    8 1
  12    7   19 1
  13    8   18 ar
  14    8   12 ar
  15    9   10 ar
  16    9   18 ar
  17    9   29 1
  18   10   11 ar
  19   10   30 1
  20   11   12 ar
  21   11   13 1
  22   12   31 1
  23   13   14 am
  24   13   32 1
  25   14   15 1
  26   14   16 2
  27   15   17 ar
  28   15   23 ar
  29   17   20 ar
  30   17   33 1
  31   18   25 1
  32   19   34 1
  33   19   35 1
  34   19   36 1
  35   20   21 ar
  36   20   37 1
  37   21   22 ar
  38   21   38 1
  39   22   23 ar
  40   22   24 1
  41   23   39 1

#	End of record

