#	Name: ASD01948217
#	Creating user name:	WinNT
#	Creation time:	15. 06. 2019 20:13

#	Modifying user name:	WinNT
#	Modification time:	15. 06. 2019 20:13

#	Program:	/corina/corina34_cracker 3.40 0067  02.08.2006

@<TRIPOS>MOLECULE
ASD01948217
  40   42    0    0    0
SMALL
NO_CHARGES


@<TRIPOS>ATOM
   1 C1            -0.0123     1.3042    -0.4821 C.ar    
   2 C2             0.0508    -0.0649    -0.3268 C.ar    
   3 C3             1.2715    -0.6840    -0.0599 C.ar    
   4 N4             2.3805     0.0409     0.0470 N.ar    
   5 C5             2.3704     1.3543    -0.0930 C.ar    
   6 C6             1.1723     2.0400    -0.3646 C.ar    
   7 C7            -0.9856    -1.1581    -0.3828 C.3     
   8 N8            -0.2719    -2.4152    -0.1325 N.am    
   9 C9             1.0307    -2.1428     0.0540 C.2     
  10 C10            4.8240     0.0132    -0.0634 C.ar    
  11 C11            4.7678     1.3824     0.1566 C.ar    
  12 N12            3.5523     2.0640     0.0280 N.pl3   
  13 C13            6.0254    -0.6575     0.0647 C.ar    
  14 C14            7.1719     0.0334     0.4121 C.ar    
  15 C15            7.1209     1.3986     0.6320 C.ar    
  16 C16            5.9223     2.0757     0.5055 C.ar    
  17 F17            5.8723     3.4086     0.7201 F       
  18 I18            8.9900    -0.9893     0.6061 I       
  19 O19            1.8881    -2.9726     0.2827 O.2     
  20 C20            1.1646     3.5079    -0.5210 C.2     
  21 O21            2.1894     4.1418    -0.3594 O.2     
  22 N22            0.0216     4.1454    -0.8429 N.am    
  23 O23            0.0142     5.5534    -0.9930 O.3     
  24 C24           -1.2633     6.0948    -1.3348 C.3     
  25 C25           -1.1533     7.6148    -1.4705 C.3     
  26 O26           -0.3004     7.9342    -2.5717 O.3     
  27 H27           -0.9508     1.7952    -0.6934 H       
  28 H28           -1.7415    -0.9972     0.3858 H       
  29 H29           -1.4518    -1.1819    -1.3679 H       
  30 H30           -0.6740    -3.2976    -0.1060 H       
  31 H31            3.9285    -0.5285    -0.3300 H       
  32 H32            3.5382     3.0339     0.0236 H       
  33 H33            6.0690    -1.7229    -0.1064 H       
  34 H34            8.0179     1.9353     0.9035 H       
  35 H35           -0.7960     3.6396    -0.9719 H       
  36 H36           -1.5971     5.6688    -2.2809 H       
  37 H37           -1.9823     5.8509    -0.5527 H       
  38 H38           -2.1433     8.0368    -1.6433 H       
  39 H39           -0.7354     8.0321    -0.5543 H       
  40 H40           -0.1847     8.8832    -2.7172 H       
@<TRIPOS>BOND
   1    1    2 ar
   2    1    6 ar
   3    1   27 1
   4    2    3 ar
   5    2    7 1
   6    3    4 ar
   7    3    9 1
   8    4    5 ar
   9    5    6 ar
  10    5   12 1
  11    6   20 1
  12    7    8 1
  13    7   28 1
  14    7   29 1
  15    8    9 am
  16    8   30 1
  17    9   19 2
  18   10   11 ar
  19   10   13 ar
  20   10   31 1
  21   11   12 1
  22   11   16 ar
  23   12   32 1
  24   13   14 ar
  25   13   33 1
  26   14   15 ar
  27   14   18 1
  28   15   16 ar
  29   15   34 1
  30   16   17 1
  31   20   21 2
  32   20   22 am
  33   22   23 1
  34   22   35 1
  35   23   24 1
  36   24   25 1
  37   24   36 1
  38   24   37 1
  39   25   26 1
  40   25   38 1
  41   25   39 1
  42   26   40 1

#	End of record

