#	Name: ASD01310010
#	Creating user name:	WinNT
#	Creation time:	15. 06. 2019 19:15

#	Modifying user name:	WinNT
#	Modification time:	15. 06. 2019 19:15

#	Program:	/corina/corina34_cracker 3.40 0067  02.08.2006

@<TRIPOS>MOLECULE
ASD01310010
  36   38    0    0    0
SMALL
NO_CHARGES


@<TRIPOS>ATOM
   1 N1            -0.0181     1.4829     0.0102 N.3     
   2 C2             0.0021    -0.0041     0.0020 C.3     
   3 C3            -1.4265    -0.4807     0.3097 C.3     
   4 C4            -2.3543    -0.0292    -0.8219 C.3     
   5 C5            -2.2208     1.4823    -1.0278 C.3     
   6 C6            -0.7384     1.8259    -1.2449 C.3     
   7 C7            -0.1720     0.8376    -2.2902 C.3     
   8 C8             0.3173    -0.3717    -1.4663 C.3     
   9 O9            -3.7278    -0.3503    -0.4775 O.3     
  10 C10           -4.5678    -0.6158    -1.4966 C.2     
  11 O11           -4.1639    -0.5800    -2.6418 O.2     
  12 C12            1.3460     2.0280     0.0001 C.3     
  13 C13           -6.4558    -0.9946     0.0894 C.ar    
  14 C14           -5.9796    -0.9502    -1.2218 C.ar    
  15 C15           -6.8635    -1.2279    -2.2733 C.ar    
  16 C16           -8.1751    -1.5351    -1.9630 C.ar    
  17 C17           -8.5702    -1.5584    -0.6351 C.ar    
  18 N18           -7.7147    -1.2924     0.3350 N.ar    
  19 Cl19         -10.2164    -1.9431    -0.2404 Cl      
  20 H20            0.7305    -0.4106     0.7036 H       
  21 H21           -1.4409    -1.5683     0.3816 H       
  22 H22           -1.7614    -0.0463     1.2516 H       
  23 H23           -2.0818    -0.5460    -1.7421 H       
  24 H24           -2.7973     1.7840    -1.9023 H       
  25 H25           -2.5914     2.0051    -0.1460 H       
  26 H26           -0.5961     2.8682    -1.5304 H       
  27 H27           -0.9537     0.5315    -2.9854 H       
  28 H28            0.6599     1.2909    -2.8291 H       
  29 H29            1.3898    -0.5128    -1.6001 H       
  30 H30           -0.2238    -1.2723    -1.7564 H       
  31 H31            1.8655     1.6904    -0.8967 H       
  32 H32            1.3022     3.1171     0.0064 H       
  33 H33            1.8825     1.6809     0.8831 H       
  34 H34           -5.7849    -0.7872     0.9099 H       
  35 H35           -6.5287    -1.2022    -3.2997 H       
  36 H36           -8.8845    -1.7543    -2.7473 H       
@<TRIPOS>BOND
   1    1    2 1
   2    1   12 1
   3    1    6 1
   4    2    3 1
   5    2    8 1
   6    2   20 1
   7    3    4 1
   8    3   21 1
   9    3   22 1
  10    4    5 1
  11    4    9 1
  12    4   23 1
  13    5    6 1
  14    5   24 1
  15    5   25 1
  16    6    7 1
  17    6   26 1
  18    7    8 1
  19    7   27 1
  20    7   28 1
  21    8   29 1
  22    8   30 1
  23    9   10 1
  24   10   11 2
  25   10   14 1
  26   12   31 1
  27   12   32 1
  28   12   33 1
  29   13   14 ar
  30   13   18 ar
  31   13   34 1
  32   14   15 ar
  33   15   16 ar
  34   15   35 1
  35   16   17 ar
  36   16   36 1
  37   17   18 ar
  38   17   19 1

#	End of record

