#	Name: ASD03540568
#	Creating user name:	WinNT
#	Creation time:	15. 06. 2019 20:43

#	Modifying user name:	WinNT
#	Modification time:	15. 06. 2019 20:43

#	Program:	/corina/corina34_cracker 3.40 0067  02.08.2006

@<TRIPOS>MOLECULE
ASD03540568
  48   51    0    0    0
SMALL
NO_CHARGES


@<TRIPOS>ATOM
   1 N1            -0.0162     1.3399     0.0094 N.am    
   2 C2             0.0021    -0.0041     0.0020 C.2     
   3 N3             1.1398    -0.7159    -0.0126 N.am    
   4 C4             2.3465    -0.1095    -0.0209 C.2     
   5 C5             2.3886     1.3640    -0.0134 C.ar    
   6 C6             3.5942     2.0610    -0.0216 C.ar    
   7 C7             3.5800     3.4469    -0.0145 C.ar    
   8 C8             2.3696     4.1359     0.0008 C.ar    
   9 C9             1.1722     3.4506     0.0090 C.ar    
  10 C10            1.1699     2.0640     0.0020 C.ar    
  11 O11           -1.0574    -0.6004     0.0093 O.2     
  12 O12            3.3723    -0.7624    -0.0338 O.2     
  13 C13           -1.2986     2.0481     0.0193 C.3     
  14 S14            5.0987     4.3403    -0.0241 S.3     
  15 C15            4.5542     6.0706    -0.0103 C.3     
  16 C16            5.7587     6.9763    -0.0170 C.ar    
  17 C17            6.2999     7.3977    -1.2171 C.ar    
  18 C18            7.4048     8.2284    -1.2233 C.ar    
  19 C19            7.9681     8.6381    -0.0292 C.ar    
  20 C20            7.4263     8.2174     1.1709 C.ar    
  21 C21            6.3188     7.3902     1.1771 C.ar    
  22 C22            1.0713    -2.1793    -0.0194 C.3     
  23 C23            1.0340    -2.6739    -1.4424 C.ar    
  24 C24            2.2127    -2.9567    -2.1070 C.ar    
  25 C25            2.1785    -3.4103    -3.4123 C.ar    
  26 C26            0.9656    -3.5817    -4.0529 C.ar    
  27 C27           -0.2131    -3.2998    -3.3880 C.ar    
  28 C28           -0.1791    -2.8503    -2.0812 C.ar    
  29 H29            4.5324     1.5262    -0.0330 H       
  30 H30            2.3684     5.2159     0.0066 H       
  31 H31            0.2384     3.9932     0.0208 H       
  32 H32           -2.1134     1.3241     0.0192 H       
  33 H33           -1.3640     2.6687     0.9130 H       
  34 H34           -1.3724     2.6783    -0.8669 H       
  35 H35            3.9467     6.2674    -0.8937 H       
  36 H36            3.9633     6.2585     0.8862 H       
  37 H37            5.8598     7.0777    -2.1500 H       
  38 H38            7.8281     8.5571    -2.1609 H       
  39 H39            8.8318     9.2866    -0.0340 H       
  40 H40            7.8667     8.5372     2.1038 H       
  41 H41            5.8933     7.0645     2.1147 H       
  42 H42            1.9483    -2.5864     0.4839 H       
  43 H43            0.1704    -2.5033     0.5016 H       
  44 H44            3.1603    -2.8228    -1.6065 H       
  45 H45            3.0994    -3.6305    -3.9318 H       
  46 H46            0.9389    -3.9354    -5.0730 H       
  47 H47           -1.1607    -3.4334    -3.8886 H       
  48 H48           -1.1001    -2.6336    -1.5606 H       
@<TRIPOS>BOND
   1    1    2 am
   2    1   10 1
   3    1   13 1
   4    2    3 am
   5    2   11 2
   6    3    4 am
   7    3   22 1
   8    4    5 1
   9    4   12 2
  10    5    6 ar
  11    5   10 ar
  12    6    7 ar
  13    6   29 1
  14    7    8 ar
  15    7   14 1
  16    8    9 ar
  17    8   30 1
  18    9   10 ar
  19    9   31 1
  20   13   32 1
  21   13   33 1
  22   13   34 1
  23   14   15 1
  24   15   16 1
  25   15   35 1
  26   15   36 1
  27   16   17 ar
  28   16   21 ar
  29   17   18 ar
  30   17   37 1
  31   18   19 ar
  32   18   38 1
  33   19   20 ar
  34   19   39 1
  35   20   21 ar
  36   20   40 1
  37   21   41 1
  38   22   23 1
  39   22   42 1
  40   22   43 1
  41   23   24 ar
  42   23   28 ar
  43   24   25 ar
  44   24   44 1
  45   25   26 ar
  46   25   45 1
  47   26   27 ar
  48   26   46 1
  49   27   28 ar
  50   27   47 1
  51   28   48 1

#	End of record

