#	Name: ASD03331982
#	Creating user name:	WinNT
#	Creation time:	15. 06. 2019 20:40

#	Modifying user name:	WinNT
#	Modification time:	15. 06. 2019 20:40

#	Program:	/corina/corina34_cracker 3.40 0067  02.08.2006

@<TRIPOS>MOLECULE
ASD03331982
  70   73    0    0    0
SMALL
NO_CHARGES


@<TRIPOS>ATOM
   1 C1            -0.3234     1.1659     0.8582 C.2     
   2 N2            -0.3519    -0.1671     1.0922 N.pl3   
   3 C3             0.9372    -0.5842     1.2530 C.2     
   4 N4             1.7301     0.4556     1.1420 N.2     
   5 C5             0.9818     1.5540     0.9007 C.2     
   6 C6             1.4868     2.9261     0.7165 C.2     
   7 O7             0.7093     3.8367     0.5032 O.2     
   8 N8             2.8102     3.1719     0.7843 N.am    
   9 C9             3.3123     4.5359     0.6012 C.3     
  10 C10            3.4850     4.8196    -0.8923 C.3     
  11 C11            4.3799     3.7462    -1.5152 C.3     
  12 C12            4.6414     4.6797     1.2968 C.2     
  13 C13            2.1165     4.8024    -1.5763 C.3     
  14 C14            4.1312     6.1938    -1.0791 C.3     
  15 O15            5.2296     3.6947     1.6902 O.2     
  16 N16            5.1764     5.9028     1.4817 N.am    
  17 C17            6.5010     6.0381     2.0927 C.3     
  18 C18           -1.5613    -0.9910     1.1723 C.3     
  19 C19           -2.4724    -0.6627    -0.0145 C.3     
  20 C20           -3.3836     0.5071     0.3433 C.3     
  21 N21           -2.7030     1.4499     1.2335 N.3     
  22 C22           -1.5215     2.0383     0.5857 C.3     
  23 C23           -3.6249     2.4956     1.6968 C.3     
  24 C24            1.3689    -1.9759     1.5099 C.ar    
  25 C25            2.6211    -2.4122     1.0763 C.ar    
  26 C26            3.0178    -3.7112     1.3190 C.ar    
  27 C27            2.1766    -4.5805     1.9904 C.ar    
  28 C28            0.9335    -4.1540     2.4225 C.ar    
  29 C29            0.5278    -2.8556     2.1919 C.ar    
  30 C30            2.6161    -5.9981     2.2516 C.3     
  31 N31            2.1763    -6.4505     3.5920 N.3     
  32 N32            1.8574    -7.7730     3.5029 N.am    
  33 C33            1.6411    -8.1766     2.2372 C.2     
  34 C34            1.8734    -6.9881     1.3218 C.3     
  35 O35            1.3180    -9.2927     1.8895 O.2     
  36 H36            3.4303     2.4456     0.9544 H       
  37 H37            2.6014     5.2448     1.0258 H       
  38 H38            3.9195     2.7672    -1.3821 H       
  39 H39            4.5030     3.9483    -2.5792 H       
  40 H40            5.3549     3.7585    -1.0279 H       
  41 H41            1.4789     5.5671    -1.1326 H       
  42 H42            2.2395     5.0045    -2.6403 H       
  43 H43            1.6561     3.8234    -1.4433 H       
  44 H44            5.0904     6.2175    -0.5618 H       
  45 H45            4.2867     6.3808    -2.1416 H       
  46 H46            3.4770     6.9620    -0.6668 H       
  47 H47            4.6844     6.6935     1.2102 H       
  48 H48            6.4863     5.6033     3.0921 H       
  49 H49            7.2382     5.5180     1.4810 H       
  50 H50            6.7641     7.0938     2.1596 H       
  51 H51           -1.2866    -2.0453     1.1400 H       
  52 H52           -2.0858    -0.7786     2.1039 H       
  53 H53           -1.8620    -0.3960    -0.8773 H       
  54 H54           -3.0800    -1.5346    -0.2570 H       
  55 H55           -3.6765     1.0250    -0.5700 H       
  56 H56           -4.2762     0.1266     0.8399 H       
  57 H57           -1.3446     3.0360     0.9874 H       
  58 H58           -1.6891     2.1016    -0.4894 H       
  59 H59           -4.4514     2.0370     2.2395 H       
  60 H60           -3.0938     3.1822     2.3561 H       
  61 H61           -4.0135     3.0437     0.8385 H       
  62 H62            3.2783    -1.7348     0.5515 H       
  63 H63            3.9869    -4.0503     0.9839 H       
  64 H64            0.2812    -4.8375     2.9458 H       
  65 H65           -0.4427    -2.5237     2.5300 H       
  66 H66            3.6962    -6.0956     2.1424 H       
  67 H67            2.8984    -6.2982     4.2800 H       
  68 H68            1.7931    -8.3616     4.2712 H       
  69 H69            0.9262    -6.5672     0.9844 H       
  70 H70            2.4989    -7.2677     0.4741 H       
@<TRIPOS>BOND
   1    1    2 1
   2    1    5 2
   3    1   22 1
   4    2    3 1
   5    2   18 1
   6    3    4 2
   7    3   24 1
   8    4    5 1
   9    5    6 1
  10    6    7 2
  11    6    8 am
  12    8    9 1
  13    8   36 1
  14    9   10 1
  15    9   12 1
  16    9   37 1
  17   10   11 1
  18   10   13 1
  19   10   14 1
  20   11   38 1
  21   11   39 1
  22   11   40 1
  23   12   15 2
  24   12   16 am
  25   13   41 1
  26   13   42 1
  27   13   43 1
  28   14   44 1
  29   14   45 1
  30   14   46 1
  31   16   17 1
  32   16   47 1
  33   17   48 1
  34   17   49 1
  35   17   50 1
  36   18   19 1
  37   18   51 1
  38   18   52 1
  39   19   20 1
  40   19   53 1
  41   19   54 1
  42   20   21 1
  43   20   55 1
  44   20   56 1
  45   21   22 1
  46   21   23 1
  47   22   57 1
  48   22   58 1
  49   23   59 1
  50   23   60 1
  51   23   61 1
  52   24   25 ar
  53   24   29 ar
  54   25   26 ar
  55   25   62 1
  56   26   27 ar
  57   26   63 1
  58   27   28 ar
  59   27   30 1
  60   28   29 ar
  61   28   64 1
  62   29   65 1
  63   30   31 1
  64   30   34 1
  65   30   66 1
  66   31   32 1
  67   31   67 1
  68   32   33 am
  69   32   68 1
  70   33   34 1
  71   33   35 2
  72   34   69 1
  73   34   70 1

#	End of record

