#	Name: ASD01814273
#	Creating user name:	WinNT
#	Creation time:	15. 06. 2019 19:32

#	Modifying user name:	WinNT
#	Modification time:	15. 06. 2019 19:32

#	Program:	/corina/corina34_cracker 3.40 0067  02.08.2006

@<TRIPOS>MOLECULE
ASD01814273
  57   61    0    0    0
SMALL
NO_CHARGES


@<TRIPOS>ATOM
   1 C1            -0.0149     1.3825    -0.1209 C.ar    
   2 C2             0.0026    -0.0052    -0.0249 C.ar    
   3 C3             1.1792    -0.6874     0.0667 C.ar    
   4 C4             2.3937     0.0156     0.0646 C.ar    
   5 C5             2.3720     1.4282    -0.0332 C.ar    
   6 C6             1.1473     2.0972    -0.1258 C.ar    
   7 C7             3.6268    -0.6632     0.1576 C.ar    
   8 C8             4.8005     0.0127     0.1554 C.ar    
   9 C9             4.8346     1.4127     0.0605 C.ar    
  10 C10            3.6407     2.1507    -0.0346 C.ar    
  11 C11            6.1012     2.1559     0.0561 C.2     
  12 N12            6.0328     3.5041    -0.0399 N.am    
  13 C13            4.8315     4.1280    -0.1275 C.2     
  14 N14            3.6976     3.4899    -0.1258 N.2     
  15 C15            3.6384    -2.1666     0.2619 C.3     
  16 C16            3.5714    -2.7664    -1.1190 C.ar    
  17 C17            4.7373    -3.0360    -1.8117 C.ar    
  18 C18            4.6785    -3.5858    -3.0776 C.ar    
  19 C19            3.4484    -3.8674    -3.6539 C.ar    
  20 C20            2.2800    -3.5960    -2.9568 C.ar    
  21 C21            2.3443    -3.0514    -1.6888 C.ar    
  22 O22            7.1719     1.5812     0.1362 O.2     
  23 C23            7.2655     4.2957    -0.0490 C.3     
  24 C24            7.3517     5.0903    -1.3536 C.3     
  25 C25            6.1449     6.0245    -1.4625 C.3     
  26 C26            6.1392     6.9907    -0.2762 C.3     
  27 C27            6.0530     6.1960     1.0284 C.3     
  28 C28            7.2598     5.2619     1.1373 C.3     
  29 O29            7.3570     4.1879    -2.4615 O.3     
  30 O30            3.3879    -4.4079    -4.8993 O.3     
  31 C31            2.0874    -4.6715    -5.4297 C.3     
  32 H32           -0.9597     1.9001    -0.1969 H       
  33 H33           -0.9298    -0.5501    -0.0226 H       
  34 H34            1.1766    -1.7648     0.1409 H       
  35 H35            1.1217     3.1743    -0.2011 H       
  36 H36            5.7279    -0.5359     0.2283 H       
  37 H37            4.8156     5.2053    -0.2020 H       
  38 H38            4.5557    -2.4896     0.7542 H       
  39 H39            2.7780    -2.4971     0.8437 H       
  40 H40            5.6947    -2.8163    -1.3628 H       
  41 H41            5.5895    -3.7959    -3.6184 H       
  42 H42            1.3212    -3.8143    -3.4033 H       
  43 H43            1.4351    -2.8402    -1.1456 H       
  44 H44            8.1252     3.6302     0.0286 H       
  45 H45            8.2689     5.6793    -1.3603 H       
  46 H46            6.2064     6.5906    -2.3919 H       
  47 H47            5.2278     5.4355    -1.4557 H       
  48 H48            7.0564     7.5797    -0.2829 H       
  49 H49            5.2795     7.6562    -0.3537 H       
  50 H50            6.0489     6.8844     1.8736 H       
  51 H51            5.1358     5.6071     1.0351 H       
  52 H52            7.1984     4.6958     2.0667 H       
  53 H53            8.1769     5.8509     1.1306 H       
  54 H54            7.4102     4.6234    -3.3233 H       
  55 H55            2.1820    -5.1007    -6.4272 H       
  56 H56            1.5656    -5.3741    -4.7799 H       
  57 H57            1.5228    -3.7410    -5.4865 H       
@<TRIPOS>BOND
   1    1    2 ar
   2    1    6 ar
   3    1   32 1
   4    2    3 ar
   5    2   33 1
   6    3    4 ar
   7    3   34 1
   8    4    5 ar
   9    4    7 ar
  10    5    6 ar
  11    5   10 ar
  12    6   35 1
  13    7    8 ar
  14    7   15 1
  15    8    9 ar
  16    8   36 1
  17    9   10 ar
  18    9   11 1
  19   10   14 1
  20   11   12 am
  21   11   22 2
  22   12   13 1
  23   12   23 1
  24   13   14 2
  25   13   37 1
  26   15   16 1
  27   15   38 1
  28   15   39 1
  29   16   17 ar
  30   16   21 ar
  31   17   18 ar
  32   17   40 1
  33   18   19 ar
  34   18   41 1
  35   19   20 ar
  36   19   30 1
  37   20   21 ar
  38   20   42 1
  39   21   43 1
  40   23   24 1
  41   23   28 1
  42   23   44 1
  43   24   25 1
  44   24   29 1
  45   24   45 1
  46   25   26 1
  47   25   46 1
  48   25   47 1
  49   26   27 1
  50   26   48 1
  51   26   49 1
  52   27   28 1
  53   27   50 1
  54   27   51 1
  55   28   52 1
  56   28   53 1
  57   29   54 1
  58   30   31 1
  59   31   55 1
  60   31   56 1
  61   31   57 1

#	End of record

