#	Name: ASD07930774
#	Creating user name:	WinNT
#	Creation time:	15. 06. 2019 21:13

#	Modifying user name:	WinNT
#	Modification time:	15. 06. 2019 21:13

#	Program:	/corina/corina34_cracker 3.40 0067  02.08.2006

@<TRIPOS>MOLECULE
ASD07930774
  44   45    0    0    0
SMALL
NO_CHARGES


@<TRIPOS>ATOM
   1 C1             1.7424    -1.1970     2.8942 C.3     
   2 N2            -0.9777    -0.1409     2.2643 N.2     
   3 N3            -1.2502    -2.1765     1.1493 N.pl3   
   4 C4            -0.9906    -2.6172    -0.2253 C.3     
   5 C5             0.4406    -3.1637    -0.3198 C.3     
   6 S6             1.5858    -1.8666     0.2463 S.o2    
   7 N7             0.9188    -1.3968     1.6992 N.am    
   8 C8            -0.4553    -1.2045     1.7214 C.2     
   9 C9            -1.1492    -1.4323    -1.1803 C.3     
  10 O10            2.8459    -2.4233     0.5947 O.2     
  11 O11            1.4908    -0.7143    -0.5799 O.2     
  12 C12           -1.9688    -3.7008    -0.5996 C.ar    
  13 C13           -2.0128    -4.8760     0.1318 C.ar    
  14 C14           -2.8244    -3.5188    -1.6680 C.ar    
  15 C15           -3.7263    -4.5178    -2.0123 C.ar    
  16 C16           -3.7649    -5.6977    -1.2807 C.ar    
  17 C17           -2.9107    -5.8731    -0.2095 C.ar    
  18 F18           -1.1779    -5.0500     1.1796 F       
  19 N19           -4.5941    -4.3356    -3.0936 N.pl3   
  20 C20           -4.5812    -5.2336    -4.1538 C.2     
  21 C21           -5.4799    -5.1325    -5.1156 C.2     
  22 C22           -6.5199    -4.0431    -5.0635 C.3     
  23 C23           -3.5412    -6.3231    -4.2058 C.3     
  24 F24           -3.6198    -6.9844    -5.4361 F       
  25 F25           -2.2687    -5.7605    -4.0593 F       
  26 F26           -3.7697    -7.2357    -3.1704 F       
  27 H27            2.0807    -0.1616     2.9334 H       
  28 H28            1.1527    -1.4205     3.7833 H       
  29 H29            2.6064    -1.8604     2.8551 H       
  30 H30           -0.4037     0.5325     2.6617 H       
  31 H31           -1.9819    -2.5648     1.6539 H       
  32 H32            0.5403    -4.0443     0.3147 H       
  33 H33            0.6658    -3.4273    -1.3532 H       
  34 H34           -0.4398    -0.6502    -0.9097 H       
  35 H35           -0.9561    -1.7605    -2.2016 H       
  36 H36           -2.1645    -1.0422    -1.1097 H       
  37 H37           -2.7928    -2.6003    -2.2354 H       
  38 H38           -4.4652    -6.4757    -1.5466 H       
  39 H39           -2.9402    -6.7906     0.3596 H       
  40 H40           -5.2050    -3.5823    -3.1036 H       
  41 H41           -5.4699    -5.8305    -5.9396 H       
  42 H42           -7.1690    -4.1184    -5.9359 H       
  43 H43           -7.1153    -4.1521    -4.1571 H       
  44 H44           -6.0275    -3.0706    -5.0599 H       
@<TRIPOS>BOND
   1    1    7 1
   2    1   27 1
   3    1   28 1
   4    1   29 1
   5    2    8 2
   6    2   30 1
   7    3    4 1
   8    3    8 1
   9    3   31 1
  10    4    5 1
  11    4    9 1
  12    4   12 1
  13    5    6 1
  14    5   32 1
  15    5   33 1
  16    6    7 am
  17    6   10 2
  18    6   11 2
  19    7    8 1
  20    9   34 1
  21    9   35 1
  22    9   36 1
  23   12   14 ar
  24   12   13 ar
  25   13   18 1
  26   13   17 ar
  27   14   15 ar
  28   14   37 1
  29   15   16 ar
  30   15   19 1
  31   16   17 ar
  32   16   38 1
  33   17   39 1
  34   19   20 1
  35   19   40 1
  36   20   21 2
  37   20   23 1
  38   21   22 1
  39   21   41 1
  40   22   42 1
  41   22   43 1
  42   22   44 1
  43   23   24 1
  44   23   25 1
  45   23   26 1

#	End of record

