#	Name: ASD03091473
#	Creating user name:	WinNT
#	Creation time:	15. 06. 2019 20:30

#	Modifying user name:	WinNT
#	Modification time:	15. 06. 2019 20:30

#	Program:	/corina/corina34_cracker 3.40 0067  02.08.2006

@<TRIPOS>MOLECULE
ASD03091473
  42   45    0    0    0
SMALL
NO_CHARGES


@<TRIPOS>ATOM
   1 N1            -0.0163     1.3519     0.0095 N.pl3   
   2 C2             0.0021    -0.0041     0.0020 C.2     
   3 C3             1.1381    -0.7093     0.2660 C.2     
   4 C4             2.3788     0.0267     0.5580 C.2     
   5 C5             2.3734     1.4687     0.2772 C.ar    
   6 C6             3.5462     2.2360     0.2735 C.ar    
   7 N7             3.4819     3.5325     0.0080 N.ar    
   8 C8             2.3374     4.1399    -0.2569 C.ar    
   9 C9             1.1409     3.4582    -0.2709 C.ar    
  10 C10            1.1400     2.0902     0.0024 C.ar    
  11 N11            4.7655     1.6424     0.5463 N.pl3   
  12 C12            5.9894     2.4475     0.5416 C.3     
  13 C13            7.0559     1.7905     1.4353 C.3     
  14 C14            8.2578     1.4688     0.5234 C.3     
  15 C15            8.1127     2.4582    -0.6595 C.3     
  16 C16            6.5805     2.5021    -0.8823 C.3     
  17 O17            3.3632    -0.5331     1.0114 O.2     
  18 C18            1.1243    -2.1921     0.2597 C.ar    
  19 C19            0.8702    -2.8840    -0.9234 C.ar    
  20 C20            0.8584    -4.2638    -0.9240 C.ar    
  21 C21            1.0983    -4.9610     0.2478 C.ar    
  22 C22            1.3507    -4.2785     1.4256 C.ar    
  23 C23            1.3709    -2.8988     1.4356 C.ar    
  24 Cl24           1.0820    -6.6969     0.2404 Cl      
  25 H25           -0.8701     1.8122     0.0160 H       
  26 H26           -0.9091    -0.5401    -0.2190 H       
  27 H27            2.3413     5.1990    -0.4682 H       
  28 H28            0.2179     3.9745    -0.4898 H       
  29 H29            4.8101     0.6931     0.7407 H       
  30 H30            5.7744     3.4554     0.8963 H       
  31 H31            7.3590     2.4799     2.2233 H       
  32 H32            6.6628     0.8726     1.8726 H       
  33 H33            9.1951     1.6415     1.0524 H       
  34 H34            8.2029     0.4395     0.1688 H       
  35 H35            8.4919     3.4433    -0.3878 H       
  36 H36            8.6212     2.0782    -1.5455 H       
  37 H37            6.2547     1.6397    -1.4639 H       
  38 H38            6.2937     3.4289    -1.3791 H       
  39 H39            0.6826    -2.3411    -1.8380 H       
  40 H40            0.6613    -4.8009    -1.8400 H       
  41 H41            1.5366    -4.8270     2.3372 H       
  42 H42            1.5730    -2.3674     2.3538 H       
@<TRIPOS>BOND
   1    1    2 1
   2    1   10 1
   3    1   25 1
   4    2    3 2
   5    2   26 1
   6    3    4 1
   7    3   18 1
   8    4    5 1
   9    4   17 2
  10    5    6 ar
  11    5   10 ar
  12    6    7 ar
  13    6   11 1
  14    7    8 ar
  15    8    9 ar
  16    8   27 1
  17    9   10 ar
  18    9   28 1
  19   11   12 1
  20   11   29 1
  21   12   13 1
  22   12   16 1
  23   12   30 1
  24   13   14 1
  25   13   31 1
  26   13   32 1
  27   14   15 1
  28   14   33 1
  29   14   34 1
  30   15   16 1
  31   15   35 1
  32   15   36 1
  33   16   37 1
  34   16   38 1
  35   18   19 ar
  36   18   23 ar
  37   19   20 ar
  38   19   39 1
  39   20   21 ar
  40   20   40 1
  41   21   22 ar
  42   21   24 1
  43   22   23 ar
  44   22   41 1
  45   23   42 1

#	End of record

