#	Name: ASD03240578
#	Creating user name:	WinNT
#	Creation time:	15. 06. 2019 20:35

#	Modifying user name:	WinNT
#	Modification time:	15. 06. 2019 20:35

#	Program:	/corina/corina34_cracker 3.40 0067  02.08.2006

@<TRIPOS>MOLECULE
ASD03240578
  56   61    0    0    0
SMALL
NO_CHARGES


@<TRIPOS>ATOM
   1 C1            -0.0166     1.3756     0.0096 C.ar    
   2 C2             0.0021    -0.0041     0.0020 C.ar    
   3 N3             1.1420    -0.6683    -0.0058 N.ar    
   4 C4             2.3145    -0.0482    -0.0059 C.ar    
   5 C5             2.3702     1.3441    -0.0124 C.ar    
   6 C6             1.1859     2.0698     0.0019 C.ar    
   7 N7             3.4815    -0.8060     0.0217 N.pl3   
   8 C8             4.3582    -0.7211     1.0994 C.ar    
   9 C9             4.9952     0.4862     1.4044 C.ar    
  10 C10            4.7651     1.6820     0.5633 C.2     
  11 N11            3.5936     2.0279    -0.0512 N.pl3   
  12 C12            4.6030    -1.8418     1.8821 C.ar    
  13 C13            5.4624    -1.7580     2.9607 C.ar    
  14 C14            6.0840    -0.5605     3.2707 C.ar    
  15 C15            5.8557     0.5611     2.4991 C.ar    
  16 N16            5.6771     2.5892     0.2892 N.2     
  17 C17            5.1453     3.5389    -0.5038 C.2     
  18 C18            3.8177     3.1981    -0.7337 C.2     
  19 C19            2.8419     3.9459    -1.5502 C.ar    
  20 C20            2.7400     5.3336    -1.4259 C.ar    
  21 C21            2.0198     3.2700    -2.4551 C.ar    
  22 C22            1.1100     3.9753    -3.2149 C.ar    
  23 C23            1.0109     5.3492    -3.0827 C.ar    
  24 C24            1.8257     6.0259    -2.1922 C.ar    
  25 C25            5.8418     4.7205    -1.0299 C.2     
  26 C26            0.0151     6.1129    -3.9172 C.3     
  27 N27           -1.0625     5.2623    -4.4399 N.3     
  28 C28           -0.4879     7.4032    -3.2486 C.3     
  29 C29           -0.4041     8.0614    -4.6359 C.3     
  30 C30            0.6648     7.0096    -4.9843 C.3     
  31 O31            7.1388     4.9298    -0.7256 O.3     
  32 O32            5.2488     5.5098    -1.7396 O.2     
  33 C33            7.7626     6.1178    -1.2804 C.3     
  34 H34           -0.9556     1.9092     0.0170 H       
  35 H35           -0.9306    -0.5485     0.0029 H       
  36 H36            1.2001     3.1497     0.0065 H       
  37 H37            3.6858    -1.3998    -0.7177 H       
  38 H38            4.1210    -2.7795     1.6478 H       
  39 H39            5.6503    -2.6323     3.5661 H       
  40 H40            6.7498    -0.5036     4.1191 H       
  41 H41            6.3419     1.4941     2.7429 H       
  42 H42            3.3753     5.8630    -0.7313 H       
  43 H43            2.0966     2.1978    -2.5597 H       
  44 H44            0.4738     3.4541    -3.9149 H       
  45 H45            1.7427     7.0982    -2.0939 H       
  46 H46           -0.6883     4.4410    -4.8910 H       
  47 H47           -1.7106     5.0098    -3.7090 H       
  48 H48           -1.5042     7.3271    -2.8621 H       
  49 H49            0.2113     7.8208    -2.5242 H       
  50 H50           -1.3182     7.9637    -5.2215 H       
  51 H51           -0.0223     9.0821    -4.6125 H       
  52 H52            1.6797     7.3191    -4.7347 H       
  53 H53            0.5778     6.6179    -5.9978 H       
  54 H54            8.8030     6.1656    -0.9589 H       
  55 H55            7.7202     6.0759    -2.3687 H       
  56 H56            7.2329     7.0036    -0.9300 H       
@<TRIPOS>BOND
   1    1    2 ar
   2    1    6 ar
   3    1   34 1
   4    2    3 ar
   5    2   35 1
   6    3    4 ar
   7    4    5 ar
   8    4    7 1
   9    5    6 ar
  10    5   11 1
  11    6   36 1
  12    7    8 1
  13    7   37 1
  14    8    9 ar
  15    8   12 ar
  16    9   10 1
  17    9   15 ar
  18   10   11 1
  19   10   16 2
  20   11   18 1
  21   12   13 ar
  22   12   38 1
  23   13   14 ar
  24   13   39 1
  25   14   15 ar
  26   14   40 1
  27   15   41 1
  28   16   17 1
  29   17   18 2
  30   17   25 1
  31   18   19 1
  32   19   20 ar
  33   19   21 ar
  34   20   24 ar
  35   20   42 1
  36   21   22 ar
  37   21   43 1
  38   22   23 ar
  39   22   44 1
  40   23   24 ar
  41   23   26 1
  42   24   45 1
  43   25   31 1
  44   25   32 2
  45   26   27 1
  46   26   28 1
  47   26   30 1
  48   27   46 1
  49   27   47 1
  50   28   29 1
  51   28   48 1
  52   28   49 1
  53   29   30 1
  54   29   50 1
  55   29   51 1
  56   30   52 1
  57   30   53 1
  58   31   33 1
  59   33   54 1
  60   33   55 1
  61   33   56 1

#	End of record

