#	Name: ASD01880263
#	Creating user name:	WinNT
#	Creation time:	15. 06. 2019 19:40

#	Modifying user name:	WinNT
#	Modification time:	15. 06. 2019 19:40

#	Program:	/corina/corina34_cracker 3.40 0067  02.08.2006

@<TRIPOS>MOLECULE
ASD01880263
  38   40    0    0    0
SMALL
NO_CHARGES


@<TRIPOS>ATOM
   1 C1            -0.0168     1.3853     0.0097 C.ar    
   2 C2             0.0021    -0.0041     0.0020 C.ar    
   3 N3             1.1464    -0.6679    -0.0120 N.ar    
   4 C4             2.3089    -0.0468    -0.0198 C.ar    
   5 C5             2.3710     1.3438    -0.0129 C.ar    
   6 C6             1.1800     2.0767     0.0019 C.ar    
   7 O7            -1.1690    -0.6893     0.0095 O.3     
   8 C8            -1.0860    -2.1158     0.0011 C.3     
   9 C9             3.6824     2.0388    -0.0207 C.2     
  10 C10            4.5121     1.9248    -1.0982 C.2     
  11 N11            5.7121     2.5568    -1.1140 N.am    
  12 C12            6.1107     3.3083    -0.0710 C.2     
  13 C13            5.2843     3.4500     1.0577 C.2     
  14 C14            4.0745     2.8254     1.0839 C.2     
  15 O15            7.1944     3.8689    -0.1049 O.2     
  16 C16            6.5861     2.4192    -2.2817 C.3     
  17 C17            6.2773     3.5124    -3.2719 C.ar    
  18 C18            6.7901     4.7842    -3.0811 C.ar    
  19 C19            6.5059     5.7881    -3.9914 C.ar    
  20 C20            5.7102     5.5193    -5.0900 C.ar    
  21 C21            5.1985     4.2475    -5.2791 C.ar    
  22 C22            5.4868     3.2441    -4.3735 C.ar    
  23 Cl23           5.3528     6.7773    -6.2316 Cl      
  24 F24            7.5670     5.0457    -2.0072 F       
  25 H25           -0.9558     1.9188     0.0170 H       
  26 H26            3.2225    -0.6227    -0.0312 H       
  27 H27            1.1949     3.1566     0.0072 H       
  28 H28           -2.0908    -2.5383     0.0084 H       
  29 H29           -0.5605    -2.4439    -0.8957 H       
  30 H30           -0.5435    -2.4535     0.8841 H       
  31 H31            4.2109     1.3261    -1.9451 H       
  32 H32            5.6043     4.0527     1.8948 H       
  33 H33            3.4268     2.9236     1.9426 H       
  34 H34            7.6270     2.4968    -1.9676 H       
  35 H35            6.4188     1.4484    -2.7484 H       
  36 H36            6.9052     6.7806    -3.8433 H       
  37 H37            4.5771     4.0378    -6.1372 H       
  38 H38            5.0869     2.2519    -4.5220 H       
@<TRIPOS>BOND
   1    1    2 ar
   2    1    6 ar
   3    1   25 1
   4    2    3 ar
   5    2    7 1
   6    3    4 ar
   7    4    5 ar
   8    4   26 1
   9    5    6 ar
  10    5    9 1
  11    6   27 1
  12    7    8 1
  13    8   28 1
  14    8   29 1
  15    8   30 1
  16    9   10 2
  17    9   14 1
  18   10   11 1
  19   10   31 1
  20   11   12 am
  21   11   16 1
  22   12   13 1
  23   12   15 2
  24   13   14 2
  25   13   32 1
  26   14   33 1
  27   16   17 1
  28   16   34 1
  29   16   35 1
  30   17   18 ar
  31   17   22 ar
  32   18   19 ar
  33   18   24 1
  34   19   20 ar
  35   19   36 1
  36   20   21 ar
  37   20   23 1
  38   21   22 ar
  39   21   37 1
  40   22   38 1

#	End of record

