#	Name: ASD08151033
#	Creating user name:	WinNT
#	Creation time:	15. 06. 2019 21:17

#	Modifying user name:	WinNT
#	Modification time:	15. 06. 2019 21:17

#	Program:	/corina/corina34_cracker 3.40 0067  02.08.2006

@<TRIPOS>MOLECULE
ASD08151033
  34   36    0    0    0
SMALL
NO_CHARGES


@<TRIPOS>ATOM
   1 C1            -0.0187     1.5258     0.0104 C.3     
   2 C2             0.0021    -0.0041     0.0020 C.3     
   3 N3             4.1064     2.8106     2.3087 N.ar    
   4 C4             5.3371     3.2644     2.3018 C.ar    
   5 C5             5.9788     3.6215     1.1184 C.ar    
   6 C6             5.3241     3.5019    -0.0746 C.ar    
   7 C7             4.0037     3.0140    -0.0618 C.ar    
   8 C8             3.2696     2.8642    -1.2508 C.ar    
   9 C9             1.9913     2.3903    -1.2078 C.ar    
  10 C10            1.3951     2.0474    -0.0003 C.ar    
  11 C11            2.0841     2.1796     1.1924 C.ar    
  12 C12            3.4121     2.6701     1.1777 C.ar    
  13 C13            1.4377     1.8118     2.4734 C.ar    
  14 C14            0.7164     2.7662     3.1947 C.ar    
  15 C15            0.1156     2.4154     4.3889 C.ar    
  16 C16            0.2280     1.1230     4.8687 C.ar    
  17 C17            0.9412     0.1743     4.1581 C.ar    
  18 C18            1.5415     0.5101     2.9616 C.ar    
  19 F19            0.6068     4.0287     2.7265 F       
  20 Cl20           3.9885     3.2852    -2.7738 Cl      
  21 O21           -0.7098     1.9991    -1.1473 O.3     
  22 H22           -0.5289     1.8773     0.9072 H       
  23 H23            0.5123    -0.3556    -0.8948 H       
  24 H24            0.5293    -0.3651     0.8851 H       
  25 H25           -1.0205    -0.3814     0.0098 H       
  26 H26            5.8663     3.3640     3.2380 H       
  27 H27            6.9926     3.9929     1.1440 H       
  28 H28            5.8061     3.7744    -1.0019 H       
  29 H29            1.4344     2.2787    -2.1263 H       
  30 H30           -0.4422     3.1517     4.9485 H       
  31 H31           -0.2428     0.8534     5.8026 H       
  32 H32            1.0249    -0.8330     4.5386 H       
  33 H33            2.0941    -0.2334     2.4063 H       
  34 H34           -1.6280     1.7017    -1.2062 H       
@<TRIPOS>BOND
   1    1    2 1
   2    1   10 1
   3    1   21 1
   4    1   22 1
   5    2   23 1
   6    2   24 1
   7    2   25 1
   8    3    4 ar
   9    3   12 ar
  10    4    5 ar
  11    4   26 1
  12    5    6 ar
  13    5   27 1
  14    6    7 ar
  15    6   28 1
  16    7    8 ar
  17    7   12 ar
  18    8    9 ar
  19    8   20 1
  20    9   10 ar
  21    9   29 1
  22   10   11 ar
  23   11   12 ar
  24   11   13 1
  25   13   14 ar
  26   13   18 ar
  27   14   15 ar
  28   14   19 1
  29   15   16 ar
  30   15   30 1
  31   16   17 ar
  32   16   31 1
  33   17   18 ar
  34   17   32 1
  35   18   33 1
  36   21   34 1

#	End of record

