#	Name: ASD01885685
#	Creating user name:	WinNT
#	Creation time:	15. 06. 2019 19:50

#	Modifying user name:	WinNT
#	Modification time:	15. 06. 2019 19:50

#	Program:	/corina/corina34_cracker 3.40 0067  02.08.2006

@<TRIPOS>MOLECULE
ASD01885685
  53   56    0    0    0
SMALL
NO_CHARGES


@<TRIPOS>ATOM
   1 C1             0.6555     0.8835     1.4219 C.ar    
   2 C2             1.8435     1.6571     1.4469 C.ar    
   3 C3             3.0793     1.0130     1.7078 C.ar    
   4 C4             3.0640    -0.3573     1.9281 C.ar    
   5 C5             1.8477    -1.0486     1.8862 C.ar    
   6 N6             0.7080    -0.4304     1.6412 N.ar    
   7 C7            -0.5971     2.8659     0.9363 C.ar    
   8 C8             0.5728     3.6227     0.9662 C.ar    
   9 C9             1.7778     3.0371     1.2143 C.ar    
  10 C10            4.3467     1.7782     1.7437 C.ar    
  11 C11            1.8399    -2.5126     2.1216 C.2     
  12 C12           -1.9124     3.5450     0.6537 C.3     
  13 C13           -0.5706     1.5240     1.1572 C.ar    
  14 N14            0.6783    -3.1950     2.0838 N.am    
  15 O15            2.8807    -3.0969     2.3486 O.2     
  16 N16           -2.5161     3.9841     1.9142 N.pl3   
  17 N17           -2.7621     3.2370     2.9331 N.2     
  18 N18           -3.2933     3.9329     3.8756 N.2     
  19 C19           -3.4065     5.2014     3.4662 C.2     
  20 C20           -2.9055     5.2459     2.2096 C.2     
  21 C21            5.2209     1.6346     2.8213 C.ar    
  22 C22            6.4001     2.3499     2.8495 C.ar    
  23 C23            6.7165     3.2095     1.8110 C.ar    
  24 C24            5.8524     3.3560     0.7389 C.ar    
  25 C25            4.6735     2.6410     0.6973 C.ar    
  26 Cl26           8.2016     4.1074     1.8537 Cl      
  27 C27           -3.9749     6.3551     4.2517 C.3     
  28 C28           -2.9045     7.4358     4.4174 C.3     
  29 O29           -5.0972     6.8992     3.5543 O.3     
  30 C30           -4.4206     5.8632     5.6302 C.3     
  31 C31           -5.5465     4.8401     5.4671 C.3     
  32 F32           -2.5818     7.9684     3.1646 F       
  33 F33           -3.3928     8.4527     5.2448 F       
  34 F34           -1.7603     6.8743     4.9942 F       
  35 H35            3.9837    -0.8862     2.1300 H       
  36 H36            0.5242     4.6866     0.7867 H       
  37 H37            2.6778     3.6339     1.2319 H       
  38 H38           -1.7444     4.4091     0.0109 H       
  39 H39           -2.5826     2.8454     0.1542 H       
  40 H40           -1.4861     0.9518     1.1294 H       
  41 H41           -0.1526    -2.7285     1.9026 H       
  42 H42            0.6732    -4.1527     2.2378 H       
  43 H43           -2.8360     6.1128     1.5694 H       
  44 H44            4.9748     0.9650     3.6321 H       
  45 H45            7.0776     2.2395     3.6833 H       
  46 H46            6.1040     4.0281    -0.0682 H       
  47 H47            4.0003     2.7559    -0.1394 H       
  48 H48           -5.8163     6.2682     3.4133 H       
  49 H49           -3.5772     5.3972     6.1399 H       
  50 H50           -4.7793     6.7075     6.2188 H       
  51 H51           -6.4257     5.3309     5.0496 H       
  52 H52           -5.2209     4.0454     4.7959 H       
  53 H53           -5.7950     4.4152     6.4397 H       
@<TRIPOS>BOND
   1    1    6 ar
   2    1    2 ar
   3    1   13 ar
   4    2    3 ar
   5    2    9 ar
   6    3   10 1
   7    3    4 ar
   8    4    5 ar
   9    4   35 1
  10    5   11 1
  11    5    6 ar
  12    7   12 1
  13    7   13 ar
  14    7    8 ar
  15    8    9 ar
  16    8   36 1
  17    9   37 1
  18   10   21 ar
  19   10   25 ar
  20   11   14 am
  21   11   15 2
  22   12   16 1
  23   12   38 1
  24   12   39 1
  25   13   40 1
  26   14   41 1
  27   14   42 1
  28   16   17 1
  29   16   20 1
  30   17   18 2
  31   18   19 1
  32   19   20 2
  33   19   27 1
  34   20   43 1
  35   21   22 ar
  36   21   44 1
  37   22   23 ar
  38   22   45 1
  39   23   24 ar
  40   23   26 1
  41   24   25 ar
  42   24   46 1
  43   25   47 1
  44   27   28 1
  45   27   29 1
  46   27   30 1
  47   28   32 1
  48   28   33 1
  49   28   34 1
  50   29   48 1
  51   30   31 1
  52   30   49 1
  53   30   50 1
  54   31   51 1
  55   31   52 1
  56   31   53 1

#	End of record

