#	Name: ASD00731018
#	Creating user name:	WinNT
#	Creation time:	15. 06. 2019 18:37

#	Modifying user name:	WinNT
#	Modification time:	15. 06. 2019 18:37

#	Program:	/corina/corina34_cracker 3.40 0067  02.08.2006

@<TRIPOS>MOLECULE
ASD00731018
 211  211    0    0    0
SMALL
NO_CHARGES


@<TRIPOS>ATOM
   1 C1            -1.5756     1.4370     2.9847 C.2     
   2 O2            -0.7135     0.8850     2.3343 O.2     
   3 N3             0.1425     1.6867     4.6802 N.am    
   4 C4            -1.2603     1.9634     4.3611 C.3     
   5 C5            -1.5033     3.4735     4.3976 C.3     
   6 O6            -0.7483     4.1027     3.3601 O.3     
   7 C7            -4.2752     1.8526     0.5551 C.2     
   8 O8            -4.7933     2.7401     1.1991 O.2     
   9 N9            -2.8142     1.5845     2.4742 N.am    
  10 C10           -3.1191     1.0781     1.1338 C.3     
  11 C11           -3.4904    -0.4036     1.2206 C.3     
  12 C12           -2.3674    -1.1706     1.9216 C.3     
  13 O13           -4.7022    -0.5483     1.9641 O.3     
  14 C14           -7.1577     1.4894    -0.7571 C.2     
  15 O15           -7.0520     0.4910    -0.0766 O.2     
  16 N16           -4.7332     1.5589    -0.6779 N.am    
  17 C17           -5.9244     2.2353    -1.1972 C.3     
  18 C18           -5.8666     2.2683    -2.7257 C.3     
  19 C19           -4.7109     3.1292    -3.1663 C.2     
  20 O20           -3.9571     3.5951    -2.3449 O.2     
  21 O21           -4.5188     3.3784    -4.4712 O.3     
  22 C22          -10.7002     1.4781    -1.6591 C.2     
  23 O23          -10.5173     2.2056    -2.6121 O.2     
  24 N24           -8.3781     1.9318    -1.1196 N.am    
  25 C25           -9.5770     1.2066    -0.6917 C.3     
  26 C26           -9.9842     1.6747     0.7069 C.3     
  27 C27           -8.8968     1.2871     1.7110 C.3     
  28 C28           -9.3040     1.7552     3.1096 C.3     
  29 N29           -8.2628     1.3841     4.0711 N.pl3   
  30 C30           -8.4095     1.7029     5.4004 C.2     
  31 N31           -9.4749     2.3353     5.8052 N.2     
  32 N32           -7.4324     1.3547     6.3027 N.pl3   
  33 C33          -14.3216     0.9818    -1.7081 C.2     
  34 O34          -14.3487     0.6550    -0.5405 O.2     
  35 N35          -11.9080     0.9123    -1.4652 N.am    
  36 C36          -12.9999     1.1762    -2.4056 C.3     
  37 C37          -12.8999     0.2096    -3.5874 C.3     
  38 C38          -11.6154     0.4913    -4.3694 C.3     
  39 C39          -11.4521    -0.5533    -5.4753 C.3     
  40 C40          -11.6934     1.8863    -4.9929 C.3     
  41 C41          -17.8178     0.6438    -2.7206 C.2     
  42 O42          -17.5283     0.5679    -3.8959 O.2     
  43 N43          -15.4734     1.1711    -2.3819 N.am    
  44 C44          -16.7582     0.9821    -1.7038 C.3     
  45 C45          -17.1442     2.2704    -0.9744 C.3     
  46 C46          -16.1345     2.5468     0.1414 C.3     
  47 C47          -16.5205     3.8352     0.8709 C.3     
  48 N48          -15.5537     4.0998     1.9393 N.pl3   
  49 C49          -15.6965     5.2113     2.7357 C.2     
  50 N50          -14.8363     5.4468     3.6863 N.2     
  51 N51          -16.7465     6.0745     2.5295 N.pl3   
  52 C52          -21.4698     0.4939    -2.7795 C.2     
  53 O53          -21.5640     1.0019    -1.6823 O.2     
  54 N54          -19.0872     0.4254    -2.3239 N.am    
  55 C55          -20.1173     0.0965    -3.3123 C.3     
  56 C56          -20.0992    -1.4086    -3.5862 C.3     
  57 C57          -18.7713    -1.7916    -4.2427 C.3     
  58 C58          -18.7532    -3.2968    -4.5166 C.3     
  59 C59          -17.4253    -3.6797    -5.1731 C.3     
  60 N60          -17.4079    -5.1249    -5.4361 N.3     
  61 C61          -24.9549    -0.1670    -3.6630 C.2     
  62 O62          -24.6462    -1.0046    -4.4840 O.2     
  63 N63          -22.5747     0.2849    -3.5225 N.am    
  64 C64          -23.8895     0.6712    -3.0046 C.3     
  65 C65          -24.1432     2.1491    -3.3083 C.3     
  66 C66          -23.1370     3.0078    -2.5394 C.3     
  67 S67          -23.4378     4.7601    -2.8995 S.3     
  68 C68          -22.1690     5.6027    -1.9143 C.3     
  69 C69          -27.6767    -0.1752    -5.2939 C.2     
  70 O70          -27.1444     0.8464    -5.6585 O.2     
  71 N71          -26.2506     0.0142    -3.3395 N.am    
  72 C72          -27.2863    -0.8007    -3.9796 C.3     
  73 C73          -28.5119    -0.8767    -3.0670 C.3     
  74 C74          -28.1514    -1.6120    -1.8019 C.ar    
  75 C75          -27.6695    -0.9141    -0.7103 C.ar    
  76 C76          -27.3387    -1.5886     0.4502 C.ar    
  77 C77          -27.4902    -2.9609     0.5191 C.ar    
  78 C78          -27.9730    -3.6587    -0.5722 C.ar    
  79 C79          -28.3079    -2.9837    -1.7311 C.ar    
  80 O80          -28.6157    -0.7530    -6.0595 O.3     
  81 C81            0.5344     1.5883     5.9660 C.2     
  82 O82           -0.2743     1.7288     6.8588 O.2     
  83 C83           13.4586    -1.1440    19.2584 C.3     
  84 C84           11.9936    -0.8550    18.9251 C.3     
  85 C85           11.8184    -0.7944    17.4064 C.3     
  86 C86           10.3534    -0.5053    17.0731 C.3     
  87 C87           10.1782    -0.4447    15.5544 C.3     
  88 C88            8.7132    -0.1557    15.2211 C.3     
  89 C89            8.5381    -0.0950    13.7023 C.3     
  90 C90            7.0730     0.1940    13.3691 C.3     
  91 C91            6.8979     0.2546    11.8503 C.3     
  92 C92            5.4329     0.5436    11.5170 C.3     
  93 C93            5.2577     0.6043     9.9983 C.3     
  94 C94            3.7927     0.8933     9.6650 C.3     
  95 C95            3.6175     0.9539     8.1463 C.3     
  96 C96            2.1525     1.2429     7.8130 C.3     
  97 C97            1.9774     1.3036     6.2943 C.3     
  98 H98            0.7893     1.5743     3.9661 H       
  99 H99           -1.9028     1.4742     5.0932 H       
 100 H100          -2.5641     3.6746     4.2480 H       
 101 H101          -1.1914     3.8685     5.3644 H       
 102 H102          -0.8544     5.0632     3.3236 H       
 103 H103          -3.5037     2.0260     2.9943 H       
 104 H104          -2.2453     1.1968     0.4931 H       
 105 H105          -3.6307    -0.8025     0.2160 H       
 106 H106          -2.2271    -0.7717     2.9263 H       
 107 H107          -2.6319    -2.2262     1.9835 H       
 108 H108          -1.4431    -1.0603     1.3545 H       
 109 H109          -4.6503    -0.2136     2.8698 H       
 110 H110          -4.2742     0.8996    -1.2215 H       
 111 H111          -5.9599     3.2547    -0.8129 H       
 112 H112          -5.7312     1.2558    -3.1061 H       
 113 H113          -6.7968     2.6815    -3.1157 H       
 114 H114          -3.7642     3.9359    -4.7052 H       
 115 H115          -8.4626     2.7303    -1.6638 H       
 116 H116          -9.3665     0.1374    -0.6701 H       
 117 H117         -10.1084     2.7576     0.7058 H       
 118 H118         -10.9246     1.2013     0.9890 H       
 119 H119          -8.7725     0.2042     1.7121 H       
 120 H120          -7.9563     1.7605     1.4290 H       
 121 H121          -9.4283     2.8380     3.1085 H       
 122 H122         -10.2444     1.2818     3.3917 H       
 123 H123          -7.4699     0.9134     3.7699 H       
 124 H124          -9.5785     2.5602     6.7431 H       
 125 H125          -6.6396     0.8840     6.0015 H       
 126 H126          -7.5359     1.5796     7.2406 H       
 127 H127         -12.0543     0.3305    -0.7030 H       
 128 H128         -12.9276     2.2017    -2.7678 H       
 129 H129         -12.8829    -0.8157    -3.2178 H       
 130 H130         -13.7609     0.3456    -4.2419 H       
 131 H131         -10.7609     0.4423    -3.6943 H       
 132 H132         -12.3065    -0.5043    -6.1503 H       
 133 H133         -10.5370    -0.3527    -6.0324 H       
 134 H134         -11.3965    -1.5471    -5.0311 H       
 135 H135         -10.7782     2.0869    -5.5500 H       
 136 H136         -12.5478     1.9352    -5.6679 H       
 137 H137         -11.8097     2.6304    -4.2050 H       
 138 H138         -15.4516     1.4324    -3.3158 H       
 139 H139         -16.6727     0.1684    -0.9836 H       
 140 H140         -17.1430     3.1016    -1.6796 H       
 141 H141         -18.1397     2.1602    -0.5444 H       
 142 H142         -16.1357     1.7157     0.8466 H       
 143 H143         -15.1390     2.6571    -0.2886 H       
 144 H144         -16.5193     4.6663     0.1657 H       
 145 H145         -17.5160     3.7249     1.3009 H       
 146 H146         -14.8128     3.4909     2.0847 H       
 147 H147         -14.9370     6.2311     4.2482 H       
 148 H148         -17.3867     5.8992     1.8221 H       
 149 H149         -16.8473     6.8587     3.0915 H       
 150 H150         -19.3188     0.4861    -1.3839 H       
 151 H151         -19.9183     0.6367    -4.2379 H       
 152 H152         -20.2096    -1.9503    -2.6468 H       
 153 H153         -20.9219    -1.6665    -4.2531 H       
 154 H154         -18.6609    -1.2500    -5.1821 H       
 155 H155         -17.9486    -1.5337    -3.5758 H       
 156 H156         -18.8636    -3.8384    -3.5772 H       
 157 H157         -19.5759    -3.5546    -5.1835 H       
 158 H158         -17.3149    -3.1381    -6.1125 H       
 159 H159         -16.6026    -3.4219    -4.5062 H       
 160 H160         -18.1984    -5.3994    -5.9999 H       
 161 H161         -16.5404    -5.4030    -5.8699 H       
 162 H162         -22.4994    -0.1214    -4.4001 H       
 163 H163         -23.9166     0.5119    -1.9266 H       
 164 H164         -24.0285     2.3251    -4.3779 H       
 165 H165         -25.1554     2.4143    -3.0029 H       
 166 H166         -23.2517     2.8318    -1.4698 H       
 167 H167         -22.1249     2.7426    -2.8448 H       
 168 H168         -22.3079     5.3618    -0.8603 H       
 169 H169         -21.1810     5.2726    -2.2353 H       
 170 H170         -22.2557     6.6801    -2.0552 H       
 171 H171         -26.4975     0.6841    -2.6828 H       
 172 H172         -26.9013    -1.8051    -4.1554 H       
 173 H173         -28.8436     0.1316    -2.8192 H       
 174 H174         -29.3142    -1.4074    -3.5796 H       
 175 H175         -27.5510     0.1580    -0.7641 H       
 176 H176         -26.9615    -1.0434     1.3028 H       
 177 H177         -27.2311    -3.4879     1.4255 H       
 178 H178         -28.0911    -4.7308    -0.5184 H       
 179 H179         -28.6885    -3.5283    -2.5825 H       
 180 H180         -28.8325    -0.3149    -6.8938 H       
 181 H181          13.5834    -1.1872    20.3404 H       
 182 H182          13.7492    -2.0990    18.8207 H       
 183 H183          14.0869    -0.3517    18.8515 H       
 184 H184          11.3652    -1.6473    19.3320 H       
 185 H185          11.7029     0.1000    19.3628 H       
 186 H186          12.4467    -0.0020    16.9995 H       
 187 H187          12.1090    -1.7494    16.9687 H       
 188 H188           9.7251    -1.2977    17.4799 H       
 189 H189          10.0628     0.4497    17.5108 H       
 190 H190          10.8065     0.3476    15.1475 H       
 191 H191          10.4688    -1.3997    15.1167 H       
 192 H192           8.0849    -0.9480    15.6279 H       
 193 H193           8.4226     0.7993    15.6588 H       
 194 H194           9.1664     0.6973    13.2955 H       
 195 H195           8.8287    -1.0501    13.2647 H       
 196 H196           6.4447    -0.5984    13.7759 H       
 197 H197           6.7824     1.1490    13.8067 H       
 198 H198           7.5262     1.0469    11.4435 H       
 199 H199           7.1885    -0.7004    11.4126 H       
 200 H200           4.8045    -0.2487    11.9239 H       
 201 H201           5.1422     1.4987    11.9547 H       
 202 H202           5.8860     1.3966     9.5915 H       
 203 H203           5.5483    -0.3508     9.5606 H       
 204 H204           3.1644     0.1009    10.0719 H       
 205 H205           3.5021     1.8483    10.1027 H       
 206 H206           4.2458     1.7463     7.7394 H       
 207 H207           3.9082    -0.0011     7.7086 H       
 208 H208           1.5242     0.4506     8.2198 H       
 209 H209           1.8619     2.1980     8.2507 H       
 210 H210           2.2680     0.3486     5.8566 H       
 211 H211           2.6057     2.0959     5.8874 H       
@<TRIPOS>BOND
   1    1    2 2
   2    1    4 1
   3    1    9 am
   4    3   81 am
   5    3    4 1
   6    3   98 1
   7    4    5 1
   8    4   99 1
   9    5    6 1
  10    5  100 1
  11    5  101 1
  12    6  102 1
  13    7    8 2
  14    7   10 1
  15    7   16 am
  16    9   10 1
  17    9  103 1
  18   10   11 1
  19   10  104 1
  20   11   12 1
  21   11   13 1
  22   11  105 1
  23   12  106 1
  24   12  107 1
  25   12  108 1
  26   13  109 1
  27   14   15 2
  28   14   17 1
  29   14   24 am
  30   16   17 1
  31   16  110 1
  32   17   18 1
  33   17  111 1
  34   18   19 1
  35   18  112 1
  36   18  113 1
  37   19   20 2
  38   19   21 1
  39   21  114 1
  40   22   23 2
  41   22   25 1
  42   22   35 am
  43   24   25 1
  44   24  115 1
  45   25   26 1
  46   25  116 1
  47   26   27 1
  48   26  117 1
  49   26  118 1
  50   27   28 1
  51   27  119 1
  52   27  120 1
  53   28   29 1
  54   28  121 1
  55   28  122 1
  56   29   30 1
  57   29  123 1
  58   30   31 2
  59   30   32 1
  60   31  124 1
  61   32  125 1
  62   32  126 1
  63   33   34 2
  64   33   36 1
  65   33   43 am
  66   35   36 1
  67   35  127 1
  68   36   37 1
  69   36  128 1
  70   37   38 1
  71   37  129 1
  72   37  130 1
  73   38   39 1
  74   38   40 1
  75   38  131 1
  76   39  132 1
  77   39  133 1
  78   39  134 1
  79   40  135 1
  80   40  136 1
  81   40  137 1
  82   41   42 2
  83   41   44 1
  84   41   54 am
  85   43   44 1
  86   43  138 1
  87   44   45 1
  88   44  139 1
  89   45   46 1
  90   45  140 1
  91   45  141 1
  92   46   47 1
  93   46  142 1
  94   46  143 1
  95   47   48 1
  96   47  144 1
  97   47  145 1
  98   48   49 1
  99   48  146 1
 100   49   50 2
 101   49   51 1
 102   50  147 1
 103   51  148 1
 104   51  149 1
 105   52   53 2
 106   52   55 1
 107   52   63 am
 108   54   55 1
 109   54  150 1
 110   55   56 1
 111   55  151 1
 112   56   57 1
 113   56  152 1
 114   56  153 1
 115   57   58 1
 116   57  154 1
 117   57  155 1
 118   58   59 1
 119   58  156 1
 120   58  157 1
 121   59   60 1
 122   59  158 1
 123   59  159 1
 124   60  160 1
 125   60  161 1
 126   61   62 2
 127   61   64 1
 128   61   71 am
 129   63   64 1
 130   63  162 1
 131   64   65 1
 132   64  163 1
 133   65   66 1
 134   65  164 1
 135   65  165 1
 136   66   67 1
 137   66  166 1
 138   66  167 1
 139   67   68 1
 140   68  168 1
 141   68  169 1
 142   68  170 1
 143   69   70 2
 144   69   72 1
 145   69   80 1
 146   71   72 1
 147   71  171 1
 148   72   73 1
 149   72  172 1
 150   73   74 1
 151   73  173 1
 152   73  174 1
 153   74   75 ar
 154   74   79 ar
 155   75   76 ar
 156   75  175 1
 157   76   77 ar
 158   76  176 1
 159   77   78 ar
 160   77  177 1
 161   78   79 ar
 162   78  178 1
 163   79  179 1
 164   80  180 1
 165   81   82 2
 166   81   97 1
 167   83   84 1
 168   83  181 1
 169   83  182 1
 170   83  183 1
 171   84   85 1
 172   84  184 1
 173   84  185 1
 174   85   86 1
 175   85  186 1
 176   85  187 1
 177   86   87 1
 178   86  188 1
 179   86  189 1
 180   87   88 1
 181   87  190 1
 182   87  191 1
 183   88   89 1
 184   88  192 1
 185   88  193 1
 186   89   90 1
 187   89  194 1
 188   89  195 1
 189   90   91 1
 190   90  196 1
 191   90  197 1
 192   91   92 1
 193   91  198 1
 194   91  199 1
 195   92   93 1
 196   92  200 1
 197   92  201 1
 198   93   94 1
 199   93  202 1
 200   93  203 1
 201   94   95 1
 202   94  204 1
 203   94  205 1
 204   95   96 1
 205   95  206 1
 206   95  207 1
 207   96   97 1
 208   96  208 1
 209   96  209 1
 210   97  210 1
 211   97  211 1

#	End of record

