#	Name: ASD01884886
#	Creating user name:	WinNT
#	Creation time:	15. 06. 2019 19:49

#	Modifying user name:	WinNT
#	Modification time:	15. 06. 2019 19:49

#	Program:	/corina/corina34_cracker 3.40 0067  02.08.2006

@<TRIPOS>MOLECULE
ASD01884886
  38   41    0    0    0
SMALL
NO_CHARGES


@<TRIPOS>ATOM
   1 C1             2.3713     1.2010    -1.3451 C.ar    
   2 C2             2.2259    -0.1523    -1.2505 C.ar    
   3 C3             1.5019    -0.7210    -0.1958 C.ar    
   4 C4             0.9215     0.0927     0.7689 C.ar    
   5 C5             1.0679     1.4763     0.6756 C.ar    
   6 C6             1.7985     2.0361    -0.3893 C.ar    
   7 C7             0.6060     2.6050     1.4879 C.2     
   8 C8             1.0594     3.7228     0.8993 C.2     
   9 N9             1.7737     3.4027    -0.2230 N.pl3   
  10 C10            1.3541    -2.1928    -0.1087 C.2     
  11 C11            0.6113    -2.8751    -1.0522 C.2     
  12 C12            1.9788    -2.9130     0.9404 C.2     
  13 C13            1.8456    -4.2490     1.0192 C.2     
  14 N14            1.1085    -4.9348     0.0932 N.pl3   
  15 C15            0.4889    -4.2719    -0.9444 C.2     
  16 C16            0.8064    -6.2529    -0.0764 C.2     
  17 N17            0.0526    -6.3485    -1.1460 N.2     
  18 N18           -0.1386    -5.1864    -1.6636 N.2     
  19 H19            2.1993     4.0435    -0.8139 H       
  20 O20            1.2113    -7.2781     0.7153 O.3     
  21 C21            0.7758    -8.5897     0.3517 C.3     
  22 C22            1.3274    -9.6062     1.3534 C.3     
  23 C23           -0.0586    -2.1337    -2.1803 C.3     
  24 F24            0.8698    -1.8988    -3.2002 F       
  25 F25           -1.1160    -2.9014    -2.6800 F       
  26 F26           -0.5515    -0.9125    -1.7080 F       
  27 H27            2.9363     1.6258    -2.1617 H       
  28 H28            2.6737    -0.7914    -1.9971 H       
  29 H29            0.3616    -0.3423     1.5836 H       
  30 H30            0.0130     2.5484     2.3888 H       
  31 H31            0.8862     4.7265     1.2584 H       
  32 H32            2.5646    -2.3867     1.6794 H       
  33 H33            2.3266    -4.7868     1.8228 H       
  34 H34           -0.3136    -8.6260     0.3597 H       
  35 H35            1.1400    -8.8295    -0.6473 H       
  36 H36            2.4167    -9.5698     1.3454 H       
  37 H37            0.9632    -9.3663     2.3523 H       
  38 H38            0.9951   -10.6066     1.0761 H       
@<TRIPOS>BOND
   1    1    2 ar
   2    1    6 ar
   3    1   27 1
   4    2    3 ar
   5    2   28 1
   6    3    4 ar
   7    3   10 1
   8    4    5 ar
   9    4   29 1
  10    5    6 ar
  11    5    7 1
  12    6    9 1
  13    7    8 2
  14    7   30 1
  15    8    9 1
  16    8   31 1
  17    9   19 1
  18   10   11 2
  19   10   12 1
  20   11   23 1
  21   11   15 1
  22   12   13 2
  23   12   32 1
  24   13   14 1
  25   13   33 1
  26   14   15 1
  27   14   16 1
  28   15   18 2
  29   16   17 2
  30   16   20 1
  31   17   18 1
  32   20   21 1
  33   21   22 1
  34   21   34 1
  35   21   35 1
  36   22   36 1
  37   22   37 1
  38   22   38 1
  39   23   24 1
  40   23   25 1
  41   23   26 1

#	End of record

