#	Name: ASD04591118
#	Creating user name:	WinNT
#	Creation time:	15. 06. 2019 20:52

#	Modifying user name:	WinNT
#	Modification time:	15. 06. 2019 20:52

#	Program:	/corina/corina34_cracker 3.40 0067  02.08.2006

@<TRIPOS>MOLECULE
ASD04591118
  58   63    0    0    0
SMALL
NO_CHARGES


@<TRIPOS>ATOM
   1 N1            -0.0171     1.3241    -0.0119 N.ar    
   2 C2             0.0017    -0.0035    -0.0052 C.ar    
   3 N3             1.1288    -0.6959    -0.0118 N.ar    
   4 C4             2.3046    -0.0743    -0.0262 C.ar    
   5 C5             2.3193     1.3366    -0.0342 C.ar    
   6 C6             1.1058     2.0215    -0.0262 C.ar    
   7 N7             3.6008    -0.5159    -0.0358 N.pl3   
   8 C8             4.4753     0.5585    -0.0499 C.2     
   9 C9             3.7292     1.7374    -0.0495 C.2     
  10 C10            5.8821     0.6500    -0.0639 C.2     
  11 N11            6.4768     1.8578    -0.0766 N.am    
  12 C12            5.7480     3.0100    -0.0762 C.2     
  13 C13            4.4006     2.9807    -0.0623 C.2     
  14 N14           -1.2017    -0.6878     0.0098 N.pl3   
  15 C15           -2.4013     0.0135     0.1303 C.ar    
  16 C16            4.0052    -1.9240    -0.0310 C.3     
  17 C17            3.4674    -2.6225     1.2302 C.3     
  18 C18            2.5389    -3.7548     0.7447 C.3     
  19 C19            3.0324    -4.0614    -0.6911 C.3     
  20 C20            3.3848    -2.6561    -1.2388 C.3     
  21 N21           -2.3771     1.3212     0.3309 N.ar    
  22 C22           -3.4868     2.0251     0.4509 C.ar    
  23 C23           -4.7278     1.4114     0.3703 C.ar    
  24 C24           -4.7929     0.0349     0.1596 C.ar    
  25 C25           -3.6092    -0.6687     0.0326 C.ar    
  26 N26           -5.9006     2.1649     0.4995 N.3     
  27 C27           -5.5929     3.5856     0.7148 C.3     
  28 C28           -6.8971     4.3845     0.7711 C.3     
  29 N29           -7.7423     3.8618     1.8537 N.3     
  30 C30           -8.0501     2.4410     1.6384 C.3     
  31 C31           -6.7458     1.6421     1.5820 C.3     
  32 O32            6.5602    -0.3648    -0.0642 O.2     
  33 H33            1.0830     3.1012    -0.0320 H       
  34 H34            7.4454     1.9094    -0.0858 H       
  35 H35            6.2586     3.9616    -0.0862 H       
  36 H36            3.8373     3.9021    -0.0618 H       
  37 H37           -1.2106    -1.6550    -0.0635 H       
  38 H38            5.0920    -2.0001    -0.0652 H       
  39 H39            4.2931    -3.0384     1.8075 H       
  40 H40            2.9055    -1.9139     1.8386 H       
  41 H41            2.6447    -4.6339     1.3804 H       
  42 H42            1.5025    -3.4175     0.7280 H       
  43 H43            3.9157    -4.6996    -0.6679 H       
  44 H44            2.2394    -4.5189    -1.2826 H       
  45 H45            2.4850    -2.1414    -1.5758 H       
  46 H46            4.1079    -2.7334    -2.0507 H       
  47 H47           -3.4279     3.0911     0.6140 H       
  48 H48           -5.7456    -0.4696     0.0929 H       
  49 H49           -3.6225    -1.7360    -0.1317 H       
  50 H50           -5.0539     3.7025     1.6549 H       
  51 H51           -4.9767     3.9527    -0.1061 H       
  52 H52           -6.6726     5.4344     0.9597 H       
  53 H53           -7.4230     4.2897    -0.1789 H       
  54 H54           -7.3080     4.0054     2.7530 H       
  55 H55           -8.6662     2.0740     2.4592 H       
  56 H56           -8.5891     2.3241     0.6982 H       
  57 H57           -6.9703     0.5923     1.3935 H       
  58 H58           -6.2200     1.7370     2.5321 H       
@<TRIPOS>BOND
   1    1    2 ar
   2    1    6 ar
   3    2    3 ar
   4    2   14 1
   5    3    4 ar
   6    4    5 ar
   7    4    7 1
   8    5    6 ar
   9    5    9 1
  10    6   33 1
  11    7    8 1
  12    7   16 1
  13    8    9 2
  14    8   10 1
  15    9   13 1
  16   10   11 am
  17   10   32 2
  18   11   12 1
  19   11   34 1
  20   12   13 2
  21   12   35 1
  22   13   36 1
  23   14   15 1
  24   14   37 1
  25   15   21 ar
  26   15   25 ar
  27   16   17 1
  28   16   20 1
  29   16   38 1
  30   17   18 1
  31   17   39 1
  32   17   40 1
  33   18   19 1
  34   18   41 1
  35   18   42 1
  36   19   20 1
  37   19   43 1
  38   19   44 1
  39   20   45 1
  40   20   46 1
  41   21   22 ar
  42   22   23 ar
  43   22   47 1
  44   23   24 ar
  45   23   26 1
  46   24   25 ar
  47   24   48 1
  48   25   49 1
  49   26   27 1
  50   26   31 1
  51   27   28 1
  52   27   50 1
  53   27   51 1
  54   28   29 1
  55   28   52 1
  56   28   53 1
  57   29   30 1
  58   29   54 1
  59   30   31 1
  60   30   55 1
  61   30   56 1
  62   31   57 1
  63   31   58 1

#	End of record

