#	Name: ASD04910224
#	Creating user name:	WinNT
#	Creation time:	15. 06. 2019 20:55

#	Modifying user name:	WinNT
#	Modification time:	15. 06. 2019 20:55

#	Program:	/corina/corina34_cracker 3.40 0067  02.08.2006

@<TRIPOS>MOLECULE
ASD04910224
  29   30    0    0    0
SMALL
NO_CHARGES


@<TRIPOS>ATOM
   1 C1            -0.2022     0.0021     0.1102 C.1     
   2 C2            -0.1175     1.4308     0.0630 C.ar    
   3 C3             1.1264     2.0550    -0.0625 C.ar    
   4 C4             1.2039     3.4294    -0.1075 C.ar    
   5 C5             0.0464     4.1957    -0.0279 C.ar    
   6 C6            -1.1931     3.5783     0.0970 C.ar    
   7 C7            -1.2791     2.2042     0.1364 C.ar    
   8 N8            -0.2694    -1.1313     0.1476 N.1     
   9 N9             0.1293     5.5915    -0.0731 N.pl3   
  10 N10            0.9000     6.4005     0.7720 N.2     
  11 C11            0.7186     7.6482     0.4225 C.2     
  12 C12           -0.1727     7.6788    -0.6560 C.2     
  13 C13           -0.5186     6.4038    -0.9478 C.2     
  14 C14           -0.6574     8.9141    -1.3701 C.3     
  15 F15           -0.0768    10.0467    -0.7892 F       
  16 F16           -0.2955     8.8448    -2.7197 F       
  17 F17           -2.0499     8.9977    -1.2644 F       
  18 C18           -2.4445     4.4135     0.1829 C.3     
  19 C19            2.5449     4.1036    -0.2428 C.3     
  20 H20            2.0260     1.4605    -0.1237 H       
  21 H21           -2.2427     1.7252     0.2285 H       
  22 H22            1.1780     8.5080     0.8874 H       
  23 H23           -1.1899     6.0890    -1.7331 H       
  24 H24           -2.7864     4.6602    -0.8222 H       
  25 H25           -3.2208     3.8524     0.7032 H       
  26 H26           -2.2316     5.3319     0.7299 H       
  27 H27            2.8008     4.1949    -1.2984 H       
  28 H28            2.5000     5.0953     0.2073 H       
  29 H29            3.3037     3.5082     0.2648 H       
@<TRIPOS>BOND
   1    1    2 1
   2    1    8 3
   3    2    3 ar
   4    2    7 ar
   5    3    4 ar
   6    3   20 1
   7    4    5 ar
   8    4   19 1
   9    5    6 ar
  10    5    9 1
  11    6    7 ar
  12    6   18 1
  13    7   21 1
  14    9   10 1
  15    9   13 1
  16   10   11 2
  17   11   12 1
  18   11   22 1
  19   12   13 2
  20   12   14 1
  21   13   23 1
  22   14   15 1
  23   14   16 1
  24   14   17 1
  25   18   24 1
  26   18   25 1
  27   18   26 1
  28   19   27 1
  29   19   28 1
  30   19   29 1

#	End of record

