#	Name: ASD01916745
#	Creating user name:	WinNT
#	Creation time:	15. 06. 2019 20:07

#	Modifying user name:	WinNT
#	Modification time:	15. 06. 2019 20:07

#	Program:	/corina/corina34_cracker 3.40 0067  02.08.2006

@<TRIPOS>MOLECULE
ASD01916745
  22   22    0    0    0
SMALL
NO_CHARGES


@<TRIPOS>ATOM
   1 C1            -0.0184     1.5028     0.0103 C.2     
   2 C2             0.0021    -0.0041     0.0020 C.3     
   3 C3             1.4513    -0.4944    -0.0145 C.3     
   4 C4             1.4713    -1.9662    -0.0225 C.1     
   5 C5             1.4872    -3.1401    -0.0290 C.1     
   6 O6             1.0197     2.1211     0.0037 O.2     
   7 O7            -1.1898     2.1580     0.0194 O.3     
   8 C8             1.5066    -4.5719    -0.0369 C.ar    
   9 C9             2.7273    -5.2477    -0.0522 C.ar    
  10 C10            2.7293    -6.6312    -0.0596 C.ar    
  11 C11            1.5107    -7.2960    -0.0515 C.ar    
  12 C12            0.3380    -6.5636    -0.0364 C.ar    
  13 N13            0.3627    -5.2465    -0.0241 N.ar    
  14 H14           -0.4983    -0.3791     0.8948 H       
  15 H15           -0.5153    -0.3696    -0.8850 H       
  16 H16            1.9516    -0.1193    -0.9073 H       
  17 H17            1.9686    -0.1289     0.8726 H       
  18 H18           -1.1523     3.1243     0.0245 H       
  19 H19            3.6573    -4.6986    -0.0585 H       
  20 H20            3.6584    -7.1818    -0.0718 H       
  21 H21            1.4789    -8.3755    -0.0574 H       
  22 H22           -0.6113    -7.0785    -0.0305 H       
@<TRIPOS>BOND
   1    1    2 1
   2    1    6 2
   3    1    7 1
   4    2    3 1
   5    2   14 1
   6    2   15 1
   7    3    4 1
   8    3   16 1
   9    3   17 1
  10    4    5 3
  11    5    8 1
  12    7   18 1
  13    8    9 ar
  14    8   13 ar
  15    9   10 ar
  16    9   19 1
  17   10   11 ar
  18   10   20 1
  19   11   12 ar
  20   11   21 1
  21   12   13 ar
  22   12   22 1

#	End of record

