#	Name: ASD01916434
#	Creating user name:	WinNT
#	Creation time:	15. 06. 2019 20:07

#	Modifying user name:	WinNT
#	Modification time:	15. 06. 2019 20:07

#	Program:	/corina/corina34_cracker 3.40 0067  02.08.2006

@<TRIPOS>MOLECULE
ASD01916434
  36   37    0    0    0
SMALL
NO_CHARGES


@<TRIPOS>ATOM
   1 C1            -0.0465     1.4850     0.2239 C.2     
   2 C2            -0.0457    -0.0219     0.2059 C.3     
   3 C3             1.3743    -0.5341     0.4556 C.3     
   4 C4             1.3751    -2.0060     0.4380 C.1     
   5 C5             1.3758    -3.1799     0.4239 C.1     
   6 O6             0.9869     2.0898     0.4175 O.2     
   7 N7            -1.1946     2.1607     0.0195 N.am    
   8 C8            -1.2153     3.5563     0.1328 C.ar    
   9 C9            -0.1180     4.3032    -0.2744 C.ar    
  10 C10           -0.1404     5.6796    -0.1617 C.ar    
  11 C11           -1.2563     6.3146     0.3570 C.ar    
  12 C12           -2.3517     5.5715     0.7637 C.ar    
  13 C13           -2.3355     4.1954     0.6474 C.ar    
  14 F14           -1.2761     7.6610     0.4669 F       
  15 C15            1.3766    -4.6118     0.4067 C.ar    
  16 C16            2.5693    -5.3060     0.6133 C.ar    
  17 C17            2.5536    -6.6893     0.5938 C.ar    
  18 C18            1.3459    -7.3354     0.3683 C.ar    
  19 C19            0.2012    -6.5854     0.1710 C.ar    
  20 N20            0.2413    -5.2689     0.1997 N.ar    
  21 C21           -1.1115    -7.2837    -0.0746 C.3     
  22 F22           -1.7520    -7.5159     1.1473 F       
  23 H23           -0.7090    -0.3950     0.9862 H       
  24 H24           -0.3933    -0.3738    -0.7654 H       
  25 H25            2.0376    -0.1610    -0.3247 H       
  26 H26            1.7219    -0.1822     1.4269 H       
  27 H27           -2.0065     1.6803    -0.2062 H       
  28 H28            0.7526     3.8083    -0.6787 H       
  29 H29            0.7130     6.2609    -0.4780 H       
  30 H30           -3.2209     6.0687     1.1684 H       
  31 H31           -3.1917     3.6165     0.9606 H       
  32 H32            3.4916    -4.7711     0.7857 H       
  33 H33            3.4609    -7.2539     0.7501 H       
  34 H34            1.3008    -8.4143     0.3467 H       
  35 H35           -1.7443    -6.6571    -0.7032 H       
  36 H36           -0.9292    -8.2343    -0.5757 H       
@<TRIPOS>BOND
   1    1    2 1
   2    1    6 2
   3    1    7 am
   4    2    3 1
   5    2   23 1
   6    2   24 1
   7    3    4 1
   8    3   25 1
   9    3   26 1
  10    4    5 3
  11    5   15 1
  12    7    8 1
  13    7   27 1
  14    8    9 ar
  15    8   13 ar
  16    9   10 ar
  17    9   28 1
  18   10   11 ar
  19   10   29 1
  20   11   12 ar
  21   11   14 1
  22   12   13 ar
  23   12   30 1
  24   13   31 1
  25   15   16 ar
  26   15   20 ar
  27   16   17 ar
  28   16   32 1
  29   17   18 ar
  30   17   33 1
  31   18   19 ar
  32   18   34 1
  33   19   20 ar
  34   19   21 1
  35   21   22 1
  36   21   35 1
  37   21   36 1

#	End of record

