#	Name: ASD00311467
#	Creating user name:	WinNT
#	Creation time:	15. 06. 2019 18:34

#	Modifying user name:	WinNT
#	Modification time:	15. 06. 2019 18:34

#	Program:	/corina/corina34_cracker 3.40 0067  02.08.2006

@<TRIPOS>MOLECULE
ASD00311467
  47   51    0    0    0
SMALL
NO_CHARGES


@<TRIPOS>ATOM
   1 C1            -0.0167     1.3781     0.0096 C.2     
   2 C2             0.0021    -0.0041     0.0020 C.2     
   3 C3             1.2579    -0.6768    -0.0143 C.2     
   4 C4             2.4324     0.0679    -0.0223 C.2     
   5 C5             2.3576     1.4771    -0.0140 C.2     
   6 N6             1.1645     2.0912     0.0022 N.am    
   7 C7            -1.3435    -0.5751     0.0126 C.2     
   8 C8            -2.3228     0.3264     0.0274 C.2     
   9 S9            -1.6794     1.9565     0.0358 S.3     
  10 O10            3.3817     2.1398    -0.0208 O.2     
  11 O11            1.3074    -2.0289    -0.0217 O.3     
  12 C12            3.7462    -0.6100    -0.0387 C.ar    
  13 C13            4.5903    -0.4700    -1.1434 C.ar    
  14 C14            5.8041    -1.0959    -1.1594 C.ar    
  15 C15            6.2021    -1.8771    -0.0695 C.ar    
  16 C16            5.3565    -2.0167     1.0359 C.ar    
  17 C17            4.1455    -1.3856     1.0528 C.ar    
  18 C18            7.4744    -2.5341    -0.0857 C.1     
  19 N19            8.4837    -3.0552    -0.0985 N.1     
  20 C20           -2.0695    -4.7660    -0.0044 C.ar    
  21 C21           -2.7059    -3.9520     0.9325 C.ar    
  22 C22           -2.4709    -2.5950     0.9385 C.ar    
  23 C23           -1.5961    -2.0345     0.0069 C.ar    
  24 C24           -0.9596    -2.8493    -0.9304 C.ar    
  25 C25           -1.1951    -4.2061    -0.9357 C.ar    
  26 C26           -2.3185    -6.2279    -0.0069 C.ar    
  27 C27           -1.6841    -7.0440    -0.9420 C.ar    
  28 C28           -1.9192    -8.4039    -0.9392 C.ar    
  29 C29           -2.7826    -8.9573    -0.0109 C.ar    
  30 C30           -3.4150    -8.1523     0.9194 C.ar    
  31 C31           -3.1834    -6.7918     0.9295 C.ar    
  32 H32            1.1316     3.0606     0.0077 H       
  33 H33           -3.3754     0.0849     0.0368 H       
  34 H34            2.2046    -2.3896    -0.0327 H       
  35 H35            4.2827     0.1329    -1.9850 H       
  36 H36            6.4563    -0.9879    -2.0134 H       
  37 H37            5.6630    -2.6200     1.8776 H       
  38 H38            3.4945    -1.4894     1.9083 H       
  39 H39           -3.3829    -4.3859     1.6534 H       
  40 H40           -2.9642    -1.9647     1.6636 H       
  41 H41           -0.2828    -2.4158    -1.6518 H       
  42 H42           -0.7023    -4.8368    -1.6608 H       
  43 H43           -1.0101    -6.6130    -1.6674 H       
  44 H44           -1.4285    -9.0372    -1.6635 H       
  45 H45           -2.9640   -10.0220    -0.0127 H       
  46 H46           -4.0881    -8.5898     1.6419 H       
  47 H47           -3.6745    -6.1648     1.6590 H       
@<TRIPOS>BOND
   1    1    2 2
   2    1    6 1
   3    1    9 1
   4    2    3 1
   5    2    7 1
   6    3    4 2
   7    3   11 1
   8    4    5 1
   9    4   12 1
  10    5    6 am
  11    5   10 2
  12    6   32 1
  13    7    8 2
  14    7   23 1
  15    8    9 1
  16    8   33 1
  17   11   34 1
  18   12   13 ar
  19   12   17 ar
  20   13   14 ar
  21   13   35 1
  22   14   15 ar
  23   14   36 1
  24   15   16 ar
  25   15   18 1
  26   16   17 ar
  27   16   37 1
  28   17   38 1
  29   18   19 3
  30   20   21 ar
  31   20   25 ar
  32   20   26 1
  33   21   22 ar
  34   21   39 1
  35   22   23 ar
  36   22   40 1
  37   23   24 ar
  38   24   25 ar
  39   24   41 1
  40   25   42 1
  41   26   27 ar
  42   26   31 ar
  43   27   28 ar
  44   27   43 1
  45   28   29 ar
  46   28   44 1
  47   29   30 ar
  48   29   45 1
  49   30   31 ar
  50   30   46 1
  51   31   47 1

#	End of record

