#	Name: ASD01200212
#	Creating user name:	WinNT
#	Creation time:	15. 06. 2019 19:08

#	Modifying user name:	WinNT
#	Modification time:	15. 06. 2019 19:08

#	Program:	/corina/corina34_cracker 3.40 0067  02.08.2006

@<TRIPOS>MOLECULE
ASD01200212
  51   52    0    0    0
SMALL
NO_CHARGES


@<TRIPOS>ATOM
   1 C1             0.4630     1.0862     0.0065 C.ar    
   2 C2             0.3004    -0.2872     0.0049 C.ar    
   3 C3            -0.9698    -0.8329     0.0071 C.ar    
   4 C4            -2.0778    -0.0066     0.0107 C.ar    
   5 C5            -1.9171     1.3665     0.0118 C.ar    
   6 C6            -0.6471     1.9141     0.0160 C.ar    
   7 C7            -1.1465    -2.3295     0.0049 C.3     
   8 C8            -1.9195    -2.7536     1.2553 C.3     
   9 C9            -1.9138    -2.7430    -1.2245 C.2     
  10 N10           -2.0913    -4.0502    -1.5001 N.am    
  11 O11           -2.3716    -1.8996    -1.9654 O.2     
  12 Cl12          -0.4447     3.6383     0.0179 Cl      
  13 Cl13           2.0578     1.7720     0.0037 Cl      
  14 C14           -1.0777    -2.4610     2.4989 C.3     
  15 C15           -2.6918    -4.4214    -2.6482 C.2     
  16 N16           -2.8693    -5.7287    -2.9239 N.am    
  17 O17           -3.0734    -3.5772    -3.4349 O.2     
  18 C18           -1.8948    -2.7545     3.7694 C.3     
  19 C19           -1.1358    -3.8569     4.5366 C.3     
  20 C20            0.3259    -3.7270     4.0411 C.3     
  21 C21            0.1492    -3.3953     2.5384 C.3     
  22 C22           -3.5221    -6.1321    -4.1718 C.3     
  23 C23           -4.1956    -9.6865    -5.2927 C.3     
  24 C24           -4.8680   -10.1842    -6.5738 C.3     
  25 C25           -3.5964    -7.6358    -4.2365 C.2     
  26 O26           -3.1499    -8.3022    -3.3329 O.2     
  27 O27           -4.1586    -8.2350    -5.2980 O.3     
  28 H28            1.1658    -0.9334     0.0017 H       
  29 H29           -3.0697    -0.4339     0.0124 H       
  30 H30           -2.7833     2.0116     0.0140 H       
  31 H31           -0.1685    -2.8108     0.0016 H       
  32 H32           -2.8549    -2.1968     1.3104 H       
  33 H33           -2.1344    -3.8210     1.2049 H       
  34 H34           -1.7868    -4.7240    -0.8723 H       
  35 H35           -0.7551    -1.4199     2.4946 H       
  36 H36           -2.5648    -6.4024    -2.2960 H       
  37 H37           -1.9680    -1.8560     4.3821 H       
  38 H38           -2.8910    -3.1053     3.4999 H       
  39 H39           -1.1915    -3.6813     5.6109 H       
  40 H40           -1.5369    -4.8395     4.2884 H       
  41 H41            0.8384    -2.9157     4.5580 H       
  42 H42            0.8620    -4.6674     4.1687 H       
  43 H43           -0.0443    -4.3035     1.9675 H       
  44 H44            1.0314    -2.8830     2.1545 H       
  45 H45           -4.5293    -5.7167    -4.2057 H       
  46 H46           -2.9468    -5.7599    -5.0195 H       
  47 H47           -4.7611   -10.0324    -4.4275 H       
  48 H48           -3.1787   -10.0756    -5.2413 H       
  49 H49           -5.8848    -9.7951    -6.6251 H       
  50 H50           -4.3024    -9.8382    -7.4390 H       
  51 H51           -4.8957   -11.2738    -6.5698 H       
@<TRIPOS>BOND
   1    1    2 ar
   2    1   13 1
   3    1    6 ar
   4    2    3 ar
   5    2   28 1
   6    3    4 ar
   7    3    7 1
   8    4    5 ar
   9    4   29 1
  10    5    6 ar
  11    5   30 1
  12    6   12 1
  13    7    8 1
  14    7    9 1
  15    7   31 1
  16    8   14 1
  17    8   32 1
  18    8   33 1
  19    9   10 am
  20    9   11 2
  21   10   15 am
  22   10   34 1
  23   14   18 1
  24   14   21 1
  25   14   35 1
  26   15   16 am
  27   15   17 2
  28   16   22 1
  29   16   36 1
  30   18   19 1
  31   18   37 1
  32   18   38 1
  33   19   20 1
  34   19   39 1
  35   19   40 1
  36   20   21 1
  37   20   41 1
  38   20   42 1
  39   21   43 1
  40   21   44 1
  41   22   25 1
  42   22   45 1
  43   22   46 1
  44   23   24 1
  45   23   27 1
  46   23   47 1
  47   23   48 1
  48   24   49 1
  49   24   50 1
  50   24   51 1
  51   25   26 2
  52   25   27 1

#	End of record

