#	Name: ASD01150072
#	Creating user name:	WinNT
#	Creation time:	15. 06. 2019 19:03

#	Modifying user name:	WinNT
#	Modification time:	15. 06. 2019 19:03

#	Program:	/corina/corina34_cracker 3.40 0067  02.08.2006

@<TRIPOS>MOLECULE
ASD01150072
  47   48    0    0    0
SMALL
NO_CHARGES


@<TRIPOS>ATOM
   1 C1            -0.0168     1.3845     0.0097 C.2     
   2 C2             0.0021    -0.0041     0.0020 C.2     
   3 N3            -1.2696    -0.4207     0.0124 N.2     
   4 C4            -2.0752     0.6089     0.0259 C.2     
   5 N5            -1.3581     1.7463     0.0305 N.pl3   
   6 C6            -1.8911     3.1108     0.0454 C.3     
   7 C7            -3.5802     0.5323     0.0397 C.3     
   8 C8            -4.0759     0.4988     1.4868 C.3     
   9 C9             1.0996     2.2517     0.0037 C.2     
  10 O10            0.9155     3.5890     0.0131 O.3     
  11 N11            1.1306    -0.8103    -0.0139 N.pl3   
  12 O12            2.2269     1.7926    -0.0100 O.2     
  13 C13            0.9891    -2.2684    -0.0203 C.3     
  14 C14            2.3547    -2.9056    -0.0378 C.ar    
  15 C15            2.0883     4.4054     0.0062 C.3     
  16 C16            3.0833    -3.0158     1.1379 C.ar    
  17 C17            4.3395    -3.6025     1.1213 C.ar    
  18 C18            4.8643    -4.0776    -0.0705 C.ar    
  19 C19            4.1316    -3.9649    -1.2439 C.ar    
  20 C20            2.8779    -3.3847    -1.2237 C.ar    
  21 O21            2.5663    -2.5488     2.3047 O.3     
  22 C22            3.3717    -2.6956     3.4760 C.3     
  23 O23            6.0954    -4.6527    -0.0901 O.3     
  24 C24            6.5732    -5.1198    -1.3532 C.3     
  25 H25           -2.0163     3.4407     1.0767 H       
  26 H26           -1.1978     3.7773    -0.4676 H       
  27 H27           -2.8557     3.1297    -0.4618 H       
  28 H28           -3.9930     1.4055    -0.4656 H       
  29 H29           -3.9027    -0.3722    -0.4759 H       
  30 H30           -3.7534     1.4033     2.0024 H       
  31 H31           -5.1645     0.4434     1.4967 H       
  32 H32           -3.6631    -0.3743     1.9921 H       
  33 H33            2.0135    -0.4086    -0.0209 H       
  34 H34            0.4518    -2.5852     0.8736 H       
  35 H35            0.4335    -2.5757    -0.9062 H       
  36 H36            1.7994     5.4564     0.0151 H       
  37 H37            2.6887     4.1862     0.8891 H       
  38 H38            2.6713     4.1963    -0.8907 H       
  39 H39            4.9083    -3.6890     2.0353 H       
  40 H40            4.5400    -4.3349    -2.1727 H       
  41 H41            2.3091    -3.2983    -2.1377 H       
  42 H42            4.3129    -2.1632     3.3388 H       
  43 H43            2.8425    -2.2827     4.3348 H       
  44 H44            3.5739    -3.7528     3.6477 H       
  45 H45            5.8909    -5.8751    -1.7431 H       
  46 H46            6.6288    -4.2850    -2.0519 H       
  47 H47            7.5645    -5.5555    -1.2282 H       
@<TRIPOS>BOND
   1    1    2 2
   2    1    9 1
   3    1    5 1
   4    2    3 1
   5    2   11 1
   6    3    4 2
   7    4    5 1
   8    4    7 1
   9    5    6 1
  10    6   25 1
  11    6   26 1
  12    6   27 1
  13    7    8 1
  14    7   28 1
  15    7   29 1
  16    8   30 1
  17    8   31 1
  18    8   32 1
  19    9   10 1
  20    9   12 2
  21   10   15 1
  22   11   13 1
  23   11   33 1
  24   13   14 1
  25   13   34 1
  26   13   35 1
  27   14   16 ar
  28   14   20 ar
  29   15   36 1
  30   15   37 1
  31   15   38 1
  32   16   17 ar
  33   16   21 1
  34   17   18 ar
  35   17   39 1
  36   18   19 ar
  37   18   23 1
  38   19   20 ar
  39   19   40 1
  40   20   41 1
  41   21   22 1
  42   22   42 1
  43   22   43 1
  44   22   44 1
  45   23   24 1
  46   24   45 1
  47   24   46 1
  48   24   47 1

#	End of record

