#	Name: ASD06020009
#	Creating user name:	WinNT
#	Creation time:	15. 06. 2019 21:04

#	Modifying user name:	WinNT
#	Modification time:	15. 06. 2019 21:04

#	Program:	/corina/corina34_cracker 3.40 0067  02.08.2006

@<TRIPOS>MOLECULE
ASD06020009
  32   35    0    0    0
SMALL
NO_CHARGES


@<TRIPOS>ATOM
   1 C1            -0.0157     1.3069     0.0351 C.ar    
   2 N2             0.0014    -0.0027     0.0221 N.ar    
   3 C3             1.1672    -0.6874    -0.0059 C.ar    
   4 C4             2.3518     0.0573    -0.0202 C.ar    
   5 C5             2.2809     1.4554    -0.0051 C.ar    
   6 N6             1.0855     2.0353     0.0222 N.ar    
   7 S7             3.7113    -1.0587    -0.0553 S.3     
   8 C8             2.6011    -2.4234    -0.0482 C.2     
   9 N9             1.3769    -2.0025    -0.0221 N.2     
  10 N10            3.4379     2.2217    -0.0186 N.pl3   
  11 C11            2.0952     5.5090    -0.3913 C.ar    
  12 N12            2.1787     4.1972    -0.2999 N.ar    
  13 C13            3.3538     3.6033    -0.1148 C.ar    
  14 C14            4.5018     4.3922    -0.0184 C.ar    
  15 C15            4.3657     5.7628    -0.1201 C.ar    
  16 N16            3.1595     6.2810    -0.3044 N.ar    
  17 C17            3.0070    -3.8443    -0.0696 C.ar    
  18 C18            2.0387    -4.8509    -0.0616 C.ar    
  19 C19            2.4254    -6.1765    -0.0818 C.ar    
  20 C20            3.7680    -6.5084    -0.1094 C.ar    
  21 C21            4.7326    -5.5169    -0.1175 C.ar    
  22 C22            4.3607    -4.1870    -0.1039 C.ar    
  23 Cl23           5.5727    -2.9443    -0.1214 Cl      
  24 Cl24           0.3532    -4.4366    -0.0258 Cl      
  25 H25           -0.9702     1.8119     0.0528 H       
  26 H26            4.3053     1.7915     0.0392 H       
  27 H27            1.1280     5.9639    -0.5462 H       
  28 H28            5.4718     3.9419     0.1323 H       
  29 H29            5.2314     6.4047    -0.0499 H       
  30 H30            1.6778    -6.9559    -0.0756 H       
  31 H31            4.0646    -7.5468    -0.1244 H       
  32 H32            5.7789    -5.7835    -0.1388 H       
@<TRIPOS>BOND
   1    1    2 ar
   2    1    6 ar
   3    1   25 1
   4    2    3 ar
   5    3    4 ar
   6    3    9 1
   7    4    5 ar
   8    4    7 1
   9    5    6 ar
  10    5   10 1
  11    7    8 1
  12    8    9 2
  13    8   17 1
  14   10   13 1
  15   10   26 1
  16   11   12 ar
  17   11   16 ar
  18   11   27 1
  19   12   13 ar
  20   13   14 ar
  21   14   15 ar
  22   14   28 1
  23   15   16 ar
  24   15   29 1
  25   17   18 ar
  26   17   22 ar
  27   18   19 ar
  28   18   24 1
  29   19   20 ar
  30   19   30 1
  31   20   21 ar
  32   20   31 1
  33   21   22 ar
  34   21   32 1
  35   22   23 1

#	End of record

