#	Name: ASD01880477
#	Creating user name:	WinNT
#	Creation time:	15. 06. 2019 19:40

#	Modifying user name:	WinNT
#	Modification time:	15. 06. 2019 19:40

#	Program:	/corina/corina34_cracker 3.40 0067  02.08.2006

@<TRIPOS>MOLECULE
ASD01880477
  42   44    0    0    0
SMALL
NO_CHARGES


@<TRIPOS>ATOM
   1 N1            -0.0158     1.3135     0.0093 N.ar    
   2 C2             0.0021    -0.0041     0.0020 C.ar    
   3 N3             1.1312    -0.6835    -0.0120 N.ar    
   4 C4             2.3010    -0.0614    -0.0198 C.ar    
   5 C5             2.3294     1.3206    -0.0131 C.ar    
   6 C6             1.1167     2.0074     0.0022 C.ar    
   7 C7             3.6391     2.0661    -0.0211 C.3     
   8 O8             4.7194     1.1309    -0.0355 O.3     
   9 C9             5.9766     1.6419    -0.0442 C.ar    
  10 C10            7.0744     0.7870    -0.0584 C.ar    
  11 C11            8.3456     1.3052    -0.0676 C.ar    
  12 C12            8.5455     2.6897    -0.0629 C.ar    
  13 C13            7.4395     3.5439    -0.0491 C.ar    
  14 C14            6.1664     3.0187    -0.0448 C.ar    
  15 C15            9.7169     0.6771    -0.0833 C.3     
  16 N16           10.6761     1.7875    -0.0868 N.am    
  17 C17            9.9961     2.9467    -0.0751 C.2     
  18 O18           10.5056     4.0506    -0.0749 O.2     
  19 O19            1.0934     3.3624     0.0092 O.3     
  20 C20           -0.1907     3.9891     0.0249 C.3     
  21 F21           -0.8879     3.5951     1.1720 F       
  22 F22           -0.0313     5.3789     0.0304 F       
  23 F23           -0.9102     3.6067    -1.1124 F       
  24 C24           14.1536     1.4756    -1.5619 C.3     
  25 C25           12.6300     1.6145    -1.5477 C.3     
  26 C26           12.1350     1.6544    -0.1005 C.3     
  27 H27           -0.9344    -0.5420     0.0081 H       
  28 H28            3.2210    -0.6271    -0.0309 H       
  29 H29            3.6927     2.6969    -0.9084 H       
  30 H30            3.7086     2.6879     0.8714 H       
  31 H31            6.9266    -0.2828    -0.0617 H       
  32 H32            7.5829     4.6144    -0.0450 H       
  33 H33            5.3121     3.6793    -0.0345 H       
  34 H34            9.8579     0.0630     0.8062 H       
  35 H35            9.8414     0.0715    -0.9809 H       
  36 H36           14.6008     2.3265    -1.0482 H       
  37 H37           14.4391     0.5540    -1.0547 H       
  38 H38           14.5062     1.4472    -2.5929 H       
  39 H39           12.3444     2.5361    -2.0548 H       
  40 H40           12.1827     0.7636    -2.0613 H       
  41 H41           12.5823     2.5054     0.4132 H       
  42 H42           12.4205     0.7328     0.4067 H       
@<TRIPOS>BOND
   1    1    2 ar
   2    1    6 ar
   3    2    3 ar
   4    2   27 1
   5    3    4 ar
   6    4    5 ar
   7    4   28 1
   8    5    6 ar
   9    5    7 1
  10    6   19 1
  11    7    8 1
  12    7   29 1
  13    7   30 1
  14    8    9 1
  15    9   10 ar
  16    9   14 ar
  17   10   11 ar
  18   10   31 1
  19   11   12 ar
  20   11   15 1
  21   12   13 ar
  22   12   17 1
  23   13   14 ar
  24   13   32 1
  25   14   33 1
  26   15   16 1
  27   15   34 1
  28   15   35 1
  29   16   17 am
  30   16   26 1
  31   17   18 2
  32   19   20 1
  33   20   21 1
  34   20   22 1
  35   20   23 1
  36   24   25 1
  37   24   36 1
  38   24   37 1
  39   24   38 1
  40   25   26 1
  41   25   39 1
  42   25   40 1
  43   26   41 1
  44   26   42 1

#	End of record

