#	Name: ASD00170477
#	Creating user name:	WinNT
#	Creation time:	15. 06. 2019 18:32

#	Modifying user name:	WinNT
#	Modification time:	15. 06. 2019 18:32

#	Program:	/corina/corina34_cracker 3.40 0067  02.08.2006

@<TRIPOS>MOLECULE
ASD00170477
  40   43    0    0    0
SMALL
NO_CHARGES


@<TRIPOS>ATOM
   1 C1            -0.0277     1.3894    -0.0165 C.ar    
   2 C2            -0.0015    -0.0103    -0.0082 C.ar    
   3 C3            -1.1924    -0.7253     0.0049 C.ar    
   4 C4            -2.3964    -0.0562     0.0098 C.ar    
   5 C5            -2.4346     1.3349     0.0017 C.ar    
   6 C6            -1.2456     2.0609    -0.0057 C.ar    
   7 C7            -3.8278    -0.5297     0.0238 C.3     
   8 C8            -4.6727     0.7256     0.0228 C.2     
   9 C9            -3.8582     1.7972     0.0100 C.2     
  10 S10           -6.3492     1.2712     0.0325 S.3     
  11 C11           -5.8063     2.9443     0.0182 C.2     
  12 N12           -4.5165     2.9774     0.0080 N.2     
  13 N13           -6.6351     4.0544     0.0171 N.pl3   
  14 N14            1.2210    -0.6872    -0.0137 N.am    
  15 C15            1.3479    -1.8545     0.6479 C.2     
  16 O16            0.4343    -2.2669     1.3308 O.2     
  17 C17            2.6249    -2.6473     0.5393 C.3     
  18 C18            1.2423     2.1556    -0.0306 C.ar    
  19 C19            2.2480     1.8583     0.8877 C.ar    
  20 C20            3.4295     2.5727     0.8737 C.ar    
  21 C21            3.6197     3.5835    -0.0489 C.ar    
  22 C22            2.6225     3.8867    -0.9688 C.ar    
  23 C23            1.4353     3.1701    -0.9650 C.ar    
  24 N24            2.8184     4.9094    -1.9000 N.pl3   
  25 H25           -1.1742    -1.8051     0.0109 H       
  26 H26           -1.2696     3.1406    -0.0119 H       
  27 H27           -4.0364    -1.1247    -0.8653 H       
  28 H28           -4.0225    -1.1140     0.9231 H       
  29 H29           -7.5984     3.9405     0.0247 H       
  30 H30           -6.2522     4.9456     0.0089 H       
  31 H31            1.9783    -0.3170    -0.4937 H       
  32 H32            3.3238    -2.1228    -0.1123 H       
  33 H33            3.0668    -2.7618     1.5291 H       
  34 H34            2.4077    -3.6307     0.1224 H       
  35 H35            2.1028     1.0691     1.6105 H       
  36 H36            4.2072     2.3409     1.5863 H       
  37 H37            4.5454     4.1398    -0.0552 H       
  38 H38            0.6594     3.4037    -1.6790 H       
  39 H39            3.6504     5.4081    -1.9049 H       
  40 H40            2.1225     5.1208    -2.5418 H       
@<TRIPOS>BOND
   1    1    2 ar
   2    1   18 1
   3    1    6 ar
   4    2    3 ar
   5    2   14 1
   6    3    4 ar
   7    3   25 1
   8    4    5 ar
   9    4    7 1
  10    5    6 ar
  11    5    9 1
  12    6   26 1
  13    7    8 1
  14    7   27 1
  15    7   28 1
  16    8    9 2
  17    8   10 1
  18    9   12 1
  19   10   11 1
  20   11   12 2
  21   11   13 1
  22   13   29 1
  23   13   30 1
  24   14   15 am
  25   14   31 1
  26   15   16 2
  27   15   17 1
  28   17   32 1
  29   17   33 1
  30   17   34 1
  31   18   19 ar
  32   18   23 ar
  33   19   20 ar
  34   19   35 1
  35   20   21 ar
  36   20   36 1
  37   21   22 ar
  38   21   37 1
  39   22   23 ar
  40   22   24 1
  41   23   38 1
  42   24   39 1
  43   24   40 1

#	End of record

