#	Name: ASD05720080
#	Creating user name:	WinNT
#	Creation time:	15. 06. 2019 21:01

#	Modifying user name:	WinNT
#	Modification time:	15. 06. 2019 21:01

#	Program:	/corina/corina34_cracker 3.40 0067  02.08.2006

@<TRIPOS>MOLECULE
ASD05720080
  67   72    0    0    0
SMALL
NO_CHARGES


@<TRIPOS>ATOM
   1 C1             0.5119     1.0237     1.1164 C.2     
   2 N2             0.4122    -0.2391     0.6808 N.am    
   3 C3             1.6581    -0.6134    -0.0048 C.3     
   4 C4             2.5297     0.6534     0.0955 C.3     
   5 N5             1.6824     1.6071     0.8271 N.am    
   6 O6            -0.3811     1.5906     1.7157 O.2     
   7 C7             2.0587     2.9775     1.1828 C.3     
   8 C8             2.7250     2.9806     2.5345 C.ar    
   9 C9             4.0957     2.8257     2.6287 C.ar    
  10 C10            4.7089     2.8282     3.8666 C.ar    
  11 C11            3.9481     2.9863     5.0159 C.ar    
  12 C12            2.5729     3.1416     4.9187 C.ar    
  13 C13            1.9652     3.1440     3.6781 C.ar    
  14 O14            4.5488     2.9887     6.2349 O.3     
  15 C15            3.7032     3.1562     7.3746 C.3     
  16 C16            1.3818    -0.9606    -1.4691 C.3     
  17 C17            0.5224    -2.2245    -1.5402 C.3     
  18 C18            0.6398     0.1989    -2.1369 C.3     
  19 C19           -1.6777    -3.1432     0.6616 C.2     
  20 N20           -0.6243    -2.3358     0.5052 N.2     
  21 C21           -0.6921    -1.0636     0.8498 C.2     
  22 C22           -1.8851    -0.5415     1.3899 C.2     
  23 C23           -2.9529    -1.3559     1.5495 C.2     
  24 N24           -2.8521    -2.6692     1.1832 N.pl3   
  25 N25           -3.7635    -3.7303     1.2264 N.2     
  26 C26           -3.1917    -4.8117     0.7572 C.2     
  27 C27           -1.8787    -4.5017     0.3809 C.2     
  28 C28           -0.8887    -5.4340    -0.2021 C.ar    
  29 C29           -0.6495    -6.6683     0.4061 C.ar    
  30 C30            0.2709    -7.5357    -0.1361 C.ar    
  31 C31            0.9660    -7.1817    -1.2952 C.ar    
  32 C32            0.7265    -5.9469    -1.9034 C.ar    
  33 C33           -0.1978    -5.0820    -1.3637 C.ar    
  34 C34            1.9546    -8.1127    -1.8773 C.2     
  35 N35            2.2691    -9.2981    -1.4023 N.2     
  36 C36            3.1993    -9.8554    -2.1866 C.2     
  37 C37            3.4819    -8.9974    -3.1875 C.2     
  38 N38            2.6937    -7.8922    -3.0033 N.pl3   
  39 H39            2.1382    -1.4495     0.5036 H       
  40 H40            3.4427     0.4464     0.6538 H       
  41 H41            2.7657     1.0352    -0.8978 H       
  42 H42            2.7493     3.3700     0.4365 H       
  43 H43            1.1662     3.6023     1.2162 H       
  44 H44            4.6875     2.7023     1.7337 H       
  45 H45            5.7795     2.7068     3.9397 H       
  46 H46            1.9785     3.2648     5.8120 H       
  47 H47            0.8953     3.2696     3.6016 H       
  48 H48            4.3080     3.1394     8.2813 H       
  49 H49            3.1820     4.1108     7.3031 H       
  50 H50            2.9747     2.3462     7.4087 H       
  51 H51            2.3258    -1.1336    -1.9858 H       
  52 H52           -0.4947    -1.9904    -1.2258 H       
  53 H53            0.5094    -2.5979    -2.5641 H       
  54 H54            0.9403    -2.9855    -0.8812 H       
  55 H55            1.2520     1.0993    -2.0863 H       
  56 H56            0.4430    -0.0485    -3.1801 H       
  57 H57           -0.3042     0.3718    -1.6202 H       
  58 H58           -1.9455     0.4988     1.6738 H       
  59 H59           -3.8748    -0.9732     1.9620 H       
  60 H60           -3.6577    -5.7821     0.6710 H       
  61 H61           -1.1866    -6.9418     1.3023 H       
  62 H62            0.4561    -8.4901     0.3344 H       
  63 H63            1.2640    -5.6728    -2.7991 H       
  64 H64           -0.3862    -4.1293    -1.8363 H       
  65 H65            3.6477   -10.8272    -2.0422 H       
  66 H66            4.1921    -9.1537    -3.9860 H       
  67 H67            2.6672    -7.1021    -3.5655 H       
@<TRIPOS>BOND
   1    1    2 am
   2    1    5 am
   3    1    6 2
   4    2    3 1
   5    2   21 1
   6    3    4 1
   7    3   16 1
   8    3   39 1
   9    4    5 1
  10    4   40 1
  11    4   41 1
  12    5    7 1
  13    7    8 1
  14    7   42 1
  15    7   43 1
  16    8    9 ar
  17    8   13 ar
  18    9   10 ar
  19    9   44 1
  20   10   11 ar
  21   10   45 1
  22   11   12 ar
  23   11   14 1
  24   12   13 ar
  25   12   46 1
  26   13   47 1
  27   14   15 1
  28   15   48 1
  29   15   49 1
  30   15   50 1
  31   16   17 1
  32   16   18 1
  33   16   51 1
  34   17   52 1
  35   17   53 1
  36   17   54 1
  37   18   55 1
  38   18   56 1
  39   18   57 1
  40   19   20 1
  41   19   24 1
  42   19   27 2
  43   20   21 2
  44   21   22 1
  45   22   23 2
  46   22   58 1
  47   23   24 1
  48   23   59 1
  49   24   25 1
  50   25   26 2
  51   26   27 1
  52   26   60 1
  53   27   28 1
  54   28   29 ar
  55   28   33 ar
  56   29   30 ar
  57   29   61 1
  58   30   31 ar
  59   30   62 1
  60   31   32 ar
  61   31   34 1
  62   32   33 ar
  63   32   63 1
  64   33   64 1
  65   34   35 2
  66   34   38 1
  67   35   36 1
  68   36   37 2
  69   36   65 1
  70   37   38 1
  71   37   66 1
  72   38   67 1

#	End of record

