#	Name: ASD03331467
#	Creating user name:	WinNT
#	Creation time:	15. 06. 2019 20:39

#	Modifying user name:	WinNT
#	Modification time:	15. 06. 2019 20:39

#	Program:	/corina/corina34_cracker 3.40 0067  02.08.2006

@<TRIPOS>MOLECULE
ASD03331467
  60   62    0    0    0
SMALL
NO_CHARGES


@<TRIPOS>ATOM
   1 C1            -0.0958     1.1696     0.6116 C.ar    
   2 C2            -0.0813    -0.2983     0.4324 C.2     
   3 N3            -1.1657    -1.1152     0.4874 N.pl3   
   4 C4            -0.7294    -2.3907     0.2739 C.2     
   5 C5             0.6124    -2.3294     0.0890 C.2     
   6 N6             0.9820    -1.0314     0.1874 N.2     
   7 C7             1.5065    -3.4703    -0.1758 C.2     
   8 N8             2.8285    -3.2663    -0.3408 N.am    
   9 C9             0.5876     1.9929    -0.2871 C.ar    
  10 O10            1.0515    -4.5961    -0.2455 O.2     
  11 C11            3.7174    -4.4006    -0.6041 C.3     
  12 C12            3.7261    -4.7044    -2.1036 C.3     
  13 C13            5.1142    -4.0596    -0.1525 C.2     
  14 C14            4.1120    -3.4422    -2.8774 C.3     
  15 C15           -2.5706    -0.7711     0.7232 C.3     
  16 C16           -3.4349    -1.9590     0.2810 C.3     
  17 N17           -2.9195    -3.1995     0.8769 N.3     
  18 C18           -1.6377    -3.5930     0.2643 C.3     
  19 O19            5.4826    -2.9041    -0.1409 O.2     
  20 N20            5.9539    -5.0386     0.2385 N.am    
  21 C21            7.2714    -4.6998     0.7820 C.3     
  22 C22            4.7419    -5.8111    -2.3938 C.3     
  23 C23            2.3332    -5.1637    -2.5390 C.3     
  24 C24            0.5692     3.3641    -0.1135 C.ar    
  25 C25           -0.1237     3.9201     0.9476 C.ar    
  26 C26           -0.8027     3.1077     1.8409 C.ar    
  27 C27           -0.7968     1.7386     1.6755 C.ar    
  28 Cl28          -0.1417     5.6429     1.1603 Cl      
  29 F29            1.2649     1.4502    -1.3225 F       
  30 C30           -3.9066    -4.2826     0.7740 C.3     
  31 C31           -4.8778    -1.7362     0.7385 C.3     
  32 H32            3.1913    -2.3684    -0.2852 H       
  33 H33            3.3624    -5.2748    -0.0583 H       
  34 H34            5.1044    -3.1150    -2.5672 H       
  35 H35            4.1182    -3.6586    -3.9457 H       
  36 H36            3.3884    -2.6537    -2.6706 H       
  37 H37           -2.7285    -0.5760     1.7839 H       
  38 H38           -2.8352     0.1127     0.1427 H       
  39 H39           -3.4091    -2.0411    -0.8056 H       
  40 H40           -1.8048    -3.9202    -0.7619 H       
  41 H41           -1.1864    -4.4007     0.8405 H       
  42 H42            5.6859    -5.9675     0.1599 H       
  43 H43            7.8413    -4.1467     0.0354 H       
  44 H44            7.1494    -4.0857     1.6743 H       
  45 H45            7.8039    -5.6150     1.0409 H       
  46 H46            4.4366    -6.7265    -1.8871 H       
  47 H47            4.7886    -5.9888    -3.4682 H       
  48 H48            5.7243    -5.5064    -2.0330 H       
  49 H49            1.6095    -4.3752    -2.3322 H       
  50 H50            2.3394    -5.3801    -3.6073 H       
  51 H51            2.0583    -6.0629    -1.9877 H       
  52 H52            1.0967     4.0025    -0.8067 H       
  53 H53           -1.3412     3.5481     2.6670 H       
  54 H54           -1.3272     1.1073     2.3731 H       
  55 H55           -4.1349    -4.4677    -0.2756 H       
  56 H56           -3.4996    -5.1889     1.2226 H       
  57 H57           -4.8176    -3.9950     1.2988 H       
  58 H58           -5.2631    -0.8196     0.2919 H       
  59 H59           -5.4927    -2.5797     0.4247 H       
  60 H60           -4.9054    -1.6506     1.8248 H       
@<TRIPOS>BOND
   1    1    2 1
   2    1    9 ar
   3    1   27 ar
   4    2    3 1
   5    2    6 2
   6    3    4 1
   7    3   15 1
   8    4    5 2
   9    4   18 1
  10    5    6 1
  11    5    7 1
  12    7    8 am
  13    7   10 2
  14    8   11 1
  15    8   32 1
  16    9   24 ar
  17    9   29 1
  18   11   12 1
  19   11   13 1
  20   11   33 1
  21   12   14 1
  22   12   22 1
  23   12   23 1
  24   13   19 2
  25   13   20 am
  26   14   34 1
  27   14   35 1
  28   14   36 1
  29   15   16 1
  30   15   37 1
  31   15   38 1
  32   16   17 1
  33   16   31 1
  34   16   39 1
  35   17   18 1
  36   17   30 1
  37   18   40 1
  38   18   41 1
  39   20   21 1
  40   20   42 1
  41   21   43 1
  42   21   44 1
  43   21   45 1
  44   22   46 1
  45   22   47 1
  46   22   48 1
  47   23   49 1
  48   23   50 1
  49   23   51 1
  50   24   25 ar
  51   24   52 1
  52   25   26 ar
  53   25   28 1
  54   26   27 ar
  55   26   53 1
  56   27   54 1
  57   30   55 1
  58   30   56 1
  59   30   57 1
  60   31   58 1
  61   31   59 1
  62   31   60 1

#	End of record

