#	Name: ASD02408006
#	Creating user name:	WinNT
#	Creation time:	15. 06. 2019 20:20

#	Modifying user name:	WinNT
#	Modification time:	15. 06. 2019 20:20

#	Program:	/corina/corina34_cracker 3.40 0067  02.08.2006

@<TRIPOS>MOLECULE
ASD02408006
  34   35    0    0    0
SMALL
NO_CHARGES


@<TRIPOS>ATOM
   1 C1            -0.0957     1.1294     0.3219 C.3     
   2 C2             3.5470    -2.3189    -1.1367 C.ar    
   3 C3             3.3579    -3.0858     0.0177 C.ar    
   4 C4             2.7793    -2.6155    -2.3712 C.ar    
   5 C5             1.3859    -2.6163    -2.3452 C.ar    
   6 C6             0.6547    -2.3151    -1.0623 C.3     
   7 O7            -0.0845    -0.3159     0.1836 O.3     
   8 C8             0.5984    -0.8236    -0.8544 C.2     
   9 O9             1.1681    -0.0847    -1.6222 O.2     
  10 C10            4.0953    -2.7713     1.1433 C.ar    
  11 C11            4.9935    -1.7120     1.0922 C.ar    
  12 N12            5.1486    -1.0056    -0.0157 N.ar    
  13 C13            4.4615    -1.2696    -1.1089 C.ar    
  14 C14            3.4488    -2.8887    -3.5622 C.ar    
  15 C15            2.7296    -3.1641    -4.7078 C.ar    
  16 C16            1.3470    -3.1691    -4.6748 C.ar    
  17 C17            0.6770    -2.8929    -3.4963 C.ar    
  18 O18            5.7207    -1.3977     2.1934 O.3     
  19 C19            6.6274    -0.2991     2.0803 C.3     
  20 H20            0.9260     1.4911     0.4384 H       
  21 H21           -0.5400     1.5761    -0.5676 H       
  22 H22           -0.6813     1.4061     1.1986 H       
  23 H23            2.6525    -3.9035     0.0292 H       
  24 H24           -0.3587    -2.7124    -1.1198 H       
  25 H25            1.1799    -2.7788    -0.2273 H       
  26 H26            3.9748    -3.3419     2.0523 H       
  27 H27            4.6153    -0.6709    -1.9945 H       
  28 H28            4.5285    -2.8847    -3.5891 H       
  29 H29            3.2475    -3.3756    -5.6316 H       
  30 H30            0.7882    -3.3847    -5.5735 H       
  31 H31           -0.4028    -2.8986    -3.4761 H       
  32 H32            7.3566    -0.5089     1.2978 H       
  33 H33            6.0732     0.6049     1.8275 H       
  34 H34            7.1440    -0.1551     3.0292 H       
@<TRIPOS>BOND
   1    1    7 1
   2    1   20 1
   3    1   21 1
   4    1   22 1
   5    2    3 ar
   6    2    4 1
   7    2   13 ar
   8    3   10 ar
   9    3   23 1
  10    4    5 ar
  11    4   14 ar
  12    5    6 1
  13    5   17 ar
  14    6    8 1
  15    6   24 1
  16    6   25 1
  17    7    8 1
  18    8    9 2
  19   10   11 ar
  20   10   26 1
  21   11   12 ar
  22   11   18 1
  23   12   13 ar
  24   13   27 1
  25   14   15 ar
  26   14   28 1
  27   15   16 ar
  28   15   29 1
  29   16   17 ar
  30   16   30 1
  31   17   31 1
  32   18   19 1
  33   19   32 1
  34   19   33 1
  35   19   34 1

#	End of record

