#	Name: ASD04122035
#	Creating user name:	WinNT
#	Creation time:	15. 06. 2019 20:48

#	Modifying user name:	WinNT
#	Modification time:	15. 06. 2019 20:48

#	Program:	/corina/corina34_cracker 3.40 0067  02.08.2006

@<TRIPOS>MOLECULE
ASD04122035
  62   66    0    0    0
SMALL
NO_CHARGES


@<TRIPOS>ATOM
   1 C1            -1.7224    -0.4386    -1.0737 C.ar    
   2 C2            -2.8081    -0.9318    -1.8043 C.ar    
   3 N3            -4.0539    -0.2871    -1.8246 N.pl3   
   4 C4            -4.3473     1.0503    -1.7377 C.2     
   5 C5            -3.4908     2.1409    -1.4552 C.2     
   6 C6            -2.0642     1.9264    -1.1023 C.3     
   7 O7            -1.8488     0.7213    -0.4112 O.3     
   8 C8            -5.2262    -0.9704    -1.9848 C.2     
   9 C9            -6.2473    -0.0867    -2.0749 C.2     
  10 C10           -5.7181     1.1938    -1.9306 C.2     
  11 C11           -0.5240    -1.1339    -1.0625 C.ar    
  12 C12           -0.3906    -2.3057    -1.7818 C.ar    
  13 C13           -1.4570    -2.7891    -2.5178 C.ar    
  14 C14           -2.6571    -2.1085    -2.5299 C.ar    
  15 C15           -1.2464     1.9136    -2.3680 C.ar    
  16 C16            0.0688     1.4892    -2.3369 C.ar    
  17 C17            0.8190     1.4774    -3.4979 C.ar    
  18 C18            0.2539     1.8898    -4.6902 C.ar    
  19 C19           -1.0616     2.3134    -4.7215 C.ar    
  20 C20           -1.8131     2.3210    -3.5612 C.ar    
  21 O21           -3.9300     3.2722    -1.5025 O.2     
  22 C22           -1.5956     3.0889    -0.2248 C.3     
  23 C23           -2.3892     3.0926     1.0833 C.3     
  24 C24            1.0720     1.8779    -5.9557 C.3     
  25 S25            0.8922     0.2705    -6.7769 S.3     
  26 C26            1.9017     0.4428    -8.2108 C.ar    
  27 C27            2.0195    -0.6129    -9.1126 C.ar    
  28 C28            2.8130    -0.4746   -10.2387 C.ar    
  29 C29            3.4885     0.7098   -10.4693 C.ar    
  30 C30            3.3736     1.7628    -9.5737 C.ar    
  31 C31            2.5764     1.6322    -8.4471 C.ar    
  32 O32            4.0393     2.9260    -9.8036 O.3     
  33 C33            4.8382     2.9933   -10.9865 C.3     
  34 O34            1.3555    -1.7791    -8.8865 O.3     
  35 C35            1.5223    -2.8185    -9.8528 C.3     
  36 H36           -5.3226    -2.0450    -2.0323 H       
  37 H37           -7.2877    -0.3309    -2.2307 H       
  38 H38           -6.2680     2.1228    -1.9619 H       
  39 H39            0.3102    -0.7576    -0.4889 H       
  40 H40            0.5458    -2.8436    -1.7696 H       
  41 H41           -1.3500    -3.7019    -3.0850 H       
  42 H42           -3.4852    -2.4924    -3.1071 H       
  43 H43            0.5104     1.1670    -1.4054 H       
  44 H44            1.8468     1.1465    -3.4734 H       
  45 H45           -1.5031     2.6358    -5.6529 H       
  46 H46           -2.8409     2.6519    -3.5857 H       
  47 H47           -0.5341     2.9737    -0.0055 H       
  48 H48           -1.7579     4.0297    -0.7509 H       
  49 H49           -2.0553     3.9208     1.7084 H       
  50 H50           -3.4506     3.2079     0.8640 H       
  51 H51           -2.2269     2.1519     1.6094 H       
  52 H52            0.7228     2.6671    -6.6215 H       
  53 H53            2.1210     2.0460    -5.7118 H       
  54 H54            2.9047    -1.2928   -10.9377 H       
  55 H55            4.1072     0.8151   -11.3483 H       
  56 H56            2.4871     2.4522    -7.7499 H       
  57 H57            5.3133     3.9724   -11.0489 H       
  58 H58            5.6047     2.2191   -10.9518 H       
  59 H59            4.2061     2.8398   -11.8611 H       
  60 H60            0.9408    -3.6903    -9.5528 H       
  61 H61            1.1772    -2.4689   -10.8258 H       
  62 H62            2.5762    -3.0893    -9.9169 H       
@<TRIPOS>BOND
   1    1    2 ar
   2    1   11 ar
   3    1    7 1
   4    2    3 1
   5    2   14 ar
   6    3    8 1
   7    3    4 1
   8    4    5 1
   9    4   10 2
  10    5   21 2
  11    5    6 1
  12    6    7 1
  13    6   15 1
  14    6   22 1
  15    8    9 2
  16    8   36 1
  17    9   10 1
  18    9   37 1
  19   10   38 1
  20   11   12 ar
  21   11   39 1
  22   12   13 ar
  23   12   40 1
  24   13   14 ar
  25   13   41 1
  26   14   42 1
  27   15   16 ar
  28   15   20 ar
  29   16   17 ar
  30   16   43 1
  31   17   18 ar
  32   17   44 1
  33   18   19 ar
  34   18   24 1
  35   19   20 ar
  36   19   45 1
  37   20   46 1
  38   22   23 1
  39   22   47 1
  40   22   48 1
  41   23   49 1
  42   23   50 1
  43   23   51 1
  44   24   25 1
  45   24   52 1
  46   24   53 1
  47   25   26 1
  48   26   27 ar
  49   26   31 ar
  50   27   28 ar
  51   27   34 1
  52   28   29 ar
  53   28   54 1
  54   29   30 ar
  55   29   55 1
  56   30   31 ar
  57   30   32 1
  58   31   56 1
  59   32   33 1
  60   33   57 1
  61   33   58 1
  62   33   59 1
  63   34   35 1
  64   35   60 1
  65   35   61 1
  66   35   62 1

#	End of record

