#	Name: ASD00190054
#	Creating user name:	WinNT
#	Creation time:	15. 06. 2019 18:33

#	Modifying user name:	WinNT
#	Modification time:	15. 06. 2019 18:33

#	Program:	/corina/corina34_cracker 3.40 0067  02.08.2006

@<TRIPOS>MOLECULE
ASD00190054
  48   52    0    0    0
SMALL
NO_CHARGES


@<TRIPOS>ATOM
   1 C1            -0.0154     1.3889     0.0330 C.ar    
   2 C2             0.0026    -0.0011     0.0115 C.ar    
   3 C3             1.1801    -0.6877    -0.0102 C.ar    
   4 C4             2.3964     0.0123    -0.0114 C.ar    
   5 C5             2.3718     1.4268     0.0101 C.ar    
   6 C6             1.1497     2.1010     0.0324 C.ar    
   7 N7             3.5674    -0.6415    -0.0320 N.ar    
   8 C8             4.7273    -0.0214    -0.0334 C.ar    
   9 C9             4.8189     1.3795    -0.0133 C.ar    
  10 C10            3.6478     2.1440     0.0085 C.ar    
  11 N11            5.8587     2.2832    -0.0089 N.pl3   
  12 C12            5.3154     3.5207     0.0149 C.2     
  13 N13            4.0133     3.4342     0.0250 N.2     
  14 N14            5.8931    -0.7727    -0.0550 N.pl3   
  15 C15            5.8290    -2.1652     0.0446 C.ar    
  16 C16            6.7404    -2.9548    -0.6443 C.ar    
  17 C17            6.6743    -4.3319    -0.5431 C.ar    
  18 C18            5.7012    -4.9230     0.2435 C.ar    
  19 C19            4.7925    -4.1387     0.9303 C.ar    
  20 C20            4.8567    -2.7624     0.8375 C.ar    
  21 C21            6.0973     4.8089     0.0279 C.3     
  22 C22            6.4820     5.1575     1.4671 C.3     
  23 C23            7.2758     6.4654     1.4803 C.3     
  24 C24            8.5433     6.3013     0.6392 C.3     
  25 C25            8.1586     5.9526    -0.8001 C.3     
  26 C26            7.3648     4.6447    -0.8133 C.3     
  27 Cl27           7.8124    -5.3204    -1.4039 Cl      
  28 H28           -0.9608     1.9110     0.0457 H       
  29 H29           -0.9304    -0.5451     0.0123 H       
  30 H30            1.1769    -1.7676    -0.0260 H       
  31 H31            1.1258     3.1806     0.0492 H       
  32 H32            6.8051     2.0709    -0.0205 H       
  33 H33            6.7529    -0.3316    -0.1392 H       
  34 H34            7.4996    -2.4936    -1.2585 H       
  35 H35            5.6510    -5.9990     0.3209 H       
  36 H36            4.0343    -4.6030     1.5434 H       
  37 H37            4.1468    -2.1509     1.3746 H       
  38 H38            5.4859     5.6093    -0.3888 H       
  39 H39            5.5790     5.2745     2.0663 H       
  40 H40            7.0935     4.3572     1.8838 H       
  41 H41            6.6643     7.2658     1.0636 H       
  42 H42            7.5498     6.7138     2.5056 H       
  43 H43            9.1088     7.2330     0.6486 H       
  44 H44            9.1547     5.5009     1.0558 H       
  45 H45            7.5471     6.7530    -1.2168 H       
  46 H46            9.0615     5.8357    -1.3993 H       
  47 H47            7.9762     3.8444    -0.3966 H       
  48 H48            7.0907     4.3964    -1.8386 H       
@<TRIPOS>BOND
   1    1    2 ar
   2    1    6 ar
   3    1   28 1
   4    2    3 ar
   5    2   29 1
   6    3    4 ar
   7    3   30 1
   8    4    5 ar
   9    4    7 ar
  10    5    6 ar
  11    5   10 ar
  12    6   31 1
  13    7    8 ar
  14    8    9 ar
  15    8   14 1
  16    9   10 ar
  17    9   11 1
  18   10   13 1
  19   11   12 1
  20   11   32 1
  21   12   13 2
  22   12   21 1
  23   14   15 1
  24   14   33 1
  25   15   16 ar
  26   15   20 ar
  27   16   17 ar
  28   16   34 1
  29   17   18 ar
  30   17   27 1
  31   18   19 ar
  32   18   35 1
  33   19   20 ar
  34   19   36 1
  35   20   37 1
  36   21   22 1
  37   21   26 1
  38   21   38 1
  39   22   23 1
  40   22   39 1
  41   22   40 1
  42   23   24 1
  43   23   41 1
  44   23   42 1
  45   24   25 1
  46   24   43 1
  47   24   44 1
  48   25   26 1
  49   25   45 1
  50   25   46 1
  51   26   47 1
  52   26   48 1

#	End of record

