#	Name: ASD02030669
#	Creating user name:	WinNT
#	Creation time:	15. 06. 2019 20:15

#	Modifying user name:	WinNT
#	Modification time:	15. 06. 2019 20:15

#	Program:	/corina/corina34_cracker 3.40 0067  02.08.2006

@<TRIPOS>MOLECULE
ASD02030669
  47   49    0    0    0
SMALL
NO_CHARGES


@<TRIPOS>ATOM
   1 N1            -0.0322     1.3617     0.0717 N.am    
   2 C2             0.0840     0.0190     0.0583 C.2     
   3 C3            -1.1214    -0.8272     0.1557 C.ar    
   4 O4             1.1820    -0.4953    -0.0339 O.2     
   5 C5            -1.0031    -2.2194     0.1420 C.ar    
   6 C6            -2.1303    -3.0053     0.2336 C.ar    
   7 C7            -3.3842    -2.4156     0.3394 C.ar    
   8 C8            -3.5063    -1.0314     0.3534 C.ar    
   9 C9            -2.3836    -0.2383     0.2676 C.ar    
  10 O10           -4.4931    -3.1940     0.4290 O.3     
  11 C11           -4.6198    -3.9530     1.5347 C.2     
  12 N12           -5.6422    -4.8247     1.6401 N.am    
  13 O13           -3.8122    -3.8518     2.4369 O.2     
  14 C14           -5.7800    -5.6502     2.8425 C.3     
  15 C15           -6.6159    -4.9468     0.5523 C.3     
  16 C16            1.1127     2.1622     0.0598 C.ar    
  17 C17            2.2928     1.6825    -0.4803 C.ar    
  18 C18            3.4300     2.4762    -0.4927 C.ar    
  19 C19            3.4051     3.7509     0.0300 C.ar    
  20 C20            2.2302     4.2567     0.5786 C.ar    
  21 C21            1.0728     3.4592     0.5898 C.ar    
  22 C22           -6.6388    -4.9127     3.8718 C.3     
  23 C23           -6.1440    -6.0142    -0.4371 C.3     
  24 N24            1.9000     5.4597     1.1616 N.pl3   
  25 C25            0.5847     5.4469     1.5418 C.2     
  26 C26            0.0289     4.2671     1.2237 C.2     
  27 H27           -0.9110     1.7723     0.0854 H       
  28 H28           -0.0290    -2.6785     0.0595 H       
  29 H29           -2.0397    -4.0815     0.2228 H       
  30 H30           -4.4826    -0.5770     0.4354 H       
  31 H31           -2.4793     0.8374     0.2785 H       
  32 H32           -6.2567    -6.5952     2.5819 H       
  33 H33           -4.7941    -5.8449     3.2645 H       
  34 H34           -7.5843    -5.2339     0.9620 H       
  35 H35           -6.7080    -3.9901     0.0381 H       
  36 H36            2.3285     0.6855    -0.8939 H       
  37 H37            4.3456     2.0907    -0.9163 H       
  38 H38            4.2991     4.3567     0.0175 H       
  39 H39           -7.6247    -4.7180     3.4498 H       
  40 H40           -6.7413    -5.5268     4.7665 H       
  41 H41           -6.1621    -3.9677     4.1325 H       
  42 H42           -6.8684    -6.1050    -1.2465 H       
  43 H43           -5.1756    -5.7272    -0.8468 H       
  44 H44           -6.0519    -6.9709     0.0771 H       
  45 H45            2.5085     6.2049     1.2849 H       
  46 H46            0.0703     6.2652     2.0236 H       
  47 H47           -0.9941     3.9701     1.4016 H       
@<TRIPOS>BOND
   1    1    2 am
   2    1   16 1
   3    1   27 1
   4    2    3 1
   5    2    4 2
   6    3    5 ar
   7    3    9 ar
   8    5    6 ar
   9    5   28 1
  10    6    7 ar
  11    6   29 1
  12    7    8 ar
  13    7   10 1
  14    8    9 ar
  15    8   30 1
  16    9   31 1
  17   10   11 1
  18   11   12 am
  19   11   13 2
  20   12   14 1
  21   12   15 1
  22   14   22 1
  23   14   32 1
  24   14   33 1
  25   15   23 1
  26   15   34 1
  27   15   35 1
  28   16   17 ar
  29   16   21 ar
  30   17   18 ar
  31   17   36 1
  32   18   19 ar
  33   18   37 1
  34   19   20 ar
  35   19   38 1
  36   20   21 ar
  37   20   24 1
  38   21   26 1
  39   22   39 1
  40   22   40 1
  41   22   41 1
  42   23   42 1
  43   23   43 1
  44   23   44 1
  45   24   25 1
  46   24   45 1
  47   25   26 2
  48   25   46 1
  49   26   47 1

#	End of record

