#	Name: ASD01881788
#	Creating user name:	WinNT
#	Creation time:	15. 06. 2019 19:43

#	Modifying user name:	WinNT
#	Modification time:	15. 06. 2019 19:43

#	Program:	/corina/corina34_cracker 3.40 0067  02.08.2006

@<TRIPOS>MOLECULE
ASD01881788
  44   46    0    0    0
SMALL
NO_CHARGES


@<TRIPOS>ATOM
   1 C1            -0.0184     1.5028     0.0103 C.2     
   2 C2             0.0021    -0.0041     0.0020 C.3     
   3 C3             1.4513    -0.4944    -0.0145 C.3     
   4 C4             1.4720    -2.0242    -0.0229 C.3     
   5 O5             1.0236     2.1234     0.0037 O.2     
   6 N6            -1.1946     2.1607     0.0195 N.am    
   7 C7            -1.2145     3.6256     0.0275 C.3     
   8 C8            -2.4532     1.4111     0.0214 C.3     
   9 O9             2.8256    -2.4822    -0.0383 O.3     
  10 N10            3.8897    -7.8553    -0.0768 N.pl3   
  11 N11            5.2873    -7.7359    -0.0901 N.2     
  12 N12            5.6107    -6.4909    -0.0871 N.2     
  13 C13            4.5052    -5.7197    -0.0721 C.ar    
  14 C14            3.3886    -6.5735    -0.0652 C.ar    
  15 C15            4.3059    -4.3322    -0.0623 C.ar    
  16 C16            3.0220    -3.8278    -0.0474 C.ar    
  17 C17            1.9255    -4.6865    -0.0410 C.ar    
  18 C18            2.1044    -6.0412    -0.0490 C.ar    
  19 C19            3.1159    -9.0992    -0.0807 C.3     
  20 C20            2.8610    -9.5459     1.3602 C.3     
  21 C21            1.9650   -10.7677     1.5731 C.3     
  22 C22            3.4733   -10.8750     1.8067 C.3     
  23 Br23           5.7887    -3.1586    -0.0706 Br      
  24 H24           -0.4983    -0.3791     0.8948 H       
  25 H25           -0.5153    -0.3696    -0.8850 H       
  26 H26            1.9516    -0.1193    -0.9073 H       
  27 H27            1.9686    -0.1289     0.8726 H       
  28 H28            0.9717    -2.3993     0.8699 H       
  29 H29            0.9547    -2.3897    -0.9099 H       
  30 H30           -1.2243     3.9944    -0.9981 H       
  31 H31           -2.1068     3.9740     0.5475 H       
  32 H32           -0.3271     3.9982     0.5392 H       
  33 H33           -2.7605     1.2195     1.0495 H       
  34 H34           -3.2232     1.9925    -0.4857 H       
  35 H35           -2.3124     0.4633    -0.4983 H       
  36 H36            0.9257    -4.2784    -0.0289 H       
  37 H37            1.2476    -6.6987    -0.0438 H       
  38 H38            2.1632    -8.9329    -0.5835 H       
  39 H39            3.6745    -9.8729    -0.6075 H       
  40 H40            2.8035    -8.7450     2.0975 H       
  41 H41            1.3184   -10.7709     2.4506 H       
  42 H42            1.5572   -11.2533     0.6866 H       
  43 H43            4.0577   -11.4313     1.0738 H       
  44 H44            3.8189   -10.9488     2.8378 H       
@<TRIPOS>BOND
   1    1    2 1
   2    1    5 2
   3    1    6 am
   4    2    3 1
   5    2   24 1
   6    2   25 1
   7    3    4 1
   8    3   26 1
   9    3   27 1
  10    4    9 1
  11    4   28 1
  12    4   29 1
  13    6    7 1
  14    6    8 1
  15    7   30 1
  16    7   31 1
  17    7   32 1
  18    8   33 1
  19    8   34 1
  20    8   35 1
  21    9   16 1
  22   10   11 1
  23   10   14 1
  24   10   19 1
  25   11   12 2
  26   12   13 1
  27   13   14 ar
  28   13   15 ar
  29   14   18 ar
  30   15   16 ar
  31   15   23 1
  32   16   17 ar
  33   17   18 ar
  34   17   36 1
  35   18   37 1
  36   19   20 1
  37   19   38 1
  38   19   39 1
  39   20   21 1
  40   20   22 1
  41   20   40 1
  42   21   22 1
  43   21   41 1
  44   21   42 1
  45   22   43 1
  46   22   44 1

#	End of record

