#	Name: ASD08150749
#	Creating user name:	WinNT
#	Creation time:	15. 06. 2019 21:16

#	Modifying user name:	WinNT
#	Modification time:	15. 06. 2019 21:16

#	Program:	/corina/corina34_cracker 3.40 0067  02.08.2006

@<TRIPOS>MOLECULE
ASD08150749
  31   33    0    0    0
SMALL
NO_CHARGES


@<TRIPOS>ATOM
   1 C1            -0.0778     1.1814     0.0646 C.2     
   2 N2             0.0963    -0.1259     0.1486 N.2     
   3 C3             1.2998    -0.6737     0.0848 C.2     
   4 C4             2.4106     0.1536    -0.0752 C.2     
   5 C5             2.2167     1.5466    -0.1640 C.2     
   6 N6             0.9527     2.0577    -0.0922 N.am    
   7 S7            -1.5490     2.1694     0.1108 S.3     
   8 C8             0.5944     3.3815    -0.1617 C.2     
   9 C9            -0.6840     3.7048    -0.0762 C.2     
  10 O10            3.1725     2.2914    -0.3038 O.2     
  11 S11            4.8669    -0.2707    -1.5183 S.3     
  12 C12            3.7674    -0.4200    -0.1499 C.2     
  13 N13            4.3463    -1.1187     0.7864 N.2     
  14 C14            5.5645    -1.5496     0.5415 C.2     
  15 C15            6.0715    -1.2184    -0.6484 C.2     
  16 C16            1.6435     4.4496    -0.3342 C.3     
  17 C17            1.4667    -2.1681     0.1842 C.3     
  18 C18            1.0791    -2.6322     1.5897 C.3     
  19 N19            0.6006    -2.8243    -0.8043 N.3     
  20 H20           -1.1119     4.6956    -0.1161 H       
  21 H21            6.1207    -2.1348     1.2589 H       
  22 H22            7.0515    -1.4858    -1.0152 H       
  23 H23            1.8076     4.6294    -1.3966 H       
  24 H24            1.3065     5.3701     0.1423 H       
  25 H25            2.5751     4.1217     0.1270 H       
  26 H26            2.5061    -2.4315    -0.0117 H       
  27 H27            0.0397    -2.3688     1.7856 H       
  28 H28            1.1998    -3.7131     1.6616 H       
  29 H29            1.7218    -2.1453     2.3232 H       
  30 H30            0.7934    -2.4860    -1.7352 H       
  31 H31            0.6944    -3.8279    -0.7576 H       
@<TRIPOS>BOND
   1    1    2 2
   2    1    6 1
   3    1    7 1
   4    2    3 1
   5    3    4 2
   6    3   17 1
   7    4    5 1
   8    4   12 1
   9    5    6 am
  10    5   10 2
  11    6    8 1
  12    7    9 1
  13    8    9 2
  14    8   16 1
  15    9   20 1
  16   11   12 1
  17   11   15 1
  18   12   13 2
  19   13   14 1
  20   14   15 2
  21   14   21 1
  22   15   22 1
  23   16   23 1
  24   16   24 1
  25   16   25 1
  26   17   18 1
  27   17   19 1
  28   17   26 1
  29   18   27 1
  30   18   28 1
  31   18   29 1
  32   19   30 1
  33   19   31 1

#	End of record

