#	Name: ASD00990035
#	Creating user name:	WinNT
#	Creation time:	15. 06. 2019 18:54

#	Modifying user name:	WinNT
#	Modification time:	15. 06. 2019 18:54

#	Program:	/corina/corina34_cracker 3.40 0067  02.08.2006

@<TRIPOS>MOLECULE
ASD00990035
  21   22    0    0    0
SMALL
NO_CHARGES


@<TRIPOS>ATOM
   1 C1            -0.0167     1.3809     0.0096 C.ar    
   2 C2             0.0021    -0.0041     0.0020 C.ar    
   3 C3            -1.1808    -0.7170     0.0095 C.ar    
   4 C4            -2.3932    -0.0453     0.0247 C.ar    
   5 C5            -2.4116     1.3492     0.0323 C.ar    
   6 C6            -1.2211     2.0590     0.0305 C.ar    
   7 Cl7            1.4760     2.2673     0.0001 Cl      
   8 O8            -3.6823    -0.4650     0.0352 O.3     
   9 C9            -4.4939     0.6040     0.0489 C.2     
  10 N10           -3.7532     1.7300     0.0476 N.am    
  11 C11           -4.2639     3.1030     0.0608 C.3     
  12 O12           -5.7092     0.5630     0.0607 O.2     
  13 C13           -4.4248     3.5655     1.4860 C.2     
  14 O14           -4.1419     2.8242     2.3973 O.2     
  15 O15           -4.8825     4.8009     1.7431 O.3     
  16 H16            0.9459    -0.5288    -0.0102 H       
  17 H17           -1.1612    -1.7968     0.0031 H       
  18 H18           -1.2345     3.1389     0.0364 H       
  19 H19           -3.5616     3.7569    -0.4563 H       
  20 H20           -5.2298     3.1362    -0.4432 H       
  21 H21           -4.9688     5.0524     2.6728 H       
@<TRIPOS>BOND
   1    1    2 ar
   2    1    7 1
   3    1    6 ar
   4    2    3 ar
   5    2   16 1
   6    3    4 ar
   7    3   17 1
   8    4    5 ar
   9    4    8 1
  10    5    6 ar
  11    5   10 1
  12    6   18 1
  13    8    9 1
  14    9   10 am
  15    9   12 2
  16   10   11 1
  17   11   13 1
  18   11   19 1
  19   11   20 1
  20   13   14 2
  21   13   15 1
  22   15   21 1

#	End of record

