#	Name: ASD01150282
#	Creating user name:	WinNT
#	Creation time:	15. 06. 2019 19:03

#	Modifying user name:	WinNT
#	Modification time:	15. 06. 2019 19:03

#	Program:	/corina/corina34_cracker 3.40 0067  02.08.2006

@<TRIPOS>MOLECULE
ASD01150282
  59   62    0    0    0
SMALL
NO_CHARGES


@<TRIPOS>ATOM
   1 C1            -0.0158     1.3123     0.0093 C.2     
   2 N2             0.0021    -0.0041     0.0020 N.2     
   3 C3            -1.2465    -0.4793     0.0114 C.2     
   4 C4            -2.1136     0.6065     0.0255 C.2     
   5 N5            -1.3045     1.7452     0.0298 N.pl3   
   6 N6             1.0958     2.1230     0.0030 N.3     
   7 C7             2.3292     1.3252    -0.0137 C.3     
   8 C8             1.0586     3.0586    -1.1289 C.3     
   9 C9            -1.7377     3.0773     0.0432 C.ar    
  10 N10           -1.6125    -1.8194     0.0073 N.am    
  11 C11           -3.5222     0.5668     0.0387 C.2     
  12 O12           -4.2300     1.7169     0.0511 O.3     
  13 O13           -4.1012    -0.5045     0.0390 O.2     
  14 C14           -5.6543     1.6020     0.0642 C.3     
  15 C15           -6.0927     0.8359     1.3139 C.3     
  16 C16           -6.2785     2.9988     0.0770 C.3     
  17 C17           -6.1166     0.8483    -1.1845 C.3     
  18 C18           -1.4633     3.8872     1.1373 C.ar    
  19 C19           -1.8918     5.2001     1.1476 C.ar    
  20 C20           -2.5939     5.7082     0.0700 C.ar    
  21 C21           -2.8687     4.9043    -1.0210 C.ar    
  22 C22           -2.4375     3.5923    -1.0399 C.ar    
  23 C23           -0.6642    -2.7770    -0.0069 C.2     
  24 C24           -1.0509    -4.1928    -0.0112 C.2     
  25 O25            0.5125    -2.4677    -0.0160 O.2     
  26 C26           -0.1894    -5.2174    -0.0249 C.2     
  27 C27           -0.7706    -6.4968    -0.0259 C.ar    
  28 C28           -2.1700    -6.4515    -0.0120 C.ar    
  29 S29           -2.7060    -4.7753     0.0084 S.3     
  30 Cl30           1.5304    -4.9813    -0.0410 Cl      
  31 C31           -0.1339    -7.7609    -0.0382 C.ar    
  32 C32           -0.8696    -8.9039    -0.0370 C.ar    
  33 C33           -2.2582    -8.8536    -0.0232 C.ar    
  34 C34           -2.9054    -7.6416    -0.0106 C.ar    
  35 H35            2.3464     0.7015    -0.9074 H       
  36 H36            3.1924     1.9908    -0.0183 H       
  37 H37            2.3639     0.6914     0.8724 H       
  38 H38            0.1697     3.6849    -1.0537 H       
  39 H39            1.9488     3.6874    -1.1100 H       
  40 H40            1.0299     2.4977    -2.0631 H       
  41 H41           -2.5507    -2.0660     0.0146 H       
  42 H42           -5.7634     1.3729     2.2034 H       
  43 H43           -7.1792     0.7483     1.3238 H       
  44 H44           -5.6480    -0.1592     1.3047 H       
  45 H45           -5.9661     3.5446    -0.8133 H       
  46 H46           -7.3649     2.9112     0.0869 H       
  47 H47           -5.9492     3.5358     0.9665 H       
  48 H48           -5.6718    -0.1468    -1.1936 H       
  49 H49           -7.2030     0.7606    -1.1745 H       
  50 H50           -5.8042     1.3940    -2.0748 H       
  51 H51           -0.9157     3.4907     1.9795 H       
  52 H52           -1.6787     5.8305     1.9982 H       
  53 H53           -2.9285     6.7350     0.0807 H       
  54 H54           -3.4172     5.3040    -1.8611 H       
  55 H55           -2.6524     2.9649    -1.8923 H       
  56 H56            0.9445    -7.8177    -0.0491 H       
  57 H57           -0.3696    -9.8612    -0.0472 H       
  58 H58           -2.8304    -9.7696    -0.0224 H       
  59 H59           -3.9848    -7.6076    -0.0002 H       
@<TRIPOS>BOND
   1    1    2 2
   2    1    6 1
   3    1    5 1
   4    2    3 1
   5    3    4 2
   6    3   10 1
   7    4    5 1
   8    4   11 1
   9    5    9 1
  10    6    7 1
  11    6    8 1
  12    7   35 1
  13    7   36 1
  14    7   37 1
  15    8   38 1
  16    8   39 1
  17    8   40 1
  18    9   18 ar
  19    9   22 ar
  20   10   23 am
  21   10   41 1
  22   11   12 1
  23   11   13 2
  24   12   14 1
  25   14   15 1
  26   14   16 1
  27   14   17 1
  28   15   42 1
  29   15   43 1
  30   15   44 1
  31   16   45 1
  32   16   46 1
  33   16   47 1
  34   17   48 1
  35   17   49 1
  36   17   50 1
  37   18   19 ar
  38   18   51 1
  39   19   20 ar
  40   19   52 1
  41   20   21 ar
  42   20   53 1
  43   21   22 ar
  44   21   54 1
  45   22   55 1
  46   23   24 1
  47   23   25 2
  48   24   26 2
  49   24   29 1
  50   26   27 1
  51   26   30 1
  52   27   28 ar
  53   27   31 ar
  54   28   29 1
  55   28   34 ar
  56   31   32 ar
  57   31   56 1
  58   32   33 ar
  59   32   57 1
  60   33   34 ar
  61   33   58 1
  62   34   59 1

#	End of record

