#	Name: ASD03320122
#	Creating user name:	WinNT
#	Creation time:	15. 06. 2019 20:36

#	Modifying user name:	WinNT
#	Modification time:	15. 06. 2019 20:36

#	Program:	/corina/corina34_cracker 3.40 0067  02.08.2006

@<TRIPOS>MOLECULE
ASD03320122
  43   45    0    0    0
SMALL
NO_CHARGES


@<TRIPOS>ATOM
   1 C1            -0.0181     1.4705     0.0148 C.2     
   2 C2             0.0014    -0.0045     0.0118 C.ar    
   3 C3             1.2205    -0.7002     0.0013 C.ar    
   4 C4             1.1911    -2.0690    -0.0007 C.ar    
   5 C5            -0.0388    -2.7267     0.0077 C.ar    
   6 N6            -1.1758    -2.0449     0.0171 N.ar    
   7 C7            -1.1918    -0.7281     0.0251 C.ar    
   8 O8             1.0268     2.0925     0.0082 O.2     
   9 N9            -1.1941     2.1289     0.0193 N.am    
  10 C10           -1.2149     3.5226     0.1325 C.ar    
  11 C11           -2.1829     4.2609    -0.5361 C.ar    
  12 C12           -2.2005     5.6371    -0.4222 C.ar    
  13 C13           -1.2558     6.2802     0.3565 C.ar    
  14 C14           -0.2904     5.5481     1.0231 C.ar    
  15 C15           -0.2710     4.1711     0.9183 C.ar    
  16 S16           -1.2826     8.0841     0.5030 Du      
  17 F17           -1.3064     9.6886     0.6333 F       
  18 F18           -1.0632     7.9582     2.0930 F       
  19 F19           -1.5020     8.2099    -1.0870 F       
  20 F20            0.3122     8.1253     0.2862 F       
  21 F21           -2.8774     8.0428     0.7198 F       
  22 N22           -0.0728    -4.1113     0.0057 N.3     
  23 C23           -1.4618    -4.6057     0.0156 C.3     
  24 C24           -1.6310    -5.5186    -1.2171 C.3     
  25 C25           -0.1741    -5.9429    -1.5403 C.3     
  26 C26            0.6125    -4.6565    -1.1855 C.3     
  27 O27           -2.4299    -6.6589    -0.8956 O.3     
  28 Br28           2.8026    -3.0584    -0.0152 Br      
  29 H29            2.1602    -0.1679    -0.0054 H       
  30 H30           -2.1360    -0.2040     0.0374 H       
  31 H31           -2.0262     1.6359    -0.0560 H       
  32 H32           -2.9207     3.7593    -1.1446 H       
  33 H33           -2.9528     6.2118    -0.9421 H       
  34 H34            0.4462     6.0534     1.6301 H       
  35 H35            0.4803     3.5996     1.4431 H       
  36 H36           -1.6464    -5.1750     0.9267 H       
  37 H37           -2.1546    -3.7665    -0.0466 H       
  38 H38           -2.0649    -4.9651    -2.0499 H       
  39 H39            0.1380    -6.7772    -0.9121 H       
  40 H40           -0.0643    -6.1890    -2.5964 H       
  41 H41            0.5661    -3.9440    -2.0091 H       
  42 H42            1.6488    -4.8983    -0.9496 H       
  43 H43           -2.5666    -7.2650    -1.6366 H       
@<TRIPOS>BOND
   1    1    2 1
   2    1    8 2
   3    1    9 am
   4    2    3 ar
   5    2    7 ar
   6    3    4 ar
   7    3   29 1
   8    4    5 ar
   9    4   28 1
  10    5    6 ar
  11    5   22 1
  12    6    7 ar
  13    7   30 1
  14    9   10 1
  15    9   31 1
  16   10   11 ar
  17   10   15 ar
  18   11   12 ar
  19   11   32 1
  20   12   13 ar
  21   12   33 1
  22   13   14 ar
  23   13   16 1
  24   14   15 ar
  25   14   34 1
  26   15   35 1
  27   16   17 1
  28   16   18 1
  29   16   19 1
  30   16   20 1
  31   16   21 1
  32   22   23 1
  33   22   26 1
  34   23   24 1
  35   23   36 1
  36   23   37 1
  37   24   25 1
  38   24   27 1
  39   24   38 1
  40   25   26 1
  41   25   39 1
  42   25   40 1
  43   26   41 1
  44   26   42 1
  45   27   43 1

#	End of record

