#	Name: ASD09740650
#	Creating user name:	WinNT
#	Creation time:	15. 06. 2019 21:23

#	Modifying user name:	WinNT
#	Modification time:	15. 06. 2019 21:23

#	Program:	/corina/corina34_cracker 3.40 0067  02.08.2006

@<TRIPOS>MOLECULE
ASD09740650
  19   20    0    0    0
SMALL
NO_CHARGES


@<TRIPOS>ATOM
   1 C1             0.0021    -0.0041     0.0020 C.1     
   2 C2            -0.0173     1.4278     0.0099 C.ar    
   3 C3             1.1841     2.1463     0.0023 C.ar    
   4 C4             1.1645     3.5297     0.0099 C.ar    
   5 C5            -0.0368     4.2084     0.0245 C.ar    
   6 C6            -1.2424     3.5030     0.0322 C.ar    
   7 C7            -1.2327     2.1104     0.0193 C.ar    
   8 N8             0.0175    -1.1399    -0.0042 N.1     
   9 S9            -2.7069     5.9867     0.0596 S.3     
  10 C10           -2.5277     4.2341     0.0484 C.2     
  11 N11           -3.7089     3.6859     0.0568 N.2     
  12 C12           -4.7428     4.4958     0.0710 C.2     
  13 C13           -4.4597     5.8024     0.0753 C.2     
  14 F14            2.3639     1.4882    -0.0121 F       
  15 H15            2.0934     4.0807     0.0047 H       
  16 H16           -0.0449     5.2884     0.0304 H       
  17 H17           -2.1629     1.5617     0.0208 H       
  18 H18           -5.7586     4.1291     0.0784 H       
  19 H19           -5.1807     6.6064     0.0862 H       
@<TRIPOS>BOND
   1    1    2 1
   2    1    8 3
   3    2    3 ar
   4    2    7 ar
   5    3    4 ar
   6    3   14 1
   7    4    5 ar
   8    4   15 1
   9    5    6 ar
  10    5   16 1
  11    6    7 ar
  12    6   10 1
  13    7   17 1
  14    9   10 1
  15    9   13 1
  16   10   11 2
  17   11   12 1
  18   12   13 2
  19   12   18 1
  20   13   19 1

#	End of record

