#	Name: ASD06580001
#	Creating user name:	WinNT
#	Creation time:	15. 06. 2019 21:06

#	Modifying user name:	WinNT
#	Modification time:	15. 06. 2019 21:06

#	Program:	/corina/corina34_cracker 3.40 0067  02.08.2006

@<TRIPOS>MOLECULE
ASD06580001
  64   71    0    0    0
SMALL
NO_CHARGES


@<TRIPOS>ATOM
   1 C1             0.1812     1.8689    -0.2215 C.ar    
   2 C2             0.1023     0.4967    -0.3935 C.ar    
   3 C3             1.2149    -0.3418    -0.3725 C.ar    
   4 C4             2.4584     0.2580    -0.1415 C.ar    
   5 C5             2.4884     1.6276     0.0709 C.ar    
   6 C6             1.4064     2.4748    -0.0043 C.ar    
   7 O7             1.0979    -1.6826    -0.5672 O.3     
   8 C8             3.9198     2.0265     0.3299 C.3     
   9 C9             4.0867     3.3759    -0.3550 C.3     
  10 C10            3.0802     4.3403     0.2888 C.3     
  11 C11            1.6269     3.9507     0.0729 C.3     
  12 C12            4.6712     0.8358    -0.2564 C.3     
  13 C13            4.9510     1.0420    -1.7222 C.2     
  14 C14            4.5444     2.1174    -2.4294 C.2     
  15 C15            3.7717     3.2545    -1.8517 C.3     
  16 O16            3.7101    -0.2473    -0.1237 O.3     
  17 C17            4.1705     2.1504     1.8298 C.3     
  18 C18            3.1983     3.1788     2.4168 C.3     
  19 N19            3.3669     4.4615     1.7225 N.3     
  20 C20            2.5384     5.5065     2.3385 C.3     
  21 C21            2.8039     5.5459     3.8448 C.3     
  22 C22            2.1212     6.6506     4.6538 C.3     
  23 C23            1.6396     5.2036     4.7766 C.3     
  24 O24            5.4187     3.8595    -0.1707 O.3     
  25 N25            5.6446     0.1878    -2.5421 N.pl3   
  26 C26            5.6993     0.7013    -3.8076 C.ar    
  27 C27            5.0095     1.9402    -3.7891 C.ar    
  28 C28            6.2767     0.2235    -4.9824 C.ar    
  29 C29            6.1468     1.0079    -6.1140 C.ar    
  30 C30            5.4723     2.2243    -6.0991 C.ar    
  31 C31            4.8878     2.7221    -4.9421 C.ar    
  32 N32            5.3803     2.9675    -7.2835 N.pl3   
  33 C33            4.2665     3.7379    -7.5277 C.2     
  34 N34            3.2452     3.6816    -6.7197 N.2     
  35 N35            4.2310     4.5672    -8.6240 N.pl3   
  36 H36           -0.7160     2.4686    -0.2616 H       
  37 H37           -0.8703     0.0546    -0.5514 H       
  38 H38            1.1687    -1.9533    -1.4929 H       
  39 H39            3.2317     5.3254    -0.1524 H       
  40 H40            1.2789     4.4039    -0.8553 H       
  41 H41            1.0334     4.3491     0.8957 H       
  42 H42            5.5898     0.6371     0.2956 H       
  43 H43            2.7040     3.0658    -1.9638 H       
  44 H44            4.0390     4.1775    -2.3662 H       
  45 H45            4.0105     1.1837     2.3072 H       
  46 H46            5.1956     2.4782     2.0022 H       
  47 H47            2.1749     2.8269     2.2869 H       
  48 H48            3.4057     3.3102     3.4787 H       
  49 H49            2.7873     6.4729     1.9003 H       
  50 H50            1.4855     5.2872     2.1608 H       
  51 H51            3.8032     5.2398     4.1542 H       
  52 H52            2.6713     7.0711     5.4956 H       
  53 H53            1.4830     7.3493     4.1129 H       
  54 H54            0.6844     4.9503     4.3164 H       
  55 H55            1.8728     4.6721     5.6992 H       
  56 H56            5.5866     4.7170    -0.5849 H       
  57 H57            6.0378    -0.6545    -2.2648 H       
  58 H58            6.8034    -0.7190    -5.0080 H       
  59 H59            6.5840     0.6647    -7.0400 H       
  60 H60            4.3638     3.6664    -4.9334 H       
  61 H61            6.1017     2.9388    -7.9313 H       
  62 H62            2.4601     4.2247    -6.8918 H       
  63 H63            4.9591     4.5555    -9.2648 H       
  64 H64            3.4779     5.1640    -8.7566 H       
@<TRIPOS>BOND
   1    1    2 ar
   2    1    6 ar
   3    1   36 1
   4    2    3 ar
   5    2   37 1
   6    3    4 ar
   7    3    7 1
   8    4    5 ar
   9    4   16 1
  10    5    6 ar
  11    5    8 1
  12    6   11 1
  13    7   38 1
  14    8    9 1
  15    8   17 1
  16    8   12 1
  17    9   24 1
  18    9   10 1
  19    9   15 1
  20   10   11 1
  21   10   19 1
  22   10   39 1
  23   11   40 1
  24   11   41 1
  25   12   13 1
  26   12   16 1
  27   12   42 1
  28   13   14 2
  29   13   25 1
  30   14   15 1
  31   14   27 1
  32   15   43 1
  33   15   44 1
  34   17   18 1
  35   17   45 1
  36   17   46 1
  37   18   19 1
  38   18   47 1
  39   18   48 1
  40   19   20 1
  41   20   21 1
  42   20   49 1
  43   20   50 1
  44   21   22 1
  45   21   23 1
  46   21   51 1
  47   22   23 1
  48   22   52 1
  49   22   53 1
  50   23   54 1
  51   23   55 1
  52   24   56 1
  53   25   26 1
  54   25   57 1
  55   26   27 ar
  56   26   28 ar
  57   27   31 ar
  58   28   29 ar
  59   28   58 1
  60   29   30 ar
  61   29   59 1
  62   30   31 ar
  63   30   32 1
  64   31   60 1
  65   32   33 1
  66   32   61 1
  67   33   34 2
  68   33   35 1
  69   34   62 1
  70   35   63 1
  71   35   64 1

#	End of record

