#	Name: ASD07931944
#	Creating user name:	WinNT
#	Creation time:	15. 06. 2019 21:13

#	Modifying user name:	WinNT
#	Modification time:	15. 06. 2019 21:13

#	Program:	/corina/corina34_cracker 3.40 0067  02.08.2006

@<TRIPOS>MOLECULE
ASD07931944
  15   15    0    0    0
SMALL
NO_CHARGES


@<TRIPOS>ATOM
   1 C1            -0.0168     1.3899     0.0097 C.ar    
   2 C2             0.0021    -0.0041     0.0020 C.ar    
   3 C3             1.2188    -0.6626    -0.0131 C.ar    
   4 C4             2.3897     0.1043    -0.0202 C.ar    
   5 C5             2.2884     1.4994    -0.0117 C.ar    
   6 N6             1.1136     2.0866     0.0026 N.ar    
   7 C7            -1.3149     2.1032     0.0197 C.2     
   8 O8            -2.3534     1.4739     0.0211 O.2     
   9 O9            -1.3434     3.4496     0.0271 O.3     
  10 C10            3.6732    -0.5304    -0.0353 C.1     
  11 N11            4.6915    -1.0340    -0.0474 N.1     
  12 H12           -0.9219    -0.5632     0.0082 H       
  13 H13            1.2640    -1.7416    -0.0190 H       
  14 H14            3.1859     2.1002    -0.0170 H       
  15 H15           -2.2140     3.8703     0.0335 H       
@<TRIPOS>BOND
   1    1    2 ar
   2    1    6 ar
   3    1    7 1
   4    2    3 ar
   5    2   12 1
   6    3    4 ar
   7    3   13 1
   8    4    5 ar
   9    4   10 1
  10    5    6 ar
  11    5   14 1
  12    7    8 2
  13    7    9 1
  14    9   15 1
  15   10   11 3

#	End of record

