#	Name: ASD01941064
#	Creating user name:	WinNT
#	Creation time:	15. 06. 2019 20:13

#	Modifying user name:	WinNT
#	Modification time:	15. 06. 2019 20:13

#	Program:	/corina/corina34_cracker 3.40 0067  02.08.2006

@<TRIPOS>MOLECULE
ASD01941064
  56   58    0    0    0
SMALL
NO_CHARGES


@<TRIPOS>ATOM
   1 C1            -0.8759     1.3862     0.3148 C.3     
   2 C2            -1.3580    -0.0398     0.5837 C.3     
   3 N3            -2.6496    -0.0887     1.2512 N.am    
   4 C4            -2.7054    -0.0050     2.6002 C.2     
   5 C5            -1.4650     0.4378     3.2696 C.2     
   6 C6            -0.7322     1.4792     2.8025 C.2     
   7 C7            -1.1100     2.2520     1.5556 C.3     
   8 O8            -3.7149    -0.2772     3.2237 O.2     
   9 C9             0.6176     1.3648    -0.0167 C.3     
  10 C10           -1.6514     1.9714    -0.8672 C.3     
  11 S11           -0.7393    -0.2480     4.7064 S.3     
  12 C12            0.5333     0.8881     4.6698 C.2     
  13 C13            0.3874     1.7375     3.5940 C.2     
  14 N14            1.5598     0.9478     5.5847 N.pl3   
  15 C15            1.6819    -0.0427     6.5643 C.ar    
  16 C16            1.4847    -1.3767     6.2333 C.ar    
  17 C17            1.6059    -2.3530     7.2031 C.ar    
  18 C18            1.9235    -2.0034     8.5030 C.ar    
  19 C19            2.1204    -0.6752     8.8371 C.ar    
  20 C20            2.0067     0.3056     7.8705 C.ar    
  21 Cl21           2.2539     1.9719     8.2899 Cl      
  22 I22            2.1060    -3.4882     9.9697 I       
  23 C23            1.3313     2.8239     3.3055 C.2     
  24 O24            2.2950     2.6189     2.5913 O.2     
  25 N25            1.1307     4.0485     3.8315 N.am    
  26 C26            2.0728     5.1328     3.5434 C.3     
  27 C27            1.6172     6.4072     4.2570 C.3     
  28 N28            0.2335     6.7158     3.8723 N.3     
  29 C29            1.6911     6.1983     5.7709 C.3     
  30 C30            2.5289     7.5691     3.8574 C.3     
  31 H31           -1.4339    -0.5692    -0.3661 H       
  32 H32           -0.6217    -0.5471     1.2072 H       
  33 H33           -3.4645    -0.1802     0.7330 H       
  34 H34           -0.4997     3.1527     1.4890 H       
  35 H35           -2.1621     2.5323     1.6082 H       
  36 H36            0.7845     0.7514    -0.9021 H       
  37 H37            0.9619     2.3810    -0.2085 H       
  38 H38            1.1705     0.9466     0.8245 H       
  39 H39           -2.7156     1.9856    -0.6322 H       
  40 H40           -1.3081     2.9880    -1.0594 H       
  41 H41           -1.4828     1.3577    -1.7520 H       
  42 H42            2.1986     1.6770     5.5500 H       
  43 H43            1.2363    -1.6507     5.2185 H       
  44 H44            1.4521    -3.3906     6.9459 H       
  45 H45            2.3675    -0.4053     9.8532 H       
  46 H46            0.3625     4.2118     4.4008 H       
  47 H47            3.0660     4.8543     3.8958 H       
  48 H48            2.1051     5.3100     2.4684 H       
  49 H49            0.1584     6.8583     2.8762 H       
  50 H50           -0.3980     5.9928     4.1828 H       
  51 H51            2.7178     5.9692     6.0563 H       
  52 H52            1.3666     7.1062     6.2792 H       
  53 H53            1.0416     5.3705     6.0555 H       
  54 H54            2.4763     7.7180     2.7789 H       
  55 H55            2.2044     8.4770     4.3658 H       
  56 H56            3.5557     7.3401     4.1429 H       
@<TRIPOS>BOND
   1    1    2 1
   2    1    9 1
   3    1   10 1
   4    1    7 1
   5    2    3 1
   6    2   31 1
   7    2   32 1
   8    3    4 am
   9    3   33 1
  10    4    5 1
  11    4    8 2
  12    5    6 2
  13    5   11 1
  14    6    7 1
  15    6   13 1
  16    7   34 1
  17    7   35 1
  18    9   36 1
  19    9   37 1
  20    9   38 1
  21   10   39 1
  22   10   40 1
  23   10   41 1
  24   11   12 1
  25   12   13 2
  26   12   14 1
  27   13   23 1
  28   14   15 1
  29   14   42 1
  30   15   16 ar
  31   15   20 ar
  32   16   17 ar
  33   16   43 1
  34   17   18 ar
  35   17   44 1
  36   18   19 ar
  37   18   22 1
  38   19   20 ar
  39   19   45 1
  40   20   21 1
  41   23   24 2
  42   23   25 am
  43   25   26 1
  44   25   46 1
  45   26   27 1
  46   26   47 1
  47   26   48 1
  48   27   28 1
  49   27   29 1
  50   27   30 1
  51   28   49 1
  52   28   50 1
  53   29   51 1
  54   29   52 1
  55   29   53 1
  56   30   54 1
  57   30   55 1
  58   30   56 1

#	End of record

