#	Name: ASD08178073
#	Creating user name:	WinNT
#	Creation time:	15. 06. 2019 21:18

#	Modifying user name:	WinNT
#	Modification time:	15. 06. 2019 21:18

#	Program:	/corina/corina34_cracker 3.40 0067  02.08.2006

@<TRIPOS>MOLECULE
ASD08178073
  88   92    0    0    0
SMALL
NO_CHARGES


@<TRIPOS>ATOM
   1 N1            -3.7637    -0.6734     0.1110 N.2     
   2 N2            -3.4791    -1.8988     0.0057 N.2     
   3 C3            -2.7943     0.1504     0.3735 C.2     
   4 S4            -1.3368    -0.7404     0.5036 S.3     
   5 C5            -2.2356    -2.2213     0.1710 C.2     
   6 N6            -2.9190     1.5273     0.5240 N.am    
   7 C7            -4.1266     2.1124     0.3977 C.2     
   8 O8            -5.1045     1.4382     0.1528 O.2     
   9 C9            -1.6602    -3.6120     0.0942 C.3     
  10 C10           -1.2311    -3.9077    -1.3443 C.3     
  11 C11           -0.0956    -5.7439    -3.1883 C.3     
  12 C12            0.5129    -7.1259    -3.4346 C.3     
  13 C13            0.8809    -7.2607    -4.8898 C.2     
  14 N14            2.0193    -6.9470    -5.4221 N.2     
  15 S15           -0.1587    -7.8810    -6.1727 S.3     
  16 C16            1.1080    -7.6239    -7.2970 C.2     
  17 N17            2.1323    -7.1349    -6.6654 N.2     
  18 N18            1.0510    -7.8984    -8.6592 N.am    
  19 C19            2.1199    -7.6505    -9.4419 C.2     
  20 O20            3.1314    -7.1880    -8.9583 O.2     
  21 C21            2.0581    -7.9480   -10.9179 C.3     
  22 C22           -4.2617     3.6045     0.5609 C.3     
  23 C23           -5.7031     4.0019     0.3727 C.ar    
  24 C24            0.9514    -7.1415   -11.5470 C.ar    
  25 C25            0.7791    -5.8149   -11.1989 C.ar    
  26 C26           -6.5574     4.0385     1.4589 C.ar    
  27 C27           -7.8796     4.4030     1.2863 C.ar    
  28 C28           -8.3474     4.7313     0.0277 C.ar    
  29 C29           -7.4929     4.6956    -1.0583 C.ar    
  30 C30           -6.1697     4.3353    -0.8851 C.ar    
  31 C31            0.1120    -7.7268   -12.4764 C.ar    
  32 C32           -0.9032    -6.9871   -13.0534 C.ar    
  33 C33           -1.0794    -5.6622   -12.7007 C.ar    
  34 C34           -0.2362    -5.0751   -11.7759 C.ar    
  35 N35            3.3391    -7.5927   -11.5431 N.3     
  36 S36           -0.5385    -5.5817    -1.4367 S.3     
  37 C37            4.4313    -8.4189   -11.0117 C.3     
  38 C38            5.7093    -8.1466   -11.8121 C.3     
  39 N39            5.9652    -6.6982   -11.8053 N.am    
  40 C40            4.8706    -5.7964   -12.1950 C.3     
  41 C41            3.6256    -6.1612   -11.3794 C.3     
  42 C42            7.1708    -6.2104   -11.4519 C.2     
  43 O43            7.3856    -4.8812   -11.4519 O.3     
  44 O44            8.0640    -6.9701   -11.1332 O.2     
  45 C45            8.7079    -4.4271   -11.0601 C.3     
  46 C46            9.7514    -5.0122   -12.0139 C.3     
  47 C47            8.7613    -2.8993   -11.1209 C.3     
  48 C48            9.0045    -4.8914    -9.6328 C.3     
  49 H49           -2.1369     2.0666     0.7199 H       
  50 H50           -0.7952    -3.6842     0.7535 H       
  51 H51           -2.4147    -4.3350     0.4042 H       
  52 H52           -2.0961    -3.8355    -2.0036 H       
  53 H53           -0.4767    -3.1847    -1.6543 H       
  54 H54            0.6305    -4.9749    -3.4522 H       
  55 H55           -0.9890    -5.6257    -3.8015 H       
  56 H56            1.4063    -7.2441    -2.8215 H       
  57 H57           -0.2132    -7.8949    -3.1708 H       
  58 H58            0.2420    -8.2683    -9.0460 H       
  59 H59            1.8635    -9.0101   -11.0667 H       
  60 H60           -3.9329     3.8921     1.5595 H       
  61 H61           -3.6457     4.1086    -0.1837 H       
  62 H62            1.4374    -5.3565   -10.4757 H       
  63 H63           -6.1919     3.7820     2.4423 H       
  64 H64           -8.5472     4.4309     2.1348 H       
  65 H65           -9.3806     5.0154    -0.1073 H       
  66 H66           -7.8585     4.9518    -2.0418 H       
  67 H67           -5.5021     4.3074    -1.7336 H       
  68 H68            0.2497    -8.7620   -12.7520 H       
  69 H69           -1.5585    -7.4442   -13.7801 H       
  70 H70           -1.8723    -5.0841   -13.1518 H       
  71 H71           -0.3738    -4.0400   -11.5004 H       
  72 H72            4.5987    -8.1703    -9.9636 H       
  73 H73            4.1656    -9.4725   -11.0980 H       
  74 H74            6.5481    -8.6687   -11.3517 H       
  75 H75            5.5790    -8.4906   -12.8382 H       
  76 H76            5.1548    -4.7647   -11.9876 H       
  77 H77            4.6597    -5.9145   -13.2578 H       
  78 H78            2.7756    -5.5774   -11.7325 H       
  79 H79            3.8042    -5.9441   -10.3263 H       
  80 H80            9.5402    -4.6815   -13.0308 H       
  81 H81           10.7441    -4.6713   -11.7198 H       
  82 H82            9.7134    -6.1007   -11.9706 H       
  83 H83            8.0179    -2.4825   -10.4414 H       
  84 H84            9.7539    -2.5584   -10.8268 H       
  85 H85            8.5500    -2.5685   -12.1378 H       
  86 H86            8.9665    -5.9799    -9.5895 H       
  87 H87            9.9971    -4.5506    -9.3386 H       
  88 H88            8.2611    -4.4746    -8.9533 H       
@<TRIPOS>BOND
   1    1    2 1
   2    1    3 2
   3    2    5 2
   4    3    4 1
   5    3    6 1
   6    4    5 1
   7    5    9 1
   8    6    7 am
   9    6   49 1
  10    7    8 2
  11    7   22 1
  12    9   10 1
  13    9   50 1
  14    9   51 1
  15   10   36 1
  16   10   52 1
  17   10   53 1
  18   11   12 1
  19   11   36 1
  20   11   54 1
  21   11   55 1
  22   12   13 1
  23   12   56 1
  24   12   57 1
  25   13   14 2
  26   13   15 1
  27   14   17 1
  28   15   16 1
  29   16   17 2
  30   16   18 1
  31   18   19 am
  32   18   58 1
  33   19   20 2
  34   19   21 1
  35   21   35 1
  36   21   24 1
  37   21   59 1
  38   22   23 1
  39   22   60 1
  40   22   61 1
  41   23   26 ar
  42   23   30 ar
  43   24   31 ar
  44   24   25 ar
  45   25   34 ar
  46   25   62 1
  47   26   27 ar
  48   26   63 1
  49   27   28 ar
  50   27   64 1
  51   28   29 ar
  52   28   65 1
  53   29   30 ar
  54   29   66 1
  55   30   67 1
  56   31   32 ar
  57   31   68 1
  58   32   33 ar
  59   32   69 1
  60   33   34 ar
  61   33   70 1
  62   34   71 1
  63   35   37 1
  64   35   41 1
  65   37   38 1
  66   37   72 1
  67   37   73 1
  68   38   39 1
  69   38   74 1
  70   38   75 1
  71   39   40 1
  72   39   42 am
  73   40   41 1
  74   40   76 1
  75   40   77 1
  76   41   78 1
  77   41   79 1
  78   42   43 1
  79   42   44 2
  80   43   45 1
  81   45   46 1
  82   45   47 1
  83   45   48 1
  84   46   80 1
  85   46   81 1
  86   46   82 1
  87   47   83 1
  88   47   84 1
  89   47   85 1
  90   48   86 1
  91   48   87 1
  92   48   88 1

#	End of record

