#	Name: ASD07300442
#	Creating user name:	WinNT
#	Creation time:	15. 06. 2019 21:09

#	Modifying user name:	WinNT
#	Modification time:	15. 06. 2019 21:09

#	Program:	/corina/corina34_cracker 3.40 0067  02.08.2006

@<TRIPOS>MOLECULE
ASD07300442
  16   16    0    0    0
SMALL
NO_CHARGES


@<TRIPOS>ATOM
   1 C1            -0.0168     1.3866     0.0097 C.ar    
   2 C2             0.0021    -0.0041     0.0020 C.ar    
   3 C3             1.2283    -0.6623    -0.0133 C.ar    
   4 C4             2.3854     0.1007    -0.0203 C.ar    
   5 C5             2.2859     1.4788    -0.0119 C.ar    
   6 N6             1.1086     2.0738     0.0026 N.ar    
   7 N7            -1.1925    -0.7297     0.0100 N.pl3   
   8 C8             1.2962    -2.1678    -0.0215 C.3     
   9 Cl9           -1.5365     2.2258     0.0214 Cl      
  10 H10            3.3541    -0.3767    -0.0318 H       
  11 H11            3.1849     2.0774    -0.0173 H       
  12 H12           -2.0431    -0.2636     0.0210 H       
  13 H13           -1.1710    -1.6995     0.0046 H       
  14 H14            1.3026    -2.5256    -1.0511 H       
  15 H15            2.2067    -2.4932     0.4818 H       
  16 H16            0.4286    -2.5735     0.4988 H       
@<TRIPOS>BOND
   1    1    2 ar
   2    1    6 ar
   3    1    9 1
   4    2    3 ar
   5    2    7 1
   6    3    4 ar
   7    3    8 1
   8    4    5 ar
   9    4   10 1
  10    5    6 ar
  11    5   11 1
  12    7   12 1
  13    7   13 1
  14    8   14 1
  15    8   15 1
  16    8   16 1

#	End of record

