#	Name: ASD01883693
#	Creating user name:	WinNT
#	Creation time:	15. 06. 2019 19:46

#	Modifying user name:	WinNT
#	Modification time:	15. 06. 2019 19:46

#	Program:	/corina/corina34_cracker 3.40 0067  02.08.2006

@<TRIPOS>MOLECULE
ASD01883693
  46   48    0    0    0
SMALL
NO_CHARGES


@<TRIPOS>ATOM
   1 C1            -0.0169     1.3981     0.0097 C.2     
   2 C2             0.0021    -0.0041     0.0020 C.2     
   3 C3            -1.2220    -0.7047     0.0099 C.2     
   4 C4            -2.3969    -0.0476     0.0242 C.2     
   5 N5            -2.4615     1.3155     0.0316 N.pl3   
   6 C6            -1.3172     2.0715     0.0319 C.2     
   7 C7            -3.5156     2.1915     0.0455 C.2     
   8 C8            -2.9977     3.4380     0.0471 C.2     
   9 N9            -1.6638     3.3460     0.0398 N.2     
  10 C10           -4.9787     1.8306     0.0563 C.3     
  11 C11           -5.5165     1.8382    -1.3761 C.3     
  12 C12            1.2860    -0.7369    -0.0146 C.ar    
  13 C13            1.6514    -1.5332     1.0725 C.ar    
  14 C14            2.8491    -2.2151     1.0538 C.ar    
  15 C15            3.6927    -2.1109    -0.0443 C.ar    
  16 C16            3.3331    -1.3187    -1.1290 C.ar    
  17 C17            2.1337    -0.6390    -1.1204 C.ar    
  18 O18            4.8724    -2.7841    -0.0586 O.3     
  19 C19            5.1797    -3.5790     1.0884 C.3     
  20 F20           -4.8116     0.9049    -2.1438 F       
  21 F21           -6.8747     1.5031    -1.3660 F       
  22 F22           -5.3548     3.1134    -1.9282 F       
  23 Cl23           4.3919    -1.1918    -2.4989 Cl      
  24 C24            6.5373    -4.2563     0.8908 C.3     
  25 C25            6.4855    -5.1500    -0.3500 C.3     
  26 C26            7.6176    -3.1888     0.7057 C.3     
  27 O27            6.8446    -5.0512     2.0378 O.3     
  28 C28            1.2014     2.1506     0.0021 C.1     
  29 N29            2.1679     2.7475    -0.0039 N.1     
  30 H30           -1.2168    -1.7847     0.0041 H       
  31 H31           -3.3153    -0.6159     0.0295 H       
  32 H32           -3.5660     4.3564     0.0565 H       
  33 H33           -5.1047     0.8370     0.4864 H       
  34 H34           -5.5279     2.5578     0.6544 H       
  35 H35            0.9965    -1.6144     1.9274 H       
  36 H36            3.1321    -2.8310     1.8946 H       
  37 H37            1.8544    -0.0241    -1.9632 H       
  38 H38            5.2165    -2.9424     1.9724 H       
  39 H39            4.4100    -4.3395     1.2203 H       
  40 H40            6.2511    -4.5437    -1.2250 H       
  41 H41            7.4527    -5.6325    -0.4909 H       
  42 H42            5.7159    -5.9105    -0.2182 H       
  43 H43            7.6545    -2.5522     1.5897 H       
  44 H44            8.5848    -3.6714     0.5649 H       
  45 H45            7.3832    -2.5825    -0.1692 H       
  46 H46            7.6934    -5.5110     1.9818 H       
@<TRIPOS>BOND
   1    1    2 2
   2    1   28 1
   3    1    6 1
   4    2    3 1
   5    2   12 1
   6    3    4 2
   7    3   30 1
   8    4    5 1
   9    4   31 1
  10    5    6 1
  11    5    7 1
  12    6    9 2
  13    7    8 2
  14    7   10 1
  15    8    9 1
  16    8   32 1
  17   10   11 1
  18   10   33 1
  19   10   34 1
  20   11   20 1
  21   11   21 1
  22   11   22 1
  23   12   13 ar
  24   12   17 ar
  25   13   14 ar
  26   13   35 1
  27   14   15 ar
  28   14   36 1
  29   15   16 ar
  30   15   18 1
  31   16   17 ar
  32   16   23 1
  33   17   37 1
  34   18   19 1
  35   19   24 1
  36   19   38 1
  37   19   39 1
  38   24   25 1
  39   24   26 1
  40   24   27 1
  41   25   40 1
  42   25   41 1
  43   25   42 1
  44   26   43 1
  45   26   44 1
  46   26   45 1
  47   27   46 1
  48   28   29 3

#	End of record

