#	Name: ASD02030428
#	Creating user name:	WinNT
#	Creation time:	15. 06. 2019 20:15

#	Modifying user name:	WinNT
#	Modification time:	15. 06. 2019 20:15

#	Program:	/corina/corina34_cracker 3.40 0067  02.08.2006

@<TRIPOS>MOLECULE
ASD02030428
  28   29    0    0    0
SMALL
NO_CHARGES


@<TRIPOS>ATOM
   1 C1            -0.0102     1.4719     0.0813 C.2     
   2 C2             0.0058    -0.0046     0.0365 C.ar    
   3 C3            -1.1866    -0.7227     0.1491 C.ar    
   4 C4            -1.1644    -2.1011     0.1060 C.ar    
   5 C5             0.0359    -2.7726    -0.0479 C.ar    
   6 C6             1.2209    -2.0674    -0.1595 C.ar    
   7 C7             1.2125    -0.6882    -0.1243 C.ar    
   8 O8             0.8953     2.0729     0.6239 O.2     
   9 O9            -1.0261     2.1519    -0.4846 O.3     
  10 C10            2.5035     0.0784    -0.2527 C.3     
  11 C11            3.3970    -0.1848     0.9721 C.3     
  12 C12            4.6949    -0.8273     0.4408 C.3     
  13 C13            4.7710    -0.3650    -1.0356 C.3     
  14 C14            3.2897    -0.4133    -1.4856 C.3     
  15 H15           -2.1239    -0.2000     0.2699 H       
  16 H16           -2.0859    -2.6577     0.1929 H       
  17 H17            0.0476    -3.8520    -0.0806 H       
  18 H18            2.1542    -2.5976    -0.2786 H       
  19 H19           -0.9928     3.1168    -0.4299 H       
  20 H20            2.2968     1.1450    -0.3418 H       
  21 H21            3.6246     0.7541     1.4769 H       
  22 H22            2.8968    -0.8671     1.6594 H       
  23 H23            5.5572    -0.4633     0.9994 H       
  24 H24            4.6335    -1.9141     0.4975 H       
  25 H25            5.1622     0.6502    -1.1028 H       
  26 H26            5.3765    -1.0533    -1.6252 H       
  27 H27            3.0013    -1.4333    -1.7400 H       
  28 H28            3.1264     0.2528    -2.3328 H       
@<TRIPOS>BOND
   1    1    2 1
   2    1    8 2
   3    1    9 1
   4    2    3 ar
   5    2    7 ar
   6    3    4 ar
   7    3   15 1
   8    4    5 ar
   9    4   16 1
  10    5    6 ar
  11    5   17 1
  12    6    7 ar
  13    6   18 1
  14    7   10 1
  15    9   19 1
  16   10   11 1
  17   10   14 1
  18   10   20 1
  19   11   12 1
  20   11   21 1
  21   11   22 1
  22   12   13 1
  23   12   23 1
  24   12   24 1
  25   13   14 1
  26   13   25 1
  27   13   26 1
  28   14   27 1
  29   14   28 1

#	End of record

