#	Name: ASD01880454
#	Creating user name:	WinNT
#	Creation time:	15. 06. 2019 19:40

#	Modifying user name:	WinNT
#	Modification time:	15. 06. 2019 19:40

#	Program:	/corina/corina34_cracker 3.40 0067  02.08.2006

@<TRIPOS>MOLECULE
ASD01880454
  42   44    0    0    0
SMALL
NO_CHARGES


@<TRIPOS>ATOM
   1 C1             0.1119     1.1108    -1.0608 C.3     
   2 O2            -0.4540     0.1871    -1.9928 O.3     
   3 C3            -1.5670    -0.4832    -1.5980 C.ar    
   4 C4            -2.1671    -1.3959    -2.4566 C.ar    
   5 C5            -3.2967    -2.0777    -2.0601 C.ar    
   6 C6            -3.8384    -1.8506    -0.7925 C.ar    
   7 C7            -3.2315    -0.9323     0.0680 C.ar    
   8 C8            -2.0992    -0.2586    -0.3344 C.ar    
   9 C9            -5.0491    -2.5787    -0.3635 C.2     
  10 C10           -5.0915    -3.9375    -0.4905 C.2     
  11 C11           -6.2357    -4.6338    -0.0860 C.2     
  12 O12           -6.6202    -5.9173    -0.0623 O.3     
  13 N13           -7.7330    -6.0710     0.3866 N.2     
  14 C14           -8.3031    -4.9456     0.7451 C.2     
  15 C15           -7.3161    -3.9043     0.4436 C.2     
  16 C16           -7.2303    -2.5068     0.5566 C.2     
  17 O17           -8.1626    -1.8687     1.0146 O.2     
  18 N18           -6.1040    -1.8766     0.1586 N.am    
  19 C19           -6.0129    -0.4192     0.2763 C.3     
  20 C20           -9.6554    -4.7651     1.3290 C.ar    
  21 C21          -10.7207    -5.5806     0.9380 C.ar    
  22 C22          -11.9623    -5.3786     1.5063 C.ar    
  23 N23          -12.1493    -4.4320     2.4054 N.ar    
  24 C24          -11.1710    -3.6411     2.8018 C.ar    
  25 C25           -9.8969    -3.7788     2.2891 C.ar    
  26 H26            0.9938     1.5765    -1.5007 H       
  27 H27           -0.6225     1.8792    -0.8193 H       
  28 H28            0.3961     0.5812    -0.1515 H       
  29 H29           -1.7478    -1.5708    -3.4363 H       
  30 H30           -3.7630    -2.7864    -2.7284 H       
  31 H31           -3.6472    -0.7539     1.0487 H       
  32 H32           -1.6293     0.4512     0.3303 H       
  33 H33           -4.2472    -4.4715    -0.9009 H       
  34 H34           -7.0151     0.0094     0.2675 H       
  35 H35           -5.5152    -0.1605     1.2109 H       
  36 H36           -5.4406    -0.0221    -0.5621 H       
  37 H37          -10.5748    -6.3572     0.2018 H       
  38 H38          -12.7917    -6.0038     1.2105 H       
  39 H39          -11.3685    -2.8786     3.5407 H       
  40 H40           -9.1004    -3.1280     2.6184 H       
  41 Cl41           5.9938     6.8792     8.5407 Cl      
  42 H42            5.9938     8.2492     8.5407 H       
@<TRIPOS>BOND
   1    1    2 1
   2    1   26 1
   3    1   27 1
   4    1   28 1
   5    2    3 1
   6    3    4 ar
   7    3    8 ar
   8    4    5 ar
   9    4   29 1
  10    5    6 ar
  11    5   30 1
  12    6    7 ar
  13    6    9 1
  14    7    8 ar
  15    7   31 1
  16    8   32 1
  17    9   10 2
  18    9   18 1
  19   10   11 1
  20   10   33 1
  21   11   12 1
  22   11   15 2
  23   12   13 1
  24   13   14 2
  25   14   15 1
  26   14   20 1
  27   15   16 1
  28   16   17 2
  29   16   18 am
  30   18   19 1
  31   19   34 1
  32   19   35 1
  33   19   36 1
  34   20   21 ar
  35   20   25 ar
  36   21   22 ar
  37   21   37 1
  38   22   23 ar
  39   22   38 1
  40   23   24 ar
  41   24   25 ar
  42   24   39 1
  43   25   40 1
  44   41   42 1

#	End of record

