#	Name: ASD01915861
#	Creating user name:	WinNT
#	Creation time:	15. 06. 2019 20:06

#	Modifying user name:	WinNT
#	Modification time:	15. 06. 2019 20:06

#	Program:	/corina/corina34_cracker 3.40 0067  02.08.2006

@<TRIPOS>MOLECULE
ASD01915861
  46   50    0    0    0
SMALL
NO_CHARGES


@<TRIPOS>ATOM
   1 C1            -0.0042     1.4684     0.2346 C.2     
   2 N2             0.0661     0.1190    -0.0301 N.pl3   
   3 C3            -1.1431    -0.6638    -0.3126 C.3     
   4 C4            -2.3281    -0.0486     0.4298 C.3     
   5 N5            -2.4044     1.3988     0.2637 N.am    
   6 C6            -1.2934     2.1742     0.2860 C.2     
   7 C7             1.2764     1.9057     0.4254 C.2     
   8 C8             2.0758     0.7648     0.2733 C.2     
   9 N9             1.2863    -0.2506     0.0108 N.2     
  10 C10            3.5774     0.7129     0.3899 C.3     
  11 O11            4.0778     2.0189     0.6832 O.3     
  12 C12            5.4237     2.1472     0.8213 C.ar    
  13 O13           -1.3589     3.3874     0.3448 O.2     
  14 C14            5.9779     3.3867     1.1063 C.ar    
  15 C15            6.2453     1.0379     0.6830 C.ar    
  16 C16            7.6131     1.1710     0.8237 C.ar    
  17 C17            8.1634     2.4085     1.1022 C.ar    
  18 C18            7.3462     3.5145     1.2461 C.ar    
  19 C19           -3.6531     1.9998     0.0772 C.ar    
  20 C20           -3.9652     2.5931    -1.1314 C.ar    
  21 C21           -5.2340     3.1836    -1.2693 C.ar    
  22 C22           -6.1336     3.1473    -0.1746 C.ar    
  23 N23           -5.7721     2.5583     0.9695 N.ar    
  24 C24           -4.5963     1.9989     1.1116 C.ar    
  25 C25           -5.6228     3.8059    -2.4674 C.ar    
  26 C26           -6.8592     4.3673    -2.5636 C.ar    
  27 C27           -7.7452     4.3332    -1.4884 C.ar    
  28 C28           -7.4020     3.7381    -0.3138 C.ar    
  29 H29           -1.3406    -0.6541    -1.3845 H       
  30 H30           -0.9978    -1.6911     0.0218 H       
  31 H31           -3.2489    -0.4952     0.0548 H       
  32 H32           -2.2353    -0.2768     1.4916 H       
  33 H33            1.6016     2.9119     0.6450 H       
  34 H34            3.8562     0.0285     1.1911 H       
  35 H35            4.0030     0.3635    -0.5509 H       
  36 H36            5.3400     4.2510     1.2185 H       
  37 H37            5.8159     0.0710     0.4658 H       
  38 H38            8.2531     0.3077     0.7165 H       
  39 H39            9.2330     2.5105     1.2119 H       
  40 H40            7.7785     4.4801     1.4633 H       
  41 H41           -3.2556     2.6032    -1.9455 H       
  42 H42           -4.3448     1.5335     2.0531 H       
  43 H43           -4.9444     3.8392    -3.3071 H       
  44 H44           -7.1572     4.8455    -3.4849 H       
  45 H45           -8.7204     4.7862    -1.5893 H       
  46 H46           -8.1010     3.7209     0.5093 H       
@<TRIPOS>BOND
   1    1    2 1
   2    1    7 2
   3    1    6 1
   4    2    3 1
   5    2    9 1
   6    3    4 1
   7    3   29 1
   8    3   30 1
   9    4    5 1
  10    4   31 1
  11    4   32 1
  12    5    6 am
  13    5   19 1
  14    6   13 2
  15    7    8 1
  16    7   33 1
  17    8    9 2
  18    8   10 1
  19   10   11 1
  20   10   34 1
  21   10   35 1
  22   11   12 1
  23   12   14 ar
  24   12   15 ar
  25   14   18 ar
  26   14   36 1
  27   15   16 ar
  28   15   37 1
  29   16   17 ar
  30   16   38 1
  31   17   18 ar
  32   17   39 1
  33   18   40 1
  34   19   20 ar
  35   19   24 ar
  36   20   21 ar
  37   20   41 1
  38   21   22 ar
  39   21   25 ar
  40   22   23 ar
  41   22   28 ar
  42   23   24 ar
  43   24   42 1
  44   25   26 ar
  45   25   43 1
  46   26   27 ar
  47   26   44 1
  48   27   28 ar
  49   27   45 1
  50   28   46 1

#	End of record

