#	Name: ASD02039262
#	Creating user name:	WinNT
#	Creation time:	15. 06. 2019 20:18

#	Modifying user name:	WinNT
#	Modification time:	15. 06. 2019 20:18

#	Program:	/corina/corina34_cracker 3.40 0067  02.08.2006

@<TRIPOS>MOLECULE
ASD02039262
  41   44    0    0    0
SMALL
NO_CHARGES


@<TRIPOS>ATOM
   1 N1            -0.0164     1.3039    -0.0294 N.2     
   2 C2             0.0018    -0.0038    -0.0019 C.2     
   3 C3             1.3717    -0.3807     0.0158 C.2     
   4 C4             2.0345     0.7976    -0.0041 C.2     
   5 O5             1.1027     1.7617    -0.0309 O.3     
   6 N6            -1.0991    -0.8547     0.0084 N.pl3   
   7 C7            -0.9158    -2.2379    -0.1060 C.ar    
   8 C8            -1.7560    -3.1088     0.5753 C.ar    
   9 C9            -1.5748    -4.4730     0.4615 C.ar    
  10 C10           -0.5539    -4.9736    -0.3330 C.ar    
  11 C11            0.2861    -4.1045    -1.0135 C.ar    
  12 C12            0.1027    -2.7400    -0.9054 C.ar    
  13 O13            4.0112     1.0228    -1.3422 O.3     
  14 C14            5.3496     1.1912    -1.5143 C.ar    
  15 C15            6.1800     1.3223    -0.4029 C.ar    
  16 C16            7.5266     1.4923    -0.5533 C.ar    
  17 C17            8.0861     1.5369    -1.8274 C.ar    
  18 C18            7.2557     1.4054    -2.9569 C.ar    
  19 C19            5.8781     1.2257    -2.7877 C.ar    
  20 C20            3.5291     0.9901     0.0026 C.3     
  21 O21           -0.3762    -6.3172    -0.4445 O.3     
  22 N22            9.3667     1.6916    -2.2955 N.pl3   
  23 N23            9.3490     1.6588    -3.6936 N.2     
  24 C24            8.1302     1.4926    -4.1219 C.2     
  25 C25            0.6945    -6.7629    -1.2794 C.3     
  26 F26            0.4916    -6.3010    -2.5843 F       
  27 F27            1.9062    -6.2627    -0.7908 F       
  28 H28            1.7872    -1.3773     0.0396 H       
  29 H29           -1.9936    -0.4895     0.0948 H       
  30 H30           -2.5507    -2.7192     1.1942 H       
  31 H31           -2.2279    -5.1504     0.9916 H       
  32 H32            1.0811    -4.4950    -1.6314 H       
  33 H33            0.7568    -2.0634    -1.4353 H       
  34 H34            5.7536     1.2895     0.5888 H       
  35 H35            8.1582     1.5926     0.3171 H       
  36 H36            5.2329     1.1238    -3.6477 H       
  37 H37            3.7722     1.9297     0.4987 H       
  38 H38            3.9993     0.1648     0.5372 H       
  39 H39           10.1573     1.8053    -1.7451 H       
  40 H40            7.8218     1.4298    -5.1550 H       
  41 H41            0.7251    -7.8525    -1.2803 H       
@<TRIPOS>BOND
   1    1    2 2
   2    1    5 1
   3    2    3 1
   4    2    6 1
   5    3    4 2
   6    3   28 1
   7    4    5 1
   8    4   20 1
   9    6    7 1
  10    6   29 1
  11    7    8 ar
  12    7   12 ar
  13    8    9 ar
  14    8   30 1
  15    9   10 ar
  16    9   31 1
  17   10   11 ar
  18   10   21 1
  19   11   12 ar
  20   11   32 1
  21   12   33 1
  22   13   14 1
  23   13   20 1
  24   14   15 ar
  25   14   19 ar
  26   15   16 ar
  27   15   34 1
  28   16   17 ar
  29   16   35 1
  30   17   18 ar
  31   17   22 1
  32   18   19 ar
  33   18   24 1
  34   19   36 1
  35   20   37 1
  36   20   38 1
  37   21   25 1
  38   22   23 1
  39   22   39 1
  40   23   24 2
  41   24   40 1
  42   25   26 1
  43   25   27 1
  44   25   41 1

#	End of record

