#	Name: ASD09890116
#	Creating user name:	WinNT
#	Creation time:	15. 06. 2019 21:24

#	Modifying user name:	WinNT
#	Modification time:	15. 06. 2019 21:24

#	Program:	/corina/corina34_cracker 3.40 0067  02.08.2006

@<TRIPOS>MOLECULE
ASD09890116
  64   68    0    0    0
SMALL
NO_CHARGES


@<TRIPOS>ATOM
   1 C1            -0.0168     1.3841     0.0097 C.ar    
   2 C2             0.0021    -0.0041     0.0020 C.ar    
   3 C3             1.2280    -0.6629    -0.0133 C.ar    
   4 C4             2.3850     0.0994    -0.0203 C.ar    
   5 C5             2.2851     1.4780    -0.0119 C.ar    
   6 N6             1.1075     2.0717     0.0026 N.ar    
   7 N7            -3.0886    -1.5657     0.6114 N.2     
   8 N8            -2.8231    -2.0274    -0.5581 N.2     
   9 C9            -1.6741    -1.5498    -0.9772 C.2     
  10 N10           -1.1969    -0.7320     0.0101 N.pl3   
  11 C11           -2.1343    -0.7719     1.0079 C.2     
  12 C12           -2.0738    -0.0339     2.3205 C.3     
  13 O13           -1.4158    -0.8470     3.2942 O.3     
  14 C14           -0.9948     0.7373     7.0836 C.ar    
  15 C15           -0.5056    -0.5371     6.8012 C.ar    
  16 C16           -0.6473    -1.0634     5.5346 C.ar    
  17 C17           -1.2772    -0.3256     4.5412 C.ar    
  18 C18           -1.7654     0.9437     4.8195 C.ar    
  19 C19           -1.6262     1.4756     6.0844 C.ar    
  20 C20           -0.8493     1.3039     8.4470 C.ar    
  21 C21           -0.3251     2.5834     8.6203 C.ar    
  22 C22           -0.1919     3.1055     9.8909 C.ar    
  23 C23           -0.5777     2.3613    10.9912 C.ar    
  24 C24           -1.0987     1.0907    10.8251 C.ar    
  25 C25           -1.2417     0.5609     9.5587 C.ar    
  26 S26           -0.4044     3.0340    12.6105 S.o2    
  27 O27           -0.2806     1.8954    13.4516 O.2     
  28 O28            0.6550     3.9732    12.4882 O.2     
  29 C29           -1.9768     3.8847    12.9179 C.3     
  30 C30            0.1783    -1.3385     7.8788 C.3     
  31 S31           -0.8945    -1.8968    -2.5188 S.3     
  32 C32           -2.1126    -3.0246    -3.2402 C.3     
  33 C33           -1.7091    -3.3850    -4.6807 C.3     
  34 C34           -1.5082    -4.9141    -4.7127 C.3     
  35 C35           -2.3612    -5.4341    -3.5289 C.3     
  36 C36           -2.1429    -4.3474    -2.4470 C.3     
  37 H37           -0.9624     1.9058     0.0170 H       
  38 H38            1.2763    -1.7419    -0.0192 H       
  39 H39            3.3537    -0.3780    -0.0318 H       
  40 H40            3.1836     2.0771    -0.0173 H       
  41 H41           -1.5201     0.8958     2.1894 H       
  42 H42           -3.0856     0.1903     2.6583 H       
  43 H43           -0.2685    -2.0507     5.3152 H       
  44 H44           -2.2543     1.5155     4.0446 H       
  45 H45           -2.0058     2.4633     6.3003 H       
  46 H46           -0.0232     3.1652     7.7619 H       
  47 H47            0.2145     4.0969    10.0264 H       
  48 H48           -1.3983     0.5140    11.6876 H       
  49 H49           -1.6530    -0.4294     9.4298 H       
  50 H50           -2.7953     3.1671    12.8609 H       
  51 H51           -1.9578     4.3360    13.9099 H       
  52 H52           -2.1221     4.6620    12.1678 H       
  53 H53           -0.5608    -1.9387     8.4095 H       
  54 H54            0.9223    -1.9944     7.4269 H       
  55 H55            0.6678    -0.6620     8.5793 H       
  56 H56           -3.0995    -2.5618    -3.2336 H       
  57 H57           -2.5005    -3.0978    -5.3731 H       
  58 H58           -0.7797    -2.8807    -4.9454 H       
  59 H59           -1.8705    -5.3269    -5.6542 H       
  60 H60           -0.4577    -5.1641    -4.5646 H       
  61 H61           -3.4130    -5.4953    -3.8083 H       
  62 H62           -1.9950    -6.4012    -3.1844 H       
  63 H63           -1.1948    -4.5058    -1.9331 H       
  64 H64           -2.9683    -4.3466    -1.7352 H       
@<TRIPOS>BOND
   1    1    2 ar
   2    1    6 ar
   3    1   37 1
   4    2    3 ar
   5    2   10 1
   6    3    4 ar
   7    3   38 1
   8    4    5 ar
   9    4   39 1
  10    5    6 ar
  11    5   40 1
  12    7    8 1
  13    7   11 2
  14    8    9 2
  15    9   10 1
  16    9   31 1
  17   10   11 1
  18   11   12 1
  19   12   13 1
  20   12   41 1
  21   12   42 1
  22   13   17 1
  23   14   15 ar
  24   14   19 ar
  25   14   20 1
  26   15   16 ar
  27   15   30 1
  28   16   17 ar
  29   16   43 1
  30   17   18 ar
  31   18   19 ar
  32   18   44 1
  33   19   45 1
  34   20   21 ar
  35   20   25 ar
  36   21   22 ar
  37   21   46 1
  38   22   23 ar
  39   22   47 1
  40   23   24 ar
  41   23   26 1
  42   24   25 ar
  43   24   48 1
  44   25   49 1
  45   26   27 2
  46   26   28 2
  47   26   29 1
  48   29   50 1
  49   29   51 1
  50   29   52 1
  51   30   53 1
  52   30   54 1
  53   30   55 1
  54   31   32 1
  55   32   33 1
  56   32   36 1
  57   32   56 1
  58   33   34 1
  59   33   57 1
  60   33   58 1
  61   34   35 1
  62   34   59 1
  63   34   60 1
  64   35   36 1
  65   35   61 1
  66   35   62 1
  67   36   63 1
  68   36   64 1

#	End of record

