#	Name: ASD01510083
#	Creating user name:	WinNT
#	Creation time:	15. 06. 2019 19:21

#	Modifying user name:	WinNT
#	Modification time:	15. 06. 2019 19:21

#	Program:	/corina/corina34_cracker 3.40 0067  02.08.2006

@<TRIPOS>MOLECULE
ASD01510083
  54   56    0    0    0
SMALL
NO_CHARGES


@<TRIPOS>ATOM
   1 C1            -0.8110    -3.4153     1.4958 C.3     
   2 C2            -0.3502    -2.2142     0.6676 C.3     
   3 C3             0.3520    -2.6999    -0.5742 C.2     
   4 O4             0.4720    -3.8895    -0.7769 O.2     
   5 N5             0.8465    -1.8122    -1.4596 N.am    
   6 C6             1.5872    -2.2562    -2.5493 C.ar    
   7 C7             2.0125    -1.3582    -3.5289 C.ar    
   8 C8             2.7467    -1.8438    -4.5952 C.ar    
   9 N9             3.0230    -3.1373    -4.6557 N.ar    
  10 C10            2.6057    -3.9677    -3.7101 C.ar    
  11 N11            1.9046    -3.5404    -2.6699 N.ar    
  12 S12            2.9991    -5.6806    -3.8360 S.3     
  13 C13            3.9095    -5.6754    -5.3446 C.ar    
  14 C14            5.2914    -5.4856    -5.3448 C.ar    
  15 O15            5.9604    -5.3017    -4.1794 O.3     
  16 C16            7.3744    -5.1143    -4.2657 C.3     
  17 N17            5.9433    -5.4880    -6.5027 N.ar    
  18 C18            5.2977    -5.6674    -7.6449 C.ar    
  19 N19            3.9867    -5.8502    -7.6846 N.ar    
  20 C20            3.2670    -5.8667    -6.5677 C.ar    
  21 O21            1.9248    -6.0550    -6.6173 O.3     
  22 C22            1.3416    -6.2306    -7.9100 C.3     
  23 N23            6.0140    -5.6633    -8.8318 N.3     
  24 C24            5.1263    -5.8766    -9.9834 C.3     
  25 C25            5.9410    -5.7860   -11.2758 C.3     
  26 N26            7.0129    -6.7909   -11.2476 N.3     
  27 C27            7.9006    -6.5775   -10.0960 C.3     
  28 C28            7.0859    -6.6681    -8.8035 C.3     
  29 C29            7.7719    -6.7865   -12.5053 C.3     
  30 H30           -1.4965    -4.0226     0.9048 H       
  31 H31            0.0542    -4.0150     1.7786 H       
  32 H32           -1.3189    -3.0640     2.3940 H       
  33 H33           -1.2154    -1.6145     0.3848 H       
  34 H34            0.3353    -1.6068     1.2586 H       
  35 H35            0.6857    -0.8635    -1.3366 H       
  36 H36            1.7734    -0.3076    -3.4561 H       
  37 H37            3.0907    -1.1753    -5.3705 H       
  38 H38            7.5878    -4.2315    -4.8684 H       
  39 H39            7.7847    -4.9788    -3.2650 H       
  40 H40            7.8293    -5.9895    -4.7295 H       
  41 H41            1.5363    -5.3480    -8.5194 H       
  42 H42            1.7782    -7.1067    -8.3896 H       
  43 H43            0.2656    -6.3710    -7.8072 H       
  44 H44            4.6675    -6.8627    -9.9111 H       
  45 H45            4.3486    -5.1129    -9.9894 H       
  46 H46            5.2900    -5.9727   -12.1299 H       
  47 H47            6.3775    -4.7909   -11.3615 H       
  48 H48            8.6783    -7.3412   -10.0899 H       
  49 H49            8.3594    -5.5914   -10.1683 H       
  50 H50            7.7369    -6.4815    -7.9495 H       
  51 H51            6.6494    -7.6632    -8.7178 H       
  52 H52            8.2181    -5.8036   -12.6570 H       
  53 H53            8.5588    -7.5393   -12.4575 H       
  54 H54            7.1020    -7.0133   -13.3347 H       
@<TRIPOS>BOND
   1    1    2 1
   2    1   30 1
   3    1   31 1
   4    1   32 1
   5    2    3 1
   6    2   33 1
   7    2   34 1
   8    3    4 2
   9    3    5 am
  10    5    6 1
  11    5   35 1
  12    6    7 ar
  13    6   11 ar
  14    7    8 ar
  15    7   36 1
  16    8    9 ar
  17    8   37 1
  18    9   10 ar
  19   10   11 ar
  20   10   12 1
  21   12   13 1
  22   13   14 ar
  23   13   20 ar
  24   14   15 1
  25   14   17 ar
  26   15   16 1
  27   16   38 1
  28   16   39 1
  29   16   40 1
  30   17   18 ar
  31   18   19 ar
  32   18   23 1
  33   19   20 ar
  34   20   21 1
  35   21   22 1
  36   22   41 1
  37   22   42 1
  38   22   43 1
  39   23   24 1
  40   23   28 1
  41   24   25 1
  42   24   44 1
  43   24   45 1
  44   25   26 1
  45   25   46 1
  46   25   47 1
  47   26   27 1
  48   26   29 1
  49   27   28 1
  50   27   48 1
  51   27   49 1
  52   28   50 1
  53   28   51 1
  54   29   52 1
  55   29   53 1
  56   29   54 1

#	End of record

