#	Name: ASD08070174
#	Creating user name:	WinNT
#	Creation time:	15. 06. 2019 21:14

#	Modifying user name:	WinNT
#	Modification time:	15. 06. 2019 21:14

#	Program:	/corina/corina34_cracker 3.40 0067  02.08.2006

@<TRIPOS>MOLECULE
ASD08070174
  38   39    0    0    0
SMALL
NO_CHARGES


@<TRIPOS>ATOM
   1 C1            -0.0167     1.3825     0.0096 C.ar    
   2 C2             0.0021    -0.0041     0.0020 C.ar    
   3 C3            -1.1805    -0.7118     0.0095 C.ar    
   4 C4            -2.3993    -0.0299     0.0248 C.ar    
   5 C5            -2.4125     1.3663     0.0324 C.ar    
   6 C6            -1.2237     2.0643     0.0306 C.ar    
   7 C7            -3.6700    -0.7832     0.0324 C.2     
   8 N8            -4.8448    -0.1229     0.0472 N.am    
   9 O9            -3.6561    -1.9988     0.0253 O.2     
  10 C10           -6.4662    -1.2464     1.4930 C.3     
  11 C11           -6.1050    -0.8699     0.0547 C.3     
  12 C12           -7.3721     1.2698     0.2965 C.3     
  13 C13           -7.2160    -0.0020    -0.5396 C.3     
  14 F14            1.1454     2.0715     0.0022 F       
  15 C15            1.3180    -0.7384    -0.0150 C.3     
  16 F16            1.0825    -2.1174    -0.0201 F       
  17 F17            2.0352    -0.3835    -1.1626 F       
  18 F18            2.0579    -0.3958     1.1219 F       
  19 C19           -6.6222     0.0254     2.3292 C.3     
  20 C20           -7.7332     0.8934     1.7349 C.3     
  21 C21           -6.8549     0.3744    -1.9779 C.3     
  22 H22           -1.1647    -1.7917     0.0032 H       
  23 H23           -3.3522     1.8984     0.0439 H       
  24 H24           -1.2327     3.1442     0.0368 H       
  25 H25           -4.8560     0.8470     0.0528 H       
  26 H26           -7.4038    -1.8022     1.4986 H       
  27 H27           -5.6747    -1.8647     1.9164 H       
  28 H28           -5.9938    -1.7760    -0.5410 H       
  29 H29           -6.4345     1.8256     0.2909 H       
  30 H30           -8.1636     1.8882    -0.1269 H       
  31 H31           -8.1536    -0.5578    -0.5340 H       
  32 H32           -6.8795    -0.2427     3.3539 H       
  33 H33           -5.6846     0.5813     2.3236 H       
  34 H34           -7.8444     1.7994     2.3306 H       
  35 H35           -8.6708     0.3376     1.7405 H       
  36 H36           -5.9173     0.9303    -1.9835 H       
  37 H37           -6.7437    -0.5316    -2.5736 H       
  38 H38           -7.6464     0.9928    -2.4013 H       
@<TRIPOS>BOND
   1    1    2 ar
   2    1   14 1
   3    1    6 ar
   4    2    3 ar
   5    2   15 1
   6    3    4 ar
   7    3   22 1
   8    4    5 ar
   9    4    7 1
  10    5    6 ar
  11    5   23 1
  12    6   24 1
  13    7    8 am
  14    7    9 2
  15    8   11 1
  16    8   25 1
  17   10   11 1
  18   10   19 1
  19   10   26 1
  20   10   27 1
  21   11   13 1
  22   11   28 1
  23   12   13 1
  24   12   20 1
  25   12   29 1
  26   12   30 1
  27   13   21 1
  28   13   31 1
  29   15   16 1
  30   15   17 1
  31   15   18 1
  32   19   20 1
  33   19   32 1
  34   19   33 1
  35   20   34 1
  36   20   35 1
  37   21   36 1
  38   21   37 1
  39   21   38 1

#	End of record

