#	Name: ASD01881071
#	Creating user name:	WinNT
#	Creation time:	15. 06. 2019 19:41

#	Modifying user name:	WinNT
#	Modification time:	15. 06. 2019 19:41

#	Program:	/corina/corina34_cracker 3.40 0067  02.08.2006

@<TRIPOS>MOLECULE
ASD01881071
  34   36    0    0    0
SMALL
NO_CHARGES


@<TRIPOS>ATOM
   1 C1            -0.0169     1.3948     0.0097 C.ar    
   2 C2             0.0021    -0.0041     0.0020 C.ar    
   3 C3             1.2089    -0.6927    -0.0127 C.ar    
   4 C4             2.4031     0.0233    -0.0202 C.ar    
   5 C5             2.3731     1.4387    -0.0128 C.ar    
   6 C6             1.1475     2.1092     0.0024 C.ar    
   7 C7             3.7064    -0.6450    -0.0352 C.2     
   8 C8             4.8264     0.0950    -0.0415 C.2     
   9 N9             4.8009     1.4606    -0.0340 N.am    
  10 C10            3.6489     2.1595    -0.0207 C.2     
  11 C11            6.0707     2.1913    -0.0413 C.3     
  12 C12            6.5001     2.4533    -1.4863 C.3     
  13 C13            7.8262     3.2163    -1.4939 C.3     
  14 O14            3.6678     3.3775    -0.0147 O.2     
  15 Cl15           1.1044     3.8446     0.0110 Cl      
  16 C16           -1.2757    -0.7577     0.0101 C.2     
  17 C17           -1.4158    -2.1598     0.0044 C.2     
  18 N18           -2.6918    -2.4398     0.0153 N.2     
  19 N19           -3.4112    -1.2388     0.0284 N.pl3   
  20 C20           -2.5302    -0.2194     0.0305 C.2     
  21 H21           -0.9629     1.9158     0.0170 H       
  22 H22            1.2205    -1.7727    -0.0179 H       
  23 H23            3.7657    -1.7233    -0.0408 H       
  24 H24            5.7823    -0.4076    -0.0526 H       
  25 H25            5.9463     3.1411     0.4787 H       
  26 H26            6.8340     1.5983     0.4627 H       
  27 H27            6.6244     1.5034    -2.0063 H       
  28 H28            5.7368     3.0462    -1.9903 H       
  29 H29            7.7018     4.1662    -0.9739 H       
  30 H30            8.5894     2.6234    -0.9899 H       
  31 H31            8.1321     3.4030    -2.5233 H       
  32 H32           -0.6090    -2.8778    -0.0073 H       
  33 H33           -4.3775    -1.1550     0.0379 H       
  34 H34           -2.7725     0.8331     0.0398 H       
@<TRIPOS>BOND
   1    1    2 ar
   2    1    6 ar
   3    1   21 1
   4    2    3 ar
   5    2   16 1
   6    3    4 ar
   7    3   22 1
   8    4    5 ar
   9    4    7 1
  10    5    6 ar
  11    5   10 1
  12    6   15 1
  13    7    8 2
  14    7   23 1
  15    8    9 1
  16    8   24 1
  17    9   10 am
  18    9   11 1
  19   10   14 2
  20   11   12 1
  21   11   25 1
  22   11   26 1
  23   12   13 1
  24   12   27 1
  25   12   28 1
  26   13   29 1
  27   13   30 1
  28   13   31 1
  29   16   17 1
  30   16   20 2
  31   17   18 2
  32   17   32 1
  33   18   19 1
  34   19   20 1
  35   19   33 1
  36   20   34 1

#	End of record

