#	Name: ASD07930750
#	Creating user name:	WinNT
#	Creation time:	15. 06. 2019 21:13

#	Modifying user name:	WinNT
#	Modification time:	15. 06. 2019 21:13

#	Program:	/corina/corina34_cracker 3.40 0067  02.08.2006

@<TRIPOS>MOLECULE
ASD07930750
  43   45    0    0    0
SMALL
NO_CHARGES


@<TRIPOS>ATOM
   1 C1            -0.0087     1.4559     0.0047 C.3     
   2 N2             0.8168    -0.4279    -2.1588 N.2     
   3 N3            -0.8713    -1.7905    -1.2900 N.pl3   
   4 C4            -0.8977    -2.8289    -0.2547 C.3     
   5 C5            -1.2112    -2.1830     1.1020 C.3     
   6 S6             0.0275    -0.8867     1.4173 S.o2    
   7 N7             0.0087    -0.0090     0.0010 N.am    
   8 C8             0.0099    -0.7341    -1.1821 C.2     
   9 C9             0.4660    -3.5195    -0.1888 C.3     
  10 O10           -0.4343     0.0221     2.4072 O.2     
  11 O11            1.3343    -1.4416     1.4766 O.2     
  12 C12           -1.9612    -3.8437    -0.5867 C.2     
  13 S13           -3.2970    -4.2060     0.4110 S.3     
  14 C14           -3.8943    -5.3955    -0.7378 C.2     
  15 C15           -3.0465    -5.4477    -1.8090 C.2     
  16 C16           -1.9870    -4.5770    -1.7066 C.2     
  17 Cl17          -0.7658    -4.4470    -2.9336 Cl      
  18 C18           -5.1066    -6.2017    -0.5734 C.2     
  19 O19           -5.7915    -6.0742     0.4245 O.2     
  20 N20           -5.4633    -7.0846    -1.5273 N.am    
  21 C21           -6.5536    -7.9270    -1.3238 C.ar    
  22 N22           -7.1754    -7.9236    -0.1545 N.ar    
  23 C23           -8.2148    -8.7083     0.0795 C.ar    
  24 C24           -8.6898    -9.5671    -0.9017 C.ar    
  25 C25           -8.0630    -9.5967    -2.1375 C.ar    
  26 C26           -6.9816    -8.7583    -2.3517 C.ar    
  27 O27           -8.8226    -8.6731     1.2920 O.3     
  28 H28            1.0146     1.8314    -0.0005 H       
  29 H29           -0.5321     1.8153    -0.8813 H       
  30 H30           -0.5215     1.8109     0.8986 H       
  31 H31            0.8041    -0.9457    -2.9789 H       
  32 H32           -1.4695    -1.8483    -2.0514 H       
  33 H33           -2.2074    -1.7411     1.0772 H       
  34 H34           -1.1625    -2.9367     1.8879 H       
  35 H35            1.2339    -2.7849     0.0533 H       
  36 H36            0.4457    -4.2911     0.5808 H       
  37 H37            0.6898    -3.9745    -1.1537 H       
  38 H38           -3.1961    -6.1042    -2.6534 H       
  39 H39           -4.9606    -7.1333    -2.3554 H       
  40 H40           -9.5382   -10.2056    -0.7044 H       
  41 H41           -8.4131   -10.2560    -2.9180 H       
  42 H42           -6.4715    -8.7569    -3.3037 H       
  43 H43           -9.5421    -8.0299     1.3528 H       
@<TRIPOS>BOND
   1    1    7 1
   2    1   28 1
   3    1   29 1
   4    1   30 1
   5    2    8 2
   6    2   31 1
   7    3    4 1
   8    3    8 1
   9    3   32 1
  10    4    5 1
  11    4    9 1
  12    4   12 1
  13    5    6 1
  14    5   33 1
  15    5   34 1
  16    6    7 am
  17    6   10 2
  18    6   11 2
  19    7    8 1
  20    9   35 1
  21    9   36 1
  22    9   37 1
  23   12   13 1
  24   12   16 2
  25   13   14 1
  26   14   15 2
  27   14   18 1
  28   15   16 1
  29   15   38 1
  30   16   17 1
  31   18   19 2
  32   18   20 am
  33   20   21 1
  34   20   39 1
  35   21   22 ar
  36   21   26 ar
  37   22   23 ar
  38   23   24 ar
  39   23   27 1
  40   24   25 ar
  41   24   40 1
  42   25   26 ar
  43   25   41 1
  44   26   42 1
  45   27   43 1

#	End of record

