#	Name: ASD01910145
#	Creating user name:	WinNT
#	Creation time:	15. 06. 2019 19:55

#	Modifying user name:	WinNT
#	Modification time:	15. 06. 2019 19:55

#	Program:	/corina/corina34_cracker 3.40 0067  02.08.2006

@<TRIPOS>MOLECULE
ASD01910145
  38   40    0    0    0
SMALL
NO_CHARGES


@<TRIPOS>ATOM
   1 C1             0.0768     1.1950    -0.4303 C.ar    
   2 C2             0.0624    -0.1025     0.0508 C.ar    
   3 C3             1.2252    -0.6860     0.5225 C.ar    
   4 C4             2.4081     0.0230     0.5166 C.ar    
   5 C5             2.4306     1.3340     0.0323 C.ar    
   6 C6             1.2521     1.9164    -0.4429 C.ar    
   7 C7             3.6548     2.0769     0.0234 C.1     
   8 C8             4.6584     2.6860     0.0161 C.1     
   9 C9             5.8826     3.4289     0.0072 C.ar    
  10 N10            5.8912     4.6767    -0.4567 N.ar    
  11 C11            6.9926     5.3943    -0.4826 C.ar    
  12 C12            8.1989     4.8626    -0.0197 C.ar    
  13 C13            8.2223     3.5501     0.4753 C.ar    
  14 C14            7.0542     2.8364     0.4914 C.ar    
  15 C15            9.4333     5.6715    -0.0516 C.2     
  16 O16            9.4262     6.8086     0.3788 O.2     
  17 N17           10.5681     5.1495    -0.5576 N.am    
  18 C18           10.6229     3.7498    -1.0083 C.3     
  19 C19           11.2154     3.7199    -2.4218 C.3     
  20 O20           12.4514     4.4382    -2.4295 O.3     
  21 C21           12.3245     5.8249    -2.1059 C.3     
  22 C22           11.7872     5.9643    -0.6815 C.3     
  23 H23           -0.8337     1.6423    -0.8010 H       
  24 H24           -0.8611    -0.6624     0.0585 H       
  25 H25            1.2063    -1.6990     0.8964 H       
  26 H26            3.3147    -0.4334     0.8857 H       
  27 H27            1.2619     2.9288    -0.8190 H       
  28 H28            6.9646     6.4037    -0.8655 H       
  29 H29            9.1408     3.1137     0.8391 H       
  30 H30            7.0387     1.8237     0.8662 H       
  31 H31           11.2539     3.1713    -0.3335 H       
  32 H32            9.6175     3.3291    -1.0227 H       
  33 H33           11.3929     2.6867    -2.7204 H       
  34 H34           10.5189     4.1864    -3.1185 H       
  35 H35           13.2998     6.3062    -2.1772 H       
  36 H36           11.6320     6.2991    -2.8014 H       
  37 H37           11.5544     7.0094    -0.4775 H       
  38 H38           12.5336     5.6086     0.0288 H       
@<TRIPOS>BOND
   1    1    2 ar
   2    1    6 ar
   3    1   23 1
   4    2    3 ar
   5    2   24 1
   6    3    4 ar
   7    3   25 1
   8    4    5 ar
   9    4   26 1
  10    5    6 ar
  11    5    7 1
  12    6   27 1
  13    7    8 3
  14    8    9 1
  15    9   10 ar
  16    9   14 ar
  17   10   11 ar
  18   11   12 ar
  19   11   28 1
  20   12   13 ar
  21   12   15 1
  22   13   14 ar
  23   13   29 1
  24   14   30 1
  25   15   16 2
  26   15   17 am
  27   17   18 1
  28   17   22 1
  29   18   19 1
  30   18   31 1
  31   18   32 1
  32   19   20 1
  33   19   33 1
  34   19   34 1
  35   20   21 1
  36   21   22 1
  37   21   35 1
  38   21   36 1
  39   22   37 1
  40   22   38 1

#	End of record

