#	Name: ASD07300312
#	Creating user name:	WinNT
#	Creation time:	15. 06. 2019 21:09

#	Modifying user name:	WinNT
#	Modification time:	15. 06. 2019 21:09

#	Program:	/corina/corina34_cracker 3.40 0067  02.08.2006

@<TRIPOS>MOLECULE
ASD07300312
  48   52    0    0    0
SMALL
NO_CHARGES


@<TRIPOS>ATOM
   1 C1            -0.0310     1.3856     0.1264 C.ar    
   2 C2            -0.0140    -0.0112     0.1880 C.ar    
   3 C3             1.2008    -0.6789     0.1435 C.ar    
   4 C4             2.3606     0.0752     0.0386 C.ar    
   5 C5             2.2696     1.4532    -0.0176 C.ar    
   6 N6             1.1009     2.0630     0.0274 N.ar    
   7 C7            -2.1248     0.6636     0.2947 C.2     
   8 N8            -1.3651     1.7703     0.1957 N.am    
   9 N9            -1.3377    -0.4292     0.2878 N.am    
  10 O10           -3.3389     0.6520     0.3744 O.2     
  11 C11            3.7062    -0.6014    -0.0130 C.3     
  12 C12           -1.8399     3.0901     0.1673 C.ar    
  13 C13           -3.2034     3.3394     0.2446 C.ar    
  14 C14           -3.6703     4.6386     0.2171 C.ar    
  15 C15           -2.7768     5.6949     0.1122 C.ar    
  16 C16           -1.4139     5.4462     0.0344 C.ar    
  17 C17           -0.9459     4.1476     0.0676 C.ar    
  18 O18           -3.2368     6.9739     0.0851 O.3     
  19 C19           -6.7023     6.7649    -0.2208 C.2     
  20 C20           -7.9895     6.2190    -0.3921 C.2     
  21 C21           -9.0707     7.0454    -0.3845 C.2     
  22 C22           -8.8891     8.4264    -0.2067 C.2     
  23 C23           -7.6490     8.9345    -0.0437 C.2     
  24 N24           -6.5569     8.1168    -0.0494 N.pl3   
  25 N25           -5.4963     6.2127    -0.1911 N.2     
  26 C26           -4.5802     7.1675    -0.0000 C.2     
  27 C27           -5.2157     8.3622     0.0905 C.2     
  28 C28           -1.7954    -1.8179     0.3781 C.3     
  29 C29           -1.8666    -2.2369     1.8479 C.3     
  30 H30            1.2428    -1.7571     0.1896 H       
  31 H31            3.1718     2.0413    -0.0989 H       
  32 H32            3.9680    -0.8108    -1.0501 H       
  33 H33            4.4589     0.0529     0.4268 H       
  34 H34            3.6648    -1.5356     0.5471 H       
  35 H35           -3.8990     2.5172     0.3260 H       
  36 H36           -4.7310     4.8325     0.2769 H       
  37 H37           -0.7188     6.2687    -0.0476 H       
  38 H38            0.1152     3.9543     0.0116 H       
  39 H39           -8.1171     5.1553    -0.5284 H       
  40 H40          -10.0636     6.6411    -0.5151 H       
  41 H41           -9.7451     9.0850    -0.2006 H       
  42 H42           -7.5202     9.9981     0.0923 H       
  43 H43           -4.7521     9.3257     0.2424 H       
  44 H44           -2.7839    -1.9047    -0.0727 H       
  45 H45           -1.0966    -2.4659    -0.1509 H       
  46 H46           -2.5654    -1.5889     2.3770 H       
  47 H47           -2.2071    -3.2701     1.9151 H       
  48 H48           -0.8780    -2.1501     2.2988 H       
@<TRIPOS>BOND
   1    1    2 ar
   2    1    6 ar
   3    1    8 1
   4    2    3 ar
   5    2    9 1
   6    3    4 ar
   7    3   30 1
   8    4    5 ar
   9    4   11 1
  10    5    6 ar
  11    5   31 1
  12    7    8 am
  13    7    9 am
  14    7   10 2
  15    8   12 1
  16    9   28 1
  17   11   32 1
  18   11   33 1
  19   11   34 1
  20   12   13 ar
  21   12   17 ar
  22   13   14 ar
  23   13   35 1
  24   14   15 ar
  25   14   36 1
  26   15   16 ar
  27   15   18 1
  28   16   17 ar
  29   16   37 1
  30   17   38 1
  31   18   26 1
  32   19   20 1
  33   19   24 1
  34   19   25 2
  35   20   21 2
  36   20   39 1
  37   21   22 1
  38   21   40 1
  39   22   23 2
  40   22   41 1
  41   23   24 1
  42   23   42 1
  43   24   27 1
  44   25   26 1
  45   26   27 2
  46   27   43 1
  47   28   29 1
  48   28   44 1
  49   28   45 1
  50   29   46 1
  51   29   47 1
  52   29   48 1

#	End of record

