#	Name: ASD00840776
#	Creating user name:	WinNT
#	Creation time:	15. 06. 2019 18:40

#	Modifying user name:	WinNT
#	Modification time:	15. 06. 2019 18:40

#	Program:	/corina/corina34_cracker 3.40 0067  02.08.2006

@<TRIPOS>MOLECULE
ASD00840776
  97  102    0    0    0
SMALL
NO_CHARGES


@<TRIPOS>ATOM
   1 F1             6.0053    -1.9496    -2.0954 F       
   2 N2             0.9792     1.4230    -0.8141 N.ar    
   3 C3             1.2549     0.1325    -0.9018 C.ar    
   4 C4             1.1978    -0.6815     0.2224 C.ar    
   5 C5             0.8477    -0.1245     1.4398 C.ar    
   6 C6             0.5658     1.2339     1.4898 C.ar    
   7 C7             0.6425     1.9826     0.3326 C.ar    
   8 C8             1.5123    -2.1516     0.1175 C.3     
   9 C9             1.2553    -2.8445     1.4387 C.2     
  10 C10            0.6851    -2.7971    -0.9961 C.3     
  11 C11           -0.7765    -2.5110    -0.7665 C.2     
  12 N12           -1.7044    -3.0449    -1.5852 N.am    
  13 O13           -1.1178    -1.8002     0.1550 O.2     
  14 C14           -3.1218    -2.6833    -1.4470 C.3     
  15 C15           -3.9468    -3.9665    -1.3081 C.3     
  16 C16           -3.6465    -4.8917    -2.4896 C.3     
  17 C17           -2.1631    -5.2679    -2.4810 C.3     
  18 C18           -1.3171    -3.9951    -2.6368 C.3     
  19 C19           -4.4946    -6.1597    -2.3725 C.3     
  20 C20           -5.9793    -5.7851    -2.3827 C.3     
  21 C21           -6.8227    -7.0609    -2.3267 C.3     
  22 N22           -6.5057    -7.9098    -3.4822 N.3     
  23 C23           -5.0961    -8.3211    -3.4682 C.3     
  24 C24           -4.2011    -7.0830    -3.5582 C.3     
  25 C25           -7.3945    -9.0782    -3.5367 C.3     
  26 O26            0.1914    -2.9233     2.0158 O.2     
  27 N27            2.4269    -3.3566     1.8515 N.am    
  28 C28            2.9891    -2.3610    -0.1267 C.ar    
  29 C29            3.4647    -3.0906     0.9557 C.ar    
  30 C30            3.8323    -1.9789    -1.1456 C.ar    
  31 C31            5.1740    -2.3228    -1.0979 C.ar    
  32 C32            5.6599    -3.0504    -0.0234 C.ar    
  33 C33            4.8141    -3.4336     0.9985 C.ar    
  34 Cl34           7.3402    -3.4822     0.0382 Cl      
  35 C35            2.3409    -5.9044     2.8887 C.ar    
  36 C36            1.0866    -6.3287     2.4756 C.ar    
  37 C37            3.3740    -6.8148     3.0024 C.ar    
  38 C38            3.1585    -8.1474     2.7046 C.ar    
  39 C39            1.9089    -8.5729     2.2926 C.ar    
  40 C40            0.8727    -7.6669     2.1777 C.ar    
  41 H41            1.7430    -9.6146     2.0605 H       
  42 O42            0.0687    -5.4353     2.3634 O.3     
  43 C43           -1.1957    -5.9431     1.9326 C.3     
  44 C44           -2.2092    -4.7989     1.8667 C.3     
  45 C45           -7.2069    -9.7999    -4.8726 C.3     
  46 C46           -8.1325   -11.0168    -4.9293 C.3     
  47 S47            2.6185    -4.2047     3.2609 S.o2    
  48 O48            3.9899    -4.0902     3.6149 O.2     
  49 O49            1.5585    -3.8033     4.1180 O.2     
  50 O50            1.5964    -0.4015    -2.1014 O.3     
  51 C51            2.0588    -0.2756    -4.4701 C.3     
  52 C52            1.5286     0.4613    -3.2386 C.3     
  53 H53            0.7947    -0.7328     2.3306 H       
  54 H54            0.2891     1.6999     2.4240 H       
  55 H55            0.4245     3.0399     0.3662 H       
  56 H56            0.9889    -2.3865    -1.9590 H       
  57 H57            0.8493    -3.8747    -0.9926 H       
  58 H58           -3.2562    -2.0646    -0.5597 H       
  59 H59           -3.4465    -2.1339    -2.3307 H       
  60 H60           -3.6844    -4.4687    -0.3769 H       
  61 H61           -5.0080    -3.7178    -1.3013 H       
  62 H62           -3.8859    -4.3798    -3.4217 H       
  63 H63           -1.9175    -5.7578    -1.5388 H       
  64 H64           -1.9548    -5.9454    -3.3090 H       
  65 H65           -1.4960    -3.5553    -3.6180 H       
  66 H66           -0.2609    -4.2433    -2.5324 H       
  67 H67           -4.2550    -6.6735    -1.4415 H       
  68 H68           -6.2034    -5.1624    -1.5166 H       
  69 H69           -6.2098    -5.2362    -3.2957 H       
  70 H70           -6.6017    -7.6023    -1.4068 H       
  71 H71           -7.8803    -6.7983    -2.3482 H       
  72 H72           -4.8832    -8.8566    -2.5429 H       
  73 H73           -4.8997    -8.9738    -4.3188 H       
  74 H74           -4.4037    -6.5545    -4.4898 H       
  75 H75           -3.1549    -7.3876    -3.5320 H       
  76 H76           -7.1520    -9.7575    -2.7195 H       
  77 H77           -8.4301    -8.7516    -3.4425 H       
  78 H78            3.4487    -1.4122    -1.9811 H       
  79 H79            5.1997    -4.0006     1.8329 H       
  80 H80            4.3509    -6.4849     3.3240 H       
  81 H81            3.9675    -8.8573     2.7935 H       
  82 H82           -0.1032    -7.9998     1.8566 H       
  83 H83           -1.0896    -6.3919     0.9449 H       
  84 H84           -1.5441    -6.6969     2.6387 H       
  85 H85           -2.3153    -4.3501     2.8544 H       
  86 H86           -1.8608    -4.0451     1.1606 H       
  87 H87           -3.1736    -5.1862     1.5381 H       
  88 H88           -7.4493    -9.1205    -5.6898 H       
  89 H89           -6.1712   -10.1265    -4.9668 H       
  90 H90           -7.8901   -11.6961    -4.1122 H       
  91 H91           -9.1682   -10.6902    -4.8351 H       
  92 H92           -7.9989   -11.5309    -5.8811 H       
  93 H93            3.0632    -0.6470    -4.2669 H       
  94 H94            1.4018    -1.1136    -4.7030 H       
  95 H95            2.0891     0.4088    -5.3179 H       
  96 H96            0.4934     0.7564    -3.4095 H       
  97 H97            2.1345     1.3491    -3.0576 H       
@<TRIPOS>BOND
   1    1   31 1
   2    2    3 ar
   3    2    7 ar
   4    3    4 ar
   5    3   50 1
   6    4    5 ar
   7    4    8 1
   8    5    6 ar
   9    5   53 1
  10    6    7 ar
  11    6   54 1
  12    7   55 1
  13    8    9 1
  14    8   10 1
  15    8   28 1
  16    9   26 2
  17    9   27 am
  18   10   11 1
  19   10   56 1
  20   10   57 1
  21   11   12 am
  22   11   13 2
  23   12   14 1
  24   12   18 1
  25   14   15 1
  26   14   58 1
  27   14   59 1
  28   15   16 1
  29   15   60 1
  30   15   61 1
  31   16   17 1
  32   16   19 1
  33   16   62 1
  34   17   18 1
  35   17   63 1
  36   17   64 1
  37   18   65 1
  38   18   66 1
  39   19   20 1
  40   19   24 1
  41   19   67 1
  42   20   21 1
  43   20   68 1
  44   20   69 1
  45   21   22 1
  46   21   70 1
  47   21   71 1
  48   22   23 1
  49   22   25 1
  50   23   24 1
  51   23   72 1
  52   23   73 1
  53   24   74 1
  54   24   75 1
  55   25   45 1
  56   25   76 1
  57   25   77 1
  58   27   47 am
  59   27   29 1
  60   28   29 ar
  61   28   30 ar
  62   29   33 ar
  63   30   31 ar
  64   30   78 1
  65   31   32 ar
  66   32   33 ar
  67   32   34 1
  68   33   79 1
  69   35   36 ar
  70   35   37 ar
  71   35   47 1
  72   36   42 1
  73   36   40 ar
  74   37   38 ar
  75   37   80 1
  76   38   39 ar
  77   38   81 1
  78   39   40 ar
  79   39   41 1
  80   40   82 1
  81   42   43 1
  82   43   44 1
  83   43   83 1
  84   43   84 1
  85   44   85 1
  86   44   86 1
  87   44   87 1
  88   45   46 1
  89   45   88 1
  90   45   89 1
  91   46   90 1
  92   46   91 1
  93   46   92 1
  94   47   48 2
  95   47   49 2
  96   50   52 1
  97   51   52 1
  98   51   93 1
  99   51   94 1
 100   51   95 1
 101   52   96 1
 102   52   97 1

#	End of record

