#	Name: ASD01885619
#	Creating user name:	WinNT
#	Creation time:	15. 06. 2019 19:49

#	Modifying user name:	WinNT
#	Modification time:	15. 06. 2019 19:49

#	Program:	/corina/corina34_cracker 3.40 0067  02.08.2006

@<TRIPOS>MOLECULE
ASD01885619
  51   55    0    0    0
SMALL
NO_CHARGES


@<TRIPOS>ATOM
   1 C1            -0.1442     1.6334    -0.1581 C.ar    
   2 C2            -1.0236     1.9577    -1.1883 C.ar    
   3 N3            -2.2106     1.3900    -1.2626 N.ar    
   4 C4            -2.6133     0.4969    -0.3711 C.ar    
   5 C5            -1.7895     0.1222     0.6875 C.ar    
   6 C6            -0.5357     0.6881     0.7989 C.ar    
   7 C7             1.1890     2.2744    -0.0788 C.2     
   8 N8            -3.8738    -0.0729    -0.4934 N.3     
   9 C9             1.4950     3.1594     0.9837 C.2     
  10 C10            2.7070     3.7409     1.0537 C.2     
  11 N11            3.6588     3.4902     0.1076 N.pl3   
  12 C12            3.4019     2.6379    -0.9391 C.2     
  13 C13            2.1486     2.0103    -1.0382 C.2     
  14 C14            4.9371     3.9243    -0.0720 C.2     
  15 N15            5.3964     3.3586    -1.1581 N.2     
  16 N16            4.4996     2.5970    -1.6789 N.2     
  17 C17            5.6858     4.8825     0.8182 C.3     
  18 C18            6.4259     4.0981     1.9034 C.3     
  19 C19            7.3434     4.8843     2.8420 C.3     
  20 C20            6.0100     4.3377     3.3562 C.3     
  21 C21           -4.5781     0.4547    -1.6689 C.3     
  22 C22           -5.8977    -0.2977    -1.8549 C.3     
  23 C23           -6.7590    -0.1254    -0.6008 C.3     
  24 C24           -5.9835    -0.6381     0.6159 C.3     
  25 C25           -4.6614     0.1242     0.7302 C.3     
  26 C26            1.8508     1.0728    -2.1799 C.3     
  27 F27            1.1545     1.7613    -3.1791 F       
  28 F28            3.0508     0.5794    -2.7032 F       
  29 F29            1.0708     0.0076    -1.7173 F       
  30 H30           -0.7300     2.6822    -1.9335 H       
  31 H31           -2.1262    -0.6063     1.4103 H       
  32 H32            0.1239     0.4160     1.6096 H       
  33 H33            0.7532     3.3688     1.7402 H       
  34 H34            2.9291     4.4144     1.8683 H       
  35 H35            6.4045     5.4455     0.2228 H       
  36 H36            4.9813     5.5714     1.2843 H       
  37 H37            6.7333     3.0894     1.6275 H       
  38 H38            8.2542     4.3928     3.1838 H       
  39 H39            7.4197     5.9604     2.6863 H       
  40 H40            5.2092     5.0543     3.5388 H       
  41 H41            6.0437     3.4866     4.0363 H       
  42 H42           -4.7822     1.5156    -1.5242 H       
  43 H43           -3.9565     0.3222    -2.5545 H       
  44 H44           -6.4275     0.1047    -2.7184 H       
  45 H45           -5.6936    -1.3566    -2.0136 H       
  46 H46           -6.9958     0.9297    -0.4637 H       
  47 H47           -7.6815    -0.6953    -0.7113 H       
  48 H48           -6.5745    -0.4788     1.5177 H       
  49 H49           -5.7807    -1.7023     0.4961 H       
  50 H50           -4.1003    -0.2484     1.5873 H       
  51 H51           -4.8651     1.1867     0.8638 H       
@<TRIPOS>BOND
   1    1    2 ar
   2    1    7 1
   3    1    6 ar
   4    2    3 ar
   5    2   30 1
   6    3    4 ar
   7    4    5 ar
   8    4    8 1
   9    5    6 ar
  10    5   31 1
  11    6   32 1
  12    7    9 1
  13    7   13 2
  14    8   21 1
  15    8   25 1
  16    9   10 2
  17    9   33 1
  18   10   11 1
  19   10   34 1
  20   11   12 1
  21   11   14 1
  22   12   13 1
  23   12   16 2
  24   13   26 1
  25   14   15 2
  26   14   17 1
  27   15   16 1
  28   17   18 1
  29   17   35 1
  30   17   36 1
  31   18   19 1
  32   18   20 1
  33   18   37 1
  34   19   20 1
  35   19   38 1
  36   19   39 1
  37   20   40 1
  38   20   41 1
  39   21   22 1
  40   21   42 1
  41   21   43 1
  42   22   23 1
  43   22   44 1
  44   22   45 1
  45   23   24 1
  46   23   46 1
  47   23   47 1
  48   24   25 1
  49   24   48 1
  50   24   49 1
  51   25   50 1
  52   25   51 1
  53   26   27 1
  54   26   28 1
  55   26   29 1

#	End of record

