#	Name: ASD01028698
#	Creating user name:	WinNT
#	Creation time:	15. 06. 2019 18:58

#	Modifying user name:	WinNT
#	Modification time:	15. 06. 2019 18:58

#	Program:	/corina/corina34_cracker 3.40 0067  02.08.2006

@<TRIPOS>MOLECULE
ASD01028698
  40   44    0    0    0
SMALL
NO_CHARGES


@<TRIPOS>ATOM
   1 N1            -0.0157     1.3066     0.0092 N.ar    
   2 C2             0.0021    -0.0041     0.0020 C.ar    
   3 C3             1.1967    -0.7211    -0.0128 C.ar    
   4 C4             2.3902    -0.0572    -0.0206 C.ar    
   5 C5             2.3672     1.3504    -0.0132 C.ar    
   6 C6             3.5535     2.1011    -0.0200 C.ar    
   7 C7             3.4892     3.4613    -0.0122 C.ar    
   8 C8             2.2611     4.1187     0.0030 C.ar    
   9 C9             1.0917     3.4224     0.0100 C.ar    
  10 C10            1.1167     2.0170     0.0022 C.ar    
  11 C11            4.7634     4.2659    -0.0195 C.3     
  12 C12            6.3379     5.2958    -3.2812 C.ar    
  13 C13            6.3566     5.2926    -1.8747 C.ar    
  14 C14            7.3928     5.9391    -1.1993 C.ar    
  15 C15            8.3778     6.5686    -1.9611 C.ar    
  16 C16            8.2887     6.5273    -3.3560 C.ar    
  17 N17            7.2976     5.9090    -3.9595 N.ar    
  18 O18            5.2446     4.6029    -3.6591 O.3     
  19 N19            4.5540     4.1503    -2.5124 N.2     
  20 C20            5.1751     4.5418    -1.4427 C.2     
  21 S21            9.8040     7.4434     0.4359 S.3     
  22 N22           11.2295     8.3461     0.2551 N.2     
  23 C23           11.4414     8.4938    -1.0191 C.2     
  24 C24           10.5464     7.9378    -1.9002 C.2     
  25 C25            9.5011     7.2708    -1.3019 C.2     
  26 C26           12.6409     9.2578    -1.5177 C.3     
  27 F27            4.5538     5.4772     0.6484 F       
  28 F28            5.7736     3.5456     0.6270 F       
  29 H29           -0.9341    -0.5425     0.0081 H       
  30 H30            1.1789    -1.8009    -0.0177 H       
  31 H31            3.3255    -0.5970    -0.0317 H       
  32 H32            4.5116     1.6027    -0.0311 H       
  33 H33            2.2365     5.1984     0.0097 H       
  34 H34            0.1481     3.9476     0.0221 H       
  35 H35            7.4309     5.9520    -0.1200 H       
  36 H36            9.0490     7.0132    -3.9495 H       
  37 H37           10.6537     8.0172    -2.9719 H       
  38 H38           13.4792     8.5734    -1.6476 H       
  39 H39           12.4024     9.7256    -2.4728 H       
  40 H40           12.9087    10.0269    -0.7932 H       
@<TRIPOS>BOND
   1    1    2 ar
   2    1   10 ar
   3    2    3 ar
   4    2   29 1
   5    3    4 ar
   6    3   30 1
   7    4    5 ar
   8    4   31 1
   9    5    6 ar
  10    5   10 ar
  11    6    7 ar
  12    6   32 1
  13    7    8 ar
  14    7   11 1
  15    8    9 ar
  16    8   33 1
  17    9   10 ar
  18    9   34 1
  19   11   20 1
  20   11   27 1
  21   11   28 1
  22   12   13 ar
  23   12   17 ar
  24   12   18 1
  25   13   14 ar
  26   13   20 1
  27   14   15 ar
  28   14   35 1
  29   15   16 ar
  30   15   25 1
  31   16   17 ar
  32   16   36 1
  33   18   19 1
  34   19   20 2
  35   21   22 1
  36   21   25 1
  37   22   23 2
  38   23   24 1
  39   23   26 1
  40   24   25 2
  41   24   37 1
  42   26   38 1
  43   26   39 1
  44   26   40 1

#	End of record

