#	Name: ASD01150541
#	Creating user name:	WinNT
#	Creation time:	15. 06. 2019 19:04

#	Modifying user name:	WinNT
#	Modification time:	15. 06. 2019 19:04

#	Program:	/corina/corina34_cracker 3.40 0067  02.08.2006

@<TRIPOS>MOLECULE
ASD01150541
  52   54    0    0    0
SMALL
NO_CHARGES


@<TRIPOS>ATOM
   1 C1             1.9144     1.4015     0.9688 C.ar    
   2 C2             1.9596     0.0213     0.9430 C.ar    
   3 C3             0.4927     0.0046    -0.9573 C.ar    
   4 C4             0.4446     1.3911    -0.9341 C.ar    
   5 C5             1.1564     2.0910     0.0299 C.ar    
   6 N6             1.1106     3.4892     0.0568 N.am    
   7 C7            -0.0779     4.1147    -0.0077 C.2     
   8 N8            -0.1589     5.4581     0.0162 N.am    
   9 C9             0.9637     6.2013     0.1061 C.2     
  10 C10            2.2668     5.5231     0.1771 C.2     
  11 N11            2.3024     4.2168     0.1564 N.2     
  12 O12            0.8988     7.4163     0.1279 O.2     
  13 C13           -1.4669     6.1139    -0.0561 C.3     
  14 O14           -1.0968     3.4557    -0.0895 O.2     
  15 C15           -2.0174     6.3109     1.3578 C.3     
  16 O16            3.4152     6.2432     0.2677 O.3     
  17 C17            4.6387     5.5077     0.3322 C.3     
  18 C18            1.2519    -0.6785    -0.0157 C.ar    
  19 C19           -3.3629     6.9855     1.2835 C.ar    
  20 C20           -4.5129     6.2234     1.1909 C.ar    
  21 C21           -5.7475     6.8394     1.1226 C.ar    
  22 C22           -5.8329     8.2239     1.1471 C.ar    
  23 C23           -4.6776     8.9863     1.2401 C.ar    
  24 C24           -3.4458     8.3654     1.3138 C.ar    
  25 O25           -7.0463     8.8322     1.0797 O.3     
  26 C26           -7.0583    10.2609     1.1100 C.3     
  27 N27           -0.2232    -0.7049    -1.9279 N.am    
  28 C28            0.2667    -1.8622    -2.4148 C.2     
  29 C29           -0.5545    -2.6831    -3.3755 C.3     
  30 O30            1.3685    -2.2429    -2.0799 O.2     
  31 H31            2.4650     1.9454     1.7220 H       
  32 H32            2.5496    -0.5122     1.6735 H       
  33 H33           -0.1452     1.9245    -1.6648 H       
  34 H34           -1.3609     7.0833    -0.5430 H       
  35 H35           -2.1539     5.4921    -0.6301 H       
  36 H36           -2.1234     5.3415     1.8448 H       
  37 H37           -1.3304     6.9327     1.9319 H       
  38 H38            5.4764     6.2015     0.4020 H       
  39 H39            4.6282     4.8613     1.2098 H       
  40 H40            4.7447     4.8993    -0.5659 H       
  41 H41            1.2893    -1.7577    -0.0331 H       
  42 H42           -4.4458     5.1457     1.1715 H       
  43 H43           -6.6454     6.2437     1.0499 H       
  44 H44           -4.7415    10.0642     1.2594 H       
  45 H45           -2.5461     8.9584     1.3862 H       
  46 H46           -6.6077    10.6084     2.0397 H       
  47 H47           -6.4896    10.6470     0.2641 H       
  48 H48           -8.0867    10.6169     1.0494 H       
  49 H49           -1.0721    -0.3638    -2.2503 H       
  50 H50           -1.5071    -2.1853    -3.5565 H       
  51 H51           -0.0149    -2.7885    -4.3166 H       
  52 H52           -0.7354    -3.6694    -2.9480 H       
@<TRIPOS>BOND
   1    1    2 ar
   2    1    5 ar
   3    1   31 1
   4    2   18 ar
   5    2   32 1
   6    3    4 ar
   7    3   27 1
   8    3   18 ar
   9    4    5 ar
  10    4   33 1
  11    5    6 1
  12    6    7 am
  13    6   11 1
  14    7    8 am
  15    7   14 2
  16    8    9 am
  17    8   13 1
  18    9   10 1
  19    9   12 2
  20   10   11 2
  21   10   16 1
  22   13   15 1
  23   13   34 1
  24   13   35 1
  25   15   19 1
  26   15   36 1
  27   15   37 1
  28   16   17 1
  29   17   38 1
  30   17   39 1
  31   17   40 1
  32   18   41 1
  33   19   20 ar
  34   19   24 ar
  35   20   21 ar
  36   20   42 1
  37   21   22 ar
  38   21   43 1
  39   22   23 ar
  40   22   25 1
  41   23   24 ar
  42   23   44 1
  43   24   45 1
  44   25   26 1
  45   26   46 1
  46   26   47 1
  47   26   48 1
  48   27   28 am
  49   27   49 1
  50   28   29 1
  51   28   30 2
  52   29   50 1
  53   29   51 1
  54   29   52 1

#	End of record

