#	Name: ASD02030566
#	Creating user name:	WinNT
#	Creation time:	15. 06. 2019 20:15

#	Modifying user name:	WinNT
#	Modification time:	15. 06. 2019 20:15

#	Program:	/corina/corina34_cracker 3.40 0067  02.08.2006

@<TRIPOS>MOLECULE
ASD02030566
  42   44    0    0    0
SMALL
NO_CHARGES


@<TRIPOS>ATOM
   1 C1            -0.0184     1.5020     0.0103 C.3     
   2 C2             1.1262    -0.7144    -0.3622 C.ar    
   3 C3             2.4023    -0.0225    -0.7679 C.3     
   4 C4             2.1174     1.4413    -1.1055 C.3     
   5 N5             1.3480     2.0341     0.0001 N.3     
   6 C6            -1.1497    -0.6820     0.3726 C.ar    
   7 C7            -1.1769    -2.0623     0.3756 C.ar    
   8 C8            -0.0505    -2.7739     0.0078 C.ar    
   9 C9             1.0976    -2.1005    -0.3597 C.ar    
  10 C10            0.0021    -0.0041     0.0020 C.ar    
  11 C11            1.3416     3.4234    -0.0853 C.ar    
  12 C12            2.0246     4.0806    -1.1115 C.ar    
  13 C13            1.9965     5.4566    -1.1646 C.ar    
  14 N14            1.3349     6.1576    -0.2615 N.ar    
  15 C15            0.6738     5.5748     0.7281 C.ar    
  16 C16            0.6502     4.1917     0.8459 C.ar    
  17 C17            2.7314     6.1725    -2.2685 C.3     
  18 N18           -0.0073     6.3561     1.6547 N.pl3   
  19 C19           -0.7405     5.7195     2.7516 C.3     
  20 C20           -1.3950     6.7958     3.6200 C.3     
  21 O21           -2.3843     7.4881     2.8556 O.3     
  22 H22           -0.5332     1.8499     0.9058 H       
  23 H23           -0.5502     1.8594    -0.8715 H       
  24 H24            3.1175    -0.0720     0.0531 H       
  25 H25            2.8218    -0.5205    -1.6420 H       
  26 H26            3.0578     1.9788    -1.2268 H       
  27 H27            1.5379     1.4986    -2.0269 H       
  28 H28           -2.0304    -0.1270     0.6600 H       
  29 H29           -2.0764    -2.5851     0.6653 H       
  30 H30           -0.0683    -3.8537     0.0075 H       
  31 H31            1.9778    -2.6564    -0.6469 H       
  32 H32            2.5687     3.5163    -1.8544 H       
  33 H33            0.1064     3.7194     1.6507 H       
  34 H34            2.0659     6.3052    -3.1215 H       
  35 H35            3.0632     7.1474    -1.9114 H       
  36 H36            3.5966     5.5827    -2.5710 H       
  37 H37            0.0029     7.3228     1.5748 H       
  38 H38           -1.5102     5.0650     2.3426 H       
  39 H39           -0.0501     5.1335     3.3583 H       
  40 H40           -1.8656     6.3284     4.4849 H       
  41 H41           -0.6361     7.5021     3.9567 H       
  42 H42           -2.8412     8.1865     3.3441 H       
@<TRIPOS>BOND
   1    1   10 1
   2    1    5 1
   3    1   22 1
   4    1   23 1
   5    2    3 1
   6    2   10 ar
   7    2    9 ar
   8    3    4 1
   9    3   24 1
  10    3   25 1
  11    4    5 1
  12    4   26 1
  13    4   27 1
  14    5   11 1
  15    6    7 ar
  16    6   10 ar
  17    6   28 1
  18    7    8 ar
  19    7   29 1
  20    8    9 ar
  21    8   30 1
  22    9   31 1
  23   11   12 ar
  24   11   16 ar
  25   12   13 ar
  26   12   32 1
  27   13   14 ar
  28   13   17 1
  29   14   15 ar
  30   15   16 ar
  31   15   18 1
  32   16   33 1
  33   17   34 1
  34   17   35 1
  35   17   36 1
  36   18   19 1
  37   18   37 1
  38   19   20 1
  39   19   38 1
  40   19   39 1
  41   20   21 1
  42   20   40 1
  43   20   41 1
  44   21   42 1

#	End of record

