#	Name: ASD02390003
#	Creating user name:	WinNT
#	Creation time:	15. 06. 2019 20:20

#	Modifying user name:	WinNT
#	Modification time:	15. 06. 2019 20:20

#	Program:	/corina/corina34_cracker 3.40 0067  02.08.2006

@<TRIPOS>MOLECULE
ASD02390003
  36   38    0    0    0
SMALL
NO_CHARGES


@<TRIPOS>ATOM
   1 C1            -0.0165     1.3641     0.0095 C.2     
   2 C2             0.0021    -0.0041     0.0020 C.2     
   3 C3            -1.3234    -0.5969     0.0118 C.2     
   4 C4            -2.2937     0.3238     0.0266 C.2     
   5 S5            -1.6169     1.9440     0.0353 S.3     
   6 C6             1.2359    -0.7920    -0.0148 C.2     
   7 O7             1.7926    -1.1483    -1.1906 O.3     
   8 O8             1.7589    -1.1253     1.0317 O.2     
   9 C9             3.0154    -1.9291    -1.1312 C.3     
  10 N10            1.1116     2.1667     0.0031 N.am    
  11 C11            0.9841     3.5084     0.0115 C.2     
  12 O12           -0.1226     4.0145     0.0248 O.2     
  13 C13            2.1785     4.3582     0.0047 C.2     
  14 C14            2.1920     5.7240     0.0119 C.2     
  15 C15            3.5401     6.1143     0.0011 C.2     
  16 C16            4.2812     4.9844    -0.0121 C.2     
  17 O17            3.4574     3.9283    -0.0040 O.3     
  18 C18           -1.5869    -2.0943     0.0056 C.3     
  19 C19           -3.0317    -2.3422     0.4448 C.3     
  20 C20           -3.9680    -1.4559    -0.3821 C.3     
  21 C21           -3.7762     0.0033     0.0401 C.3     
  22 H22            3.7828    -1.3628    -0.6035 H       
  23 H23            2.8248    -2.8630    -0.6025 H       
  24 H24            3.3565    -2.1475    -2.1432 H       
  25 H25            1.9937     1.7634    -0.0075 H       
  26 H26            1.3318     6.3771     0.0233 H       
  27 H27            3.9147     7.1273     0.0024 H       
  28 H28            5.3603     4.9401    -0.0229 H       
  29 H29           -1.4381    -2.4873    -1.0001 H       
  30 H30           -0.9048    -2.5882     0.6977 H       
  31 H31           -3.2864    -3.3899     0.2847 H       
  32 H32           -3.1382    -2.0980     1.5017 H       
  33 H33           -3.7313    -1.5634    -1.4407 H       
  34 H34           -5.0017    -1.7535    -0.2062 H       
  35 H35           -4.1724     0.1480     1.0452 H       
  36 H36           -4.2978     0.6575    -0.6584 H       
@<TRIPOS>BOND
   1    1    2 2
   2    1   10 1
   3    1    5 1
   4    2    3 1
   5    2    6 1
   6    3    4 2
   7    3   18 1
   8    4    5 1
   9    4   21 1
  10    6    7 1
  11    6    8 2
  12    7    9 1
  13    9   22 1
  14    9   23 1
  15    9   24 1
  16   10   11 am
  17   10   25 1
  18   11   12 2
  19   11   13 1
  20   13   14 2
  21   13   17 1
  22   14   15 1
  23   14   26 1
  24   15   16 2
  25   15   27 1
  26   16   17 1
  27   16   28 1
  28   18   19 1
  29   18   29 1
  30   18   30 1
  31   19   20 1
  32   19   31 1
  33   19   32 1
  34   20   21 1
  35   20   33 1
  36   20   34 1
  37   21   35 1
  38   21   36 1

#	End of record

