#	Name: ASD03320228
#	Creating user name:	WinNT
#	Creation time:	15. 06. 2019 20:36

#	Modifying user name:	WinNT
#	Modification time:	15. 06. 2019 20:36

#	Program:	/corina/corina34_cracker 3.40 0067  02.08.2006

@<TRIPOS>MOLECULE
ASD03320228
  37   39    0    0    0
SMALL
NO_CHARGES


@<TRIPOS>ATOM
   1 C1            -0.0160     1.3256     0.0093 C.ar    
   2 N2             0.0021    -0.0041     0.0020 N.ar    
   3 C3             1.1425    -0.6704    -0.0125 C.ar    
   4 N4             2.3140    -0.0730    -0.0200 N.ar    
   5 C5             1.2101     2.0087     0.0013 C.ar    
   6 C6             1.6103     3.4180     0.0046 C.2     
   7 C7             2.3993     1.2570    -0.0137 C.ar    
   8 N8             3.4324     2.1473    -0.0184 N.pl3   
   9 N9             2.9253     3.4510    -0.0080 N.2     
  10 N10           -1.2120     2.0174     0.0188 N.pl3   
  11 C11            4.8539     1.7930    -0.0333 C.3     
  12 C12            5.5117     2.3762    -1.2855 C.3     
  13 C13            5.5346     2.3628     1.2128 C.3     
  14 C14            0.7328     4.5496     0.0185 C.1     
  15 C15            0.0135     5.4773     0.0298 C.1     
  16 C16           -0.8640     6.6089     0.0437 C.ar    
  17 C17           -2.5689     8.7962     0.0705 C.ar    
  18 C18           -3.0909     7.5153     0.0748 C.ar    
  19 C19           -2.2494     6.4226     0.0615 C.ar    
  20 C20           -0.3392     7.9032     0.0453 C.ar    
  21 C21           -1.1943     8.9918     0.0587 C.ar    
  22 O22           -0.6880    10.2531     0.0540 O.3     
  23 H23            1.1116    -1.7500    -0.0180 H       
  24 H24           -2.0524     1.5331     0.0202 H       
  25 H25           -1.2111     2.9874     0.0241 H       
  26 H26            4.9578     0.7080    -0.0401 H       
  27 H27            5.4077     3.4612    -1.2788 H       
  28 H28            6.5693     2.1126    -1.2967 H       
  29 H29            5.0267     1.9703    -2.1733 H       
  30 H30            5.0660     1.9473     2.1049 H       
  31 H31            6.5922     2.0992     1.2017 H       
  32 H32            5.4307     3.4478     1.2196 H       
  33 H33           -3.2332     9.6476     0.0805 H       
  34 H34           -4.1611     7.3703     0.0844 H       
  35 H35           -2.6604     5.4239     0.0646 H       
  36 H36            0.7302     8.0542     0.0364 H       
  37 H37           -0.5339    10.6183     0.9360 H       
@<TRIPOS>BOND
   1    1    2 ar
   2    1    5 ar
   3    1   10 1
   4    2    3 ar
   5    3    4 ar
   6    3   23 1
   7    4    7 ar
   8    5    7 ar
   9    5    6 1
  10    6    9 2
  11    6   14 1
  12    7    8 1
  13    8    9 1
  14    8   11 1
  15   10   24 1
  16   10   25 1
  17   11   12 1
  18   11   13 1
  19   11   26 1
  20   12   27 1
  21   12   28 1
  22   12   29 1
  23   13   30 1
  24   13   31 1
  25   13   32 1
  26   14   15 3
  27   15   16 1
  28   16   20 ar
  29   16   19 ar
  30   17   18 ar
  31   17   21 ar
  32   17   33 1
  33   18   19 ar
  34   18   34 1
  35   19   35 1
  36   20   21 ar
  37   20   36 1
  38   21   22 1
  39   22   37 1

#	End of record

