#	Name: ASD08830048
#	Creating user name:	WinNT
#	Creation time:	15. 06. 2019 21:19

#	Modifying user name:	WinNT
#	Modification time:	15. 06. 2019 21:19

#	Program:	/corina/corina34_cracker 3.40 0067  02.08.2006

@<TRIPOS>MOLECULE
ASD08830048
  53   56    0    0    0
SMALL
NO_CHARGES


@<TRIPOS>ATOM
   1 C1            -0.0172     1.4144     0.0098 C.ar    
   2 C2             0.0021    -0.0041     0.0020 C.ar    
   3 C3             1.1959     2.1287     0.0021 C.ar    
   4 C4             2.3769     1.4621    -0.0133 C.ar    
   5 C5             2.4108     0.0535    -0.0217 C.ar    
   6 C6             1.2315    -0.6786    -0.0139 C.ar    
   7 C7             3.7045    -0.6459    -0.0393 C.2     
   8 C8             4.9879     0.1439    -0.0483 C.3     
   9 C9             6.1781    -0.8173    -0.0663 C.3     
  10 N10            7.4292    -0.0475    -0.0751 N.3     
  11 O11            3.7384    -1.8581    -0.0465 O.2     
  12 C12            8.5899    -0.9248     0.1463 C.3     
  13 C13           -1.2511     2.0843     0.0194 C.ar    
  14 C14           -1.2141    -0.7105     0.0099 C.ar    
  15 C15           -2.3907    -0.0259     0.0249 C.ar    
  16 C16           -2.4091     1.3672     0.0210 C.ar    
  17 C17            9.8567    -0.1582    -0.2342 C.3     
  18 C18            9.8664     1.1888     0.4426 C.ar    
  19 C19            8.7217     1.7351     0.9826 C.ar    
  20 C20            7.3984     1.0167     0.9331 C.3     
  21 C21           11.0658     1.8822     0.5145 C.ar    
  22 C22           11.1214     3.1226     1.1242 C.ar    
  23 C23            9.9653     3.6761     1.6670 C.ar    
  24 C24            8.7723     2.9801     1.5937 C.ar    
  25 O25           12.2997     3.7982     1.1925 O.3     
  26 C26           13.4437     3.1676     0.6132 C.3     
  27 C27            8.7831     5.3995     2.8021 C.3     
  28 O28           10.0089     4.8953     2.2680 O.3     
  29 H29            1.1860     3.2087     0.0080 H       
  30 H30            3.3029     2.0179    -0.0195 H       
  31 H31            1.2604    -1.7581    -0.0203 H       
  32 H32            5.0187     0.7770    -0.9350 H       
  33 H33            5.0375     0.7668     0.8448 H       
  34 H34            6.1473    -1.4504     0.8205 H       
  35 H35            6.1285    -1.4403    -0.9594 H       
  36 H36            8.6370    -1.2117     1.1968 H       
  37 H37            8.4998    -1.8152    -0.4759 H       
  38 H38           -1.2819     3.1638     0.0257 H       
  39 H39           -1.2146    -1.7904     0.0038 H       
  40 H40           -3.3233    -0.5705     0.0306 H       
  41 H41           -3.3559     1.8865     0.0335 H       
  42 H42           10.7319    -0.7271     0.0797 H       
  43 H43            9.8853    -0.0202    -1.3150 H       
  44 H44            6.6119     1.7282     0.6820 H       
  45 H45            7.1894     0.5801     1.9098 H       
  46 H46           11.9614     1.4509     0.0924 H       
  47 H47            7.8745     3.4084     2.0142 H       
  48 H48           13.2655     2.9962    -0.4484 H       
  49 H49           14.3147     3.8113     0.7361 H       
  50 H50           13.6235     2.2142     1.1100 H       
  51 H51            8.9575     6.3769     3.2519 H       
  52 H52            8.0494     5.4937     2.0015 H       
  53 H53            8.4073     4.7125     3.5604 H       
@<TRIPOS>BOND
   1    1    2 ar
   2    1    3 ar
   3    1   13 ar
   4    2   14 ar
   5    2    6 ar
   6    3    4 ar
   7    3   29 1
   8    4    5 ar
   9    4   30 1
  10    5    6 ar
  11    5    7 1
  12    6   31 1
  13    7    8 1
  14    7   11 2
  15    8    9 1
  16    8   32 1
  17    8   33 1
  18    9   10 1
  19    9   34 1
  20    9   35 1
  21   10   12 1
  22   10   20 1
  23   12   17 1
  24   12   36 1
  25   12   37 1
  26   13   16 ar
  27   13   38 1
  28   14   15 ar
  29   14   39 1
  30   15   16 ar
  31   15   40 1
  32   16   41 1
  33   17   18 1
  34   17   42 1
  35   17   43 1
  36   18   19 ar
  37   18   21 ar
  38   19   20 1
  39   19   24 ar
  40   20   44 1
  41   20   45 1
  42   21   22 ar
  43   21   46 1
  44   22   23 ar
  45   22   25 1
  46   23   24 ar
  47   23   28 1
  48   24   47 1
  49   25   26 1
  50   26   48 1
  51   26   49 1
  52   26   50 1
  53   27   28 1
  54   27   51 1
  55   27   52 1
  56   27   53 1

#	End of record

