#	Name: ASD05430301
#	Creating user name:	WinNT
#	Creation time:	15. 06. 2019 21:00

#	Modifying user name:	WinNT
#	Modification time:	15. 06. 2019 21:00

#	Program:	/corina/corina34_cracker 3.40 0067  02.08.2006

@<TRIPOS>MOLECULE
ASD05430301
  68   74    0    0    0
SMALL
NO_CHARGES


@<TRIPOS>ATOM
   1 C1            -0.0132     1.4283    -0.1747 C.ar    
   2 C2            -0.0230     0.1877    -0.8158 C.ar    
   3 C3             1.1588    -0.3617    -1.2886 C.ar    
   4 C4             2.3587     0.3053    -1.1343 C.ar    
   5 C5             2.3960     1.5457    -0.4977 C.ar    
   6 C6             1.1977     2.1140    -0.0129 C.ar    
   7 C7             4.8163     0.0546     0.0802 C.3     
   8 C8             4.8097     1.5589    -0.1410 C.2     
   9 C9             3.6716     2.2549    -0.3324 C.2     
  10 C10            5.8143    -0.2613     1.2010 C.3     
  11 C11            7.2484     0.1609     0.8604 C.3     
  12 N12            7.2456     1.5549     0.4251 N.pl3   
  13 C13            6.1405     2.2047    -0.1307 C.2     
  14 C14            8.3201     2.5481     0.4807 C.3     
  15 O15            7.8788     3.5634    -0.4448 O.3     
  16 N16            6.4824     3.3549    -0.6073 N.2     
  17 C17            8.4488     3.1153     1.8709 C.ar    
  18 C18            9.6449     1.9367     0.0204 C.3     
  19 N19           -1.2300    -0.5036    -0.9810 N.pl3   
  20 C20           -1.7053    -1.0463    -2.1469 C.2     
  21 C21           -2.8914    -1.6146    -1.8574 C.2     
  22 N22           -3.1383    -1.4271    -0.5524 N.2     
  23 C23           -2.1480    -0.7681    -0.0152 C.2     
  24 C24           -3.7869    -2.3359    -2.8315 C.3     
  25 C25            8.0736     2.3571     2.9642 C.ar    
  26 C26            8.1916     2.8774     4.2394 C.ar    
  27 C27            8.6852     4.1557     4.4214 C.ar    
  28 C28            9.0612     4.9136     3.3282 C.ar    
  29 C29            8.9473     4.3916     2.0532 C.ar    
  30 O30           10.6953     2.8900     0.1944 O.3     
  31 C31            5.3528     0.2372     2.5717 C.3     
  32 S32            6.1946    -1.1632     3.3604 S.o2    
  33 C33            5.7177    -1.7058     1.6961 C.3     
  34 O34            7.5948    -0.9596     3.4918 O.2     
  35 O35            5.4138    -1.7698     4.3810 O.2     
  36 C36            0.8809     3.3601     0.6838 C.2     
  37 N37           -0.4005     3.3731     0.8945 N.2     
  38 O38           -0.9797     2.1948     0.3706 O.3     
  39 S39            8.8387     4.8374     6.0911 Du      
  40 F40           10.3086     5.3872     5.7316 F       
  41 F41            8.9751     5.4438     7.5763 F       
  42 F42            7.3688     4.2876     6.4506 F       
  43 F43            8.1961     6.2238     5.5841 F       
  44 F44            9.4812     3.4510     6.5981 F       
  45 H45            1.1412    -1.3218    -1.7828 H       
  46 H46            3.2712    -0.1356    -1.5076 H       
  47 H47            3.8199    -0.2787     0.3705 H       
  48 H48            5.1210    -0.4504    -0.8364 H       
  49 H49            3.6975     3.3341    -0.3644 H       
  50 H50            7.8786     0.0561     1.7436 H       
  51 H51            7.6336    -0.4702     0.0595 H       
  52 H52            9.8598     1.0472     0.6126 H       
  53 H53            9.5728     1.6637    -1.0324 H       
  54 H54           -1.2215    -1.0227    -3.1121 H       
  55 H55           -2.0741    -0.4758     1.0219 H       
  56 H56           -3.5262    -3.3941    -2.8497 H       
  57 H57           -4.8259    -2.2229    -2.5221 H       
  58 H58           -3.6563    -1.9123    -3.8273 H       
  59 H59            7.6880     1.3583     2.8220 H       
  60 H60            7.8979     2.2853     5.0935 H       
  61 H61            9.4466     5.9124     3.4703 H       
  62 H62            9.2411     4.9837     1.1991 H       
  63 H63           11.5662     2.5696    -0.0776 H       
  64 H64            5.7807     1.2023     2.8429 H       
  65 H65            4.2701     0.2109     2.6949 H       
  66 H66            4.7056    -2.1078     1.6501 H       
  67 H67            6.4510    -2.3670     1.2344 H       
  68 H68            1.5836     4.1284     0.9707 H       
@<TRIPOS>BOND
   1    1    2 ar
   2    1    6 ar
   3    1   38 1
   4    2    3 ar
   5    2   19 1
   6    3    4 ar
   7    3   45 1
   8    4    5 ar
   9    4   46 1
  10    5    6 ar
  11    5    9 1
  12    6   36 1
  13    7    8 1
  14    7   10 1
  15    7   47 1
  16    7   48 1
  17    8    9 2
  18    8   13 1
  19    9   49 1
  20   10   11 1
  21   10   31 1
  22   10   33 1
  23   11   12 1
  24   11   50 1
  25   11   51 1
  26   12   13 1
  27   12   14 1
  28   13   16 2
  29   14   15 1
  30   14   17 1
  31   14   18 1
  32   15   16 1
  33   17   25 ar
  34   17   29 ar
  35   18   30 1
  36   18   52 1
  37   18   53 1
  38   19   20 1
  39   19   23 1
  40   20   21 2
  41   20   54 1
  42   21   22 1
  43   21   24 1
  44   22   23 2
  45   23   55 1
  46   24   56 1
  47   24   57 1
  48   24   58 1
  49   25   26 ar
  50   25   59 1
  51   26   27 ar
  52   26   60 1
  53   27   28 ar
  54   27   39 1
  55   28   29 ar
  56   28   61 1
  57   29   62 1
  58   30   63 1
  59   31   32 1
  60   31   64 1
  61   31   65 1
  62   32   33 1
  63   32   34 2
  64   32   35 2
  65   33   66 1
  66   33   67 1
  67   36   37 2
  68   36   68 1
  69   37   38 1
  70   39   40 1
  71   39   41 1
  72   39   42 1
  73   39   43 1
  74   39   44 1

#	End of record

