#	Name: ASD01910999
#	Creating user name:	WinNT
#	Creation time:	15. 06. 2019 19:56

#	Modifying user name:	WinNT
#	Modification time:	15. 06. 2019 19:56

#	Program:	/corina/corina34_cracker 3.40 0067  02.08.2006

@<TRIPOS>MOLECULE
ASD01910999
  55   58    0    0    0
SMALL
NO_CHARGES


@<TRIPOS>ATOM
   1 N1            -4.4817    -3.3056     1.1933 N.3     
   2 C2            -3.1103    -2.8183     1.3931 C.3     
   3 C3            -2.4410    -2.6132     0.0299 C.3     
   4 N4            -3.2989    -1.7396    -0.7851 N.am    
   5 C5            -4.7212    -2.0896    -0.9188 C.3     
   6 C6            -5.3007    -2.3153     0.4817 C.3     
   7 C7            -2.7951    -0.6472    -1.3928 C.2     
   8 C8            -3.6402     0.1429    -2.3101 C.ar    
   9 C9            -3.5699     1.5395    -2.2974 C.ar    
  10 C10           -4.3563     2.2821    -3.1512 C.ar    
  11 C11           -5.2244     1.6500    -4.0298 C.ar    
  12 C12           -5.3041     0.2477    -4.0514 C.ar    
  13 C13           -4.5043    -0.5034    -3.1929 C.ar    
  14 C14           -6.1994    -0.4074    -4.9568 C.1     
  15 O15           -1.6448    -0.3125    -1.1858 O.2     
  16 C16           -6.9335    -0.9445    -5.6991 C.1     
  17 C17           -7.8288    -1.5996    -6.6045 C.ar    
  18 N18           -7.8986    -2.9274    -6.6189 N.ar    
  19 C19           -8.7095    -3.5666    -7.4369 C.ar    
  20 C20           -9.5223    -2.8751    -8.3161 C.ar    
  21 C21           -9.4821    -1.4870    -8.3352 C.ar    
  22 C22           -8.6274    -0.8387    -7.4629 C.ar    
  23 C23           -5.0667    -3.6583     2.4046 C.ar    
  24 O24           -5.9962     2.3860    -4.8674 O.3     
  25 N25           -4.8052    -2.9483     3.4908 N.ar    
  26 C26           -5.3395    -3.2490     4.6596 C.ar    
  27 C27           -6.1962    -4.3229     4.7916 C.ar    
  28 C28           -6.4972    -5.0943     3.6765 C.ar    
  29 C29           -5.9268    -4.7517     2.4632 C.ar    
  30 C30           -5.8640     3.8068    -4.7912 C.3     
  31 C31           -6.8062     4.4617    -5.8032 C.3     
  32 Cl32          -6.2682    -5.6803     1.0367 Cl      
  33 H33           -3.1358    -1.8712     1.9320 H       
  34 H34           -2.5446    -3.5502     1.9696 H       
  35 H35           -1.4665    -2.1445     0.1673 H       
  36 H36           -2.3207    -3.5756    -0.4674 H       
  37 H37           -5.2542    -1.2747    -1.4087 H       
  38 H38           -4.8200    -3.0017    -1.5074 H       
  39 H39           -6.3235    -2.6824     0.3972 H       
  40 H40           -5.2957    -1.3752     1.0333 H       
  41 H41           -2.8969     2.0381    -1.6155 H       
  42 H42           -4.2970     3.3604    -3.1362 H       
  43 H43           -4.5606    -1.5819    -3.2044 H       
  44 H44           -8.7396    -4.6460    -7.4209 H       
  45 H45          -10.1827    -3.4099    -8.9827 H       
  46 H46          -10.1081    -0.9261    -9.0134 H       
  47 H47           -8.5714     0.2398    -7.4510 H       
  48 H48           -5.1027    -2.6470     5.5244 H       
  49 H49           -6.6281    -4.5612     5.7523 H       
  50 H50           -7.1648    -5.9397     3.7538 H       
  51 H51           -6.1203     4.1422    -3.7862 H       
  52 H52           -4.8355     4.0887    -5.0170 H       
  53 H53           -6.5499     4.1264    -6.8082 H       
  54 H54           -7.8346     4.1799    -5.5773 H       
  55 H55           -6.7054     5.5455    -5.7450 H       
@<TRIPOS>BOND
   1    1    2 1
   2    1   23 1
   3    1    6 1
   4    2    3 1
   5    2   33 1
   6    2   34 1
   7    3    4 1
   8    3   35 1
   9    3   36 1
  10    4    5 1
  11    4    7 am
  12    5    6 1
  13    5   37 1
  14    5   38 1
  15    6   39 1
  16    6   40 1
  17    7    8 1
  18    7   15 2
  19    8    9 ar
  20    8   13 ar
  21    9   10 ar
  22    9   41 1
  23   10   11 ar
  24   10   42 1
  25   11   12 ar
  26   11   24 1
  27   12   13 ar
  28   12   14 1
  29   13   43 1
  30   14   16 3
  31   16   17 1
  32   17   18 ar
  33   17   22 ar
  34   18   19 ar
  35   19   20 ar
  36   19   44 1
  37   20   21 ar
  38   20   45 1
  39   21   22 ar
  40   21   46 1
  41   22   47 1
  42   23   25 ar
  43   23   29 ar
  44   24   30 1
  45   25   26 ar
  46   26   27 ar
  47   26   48 1
  48   27   28 ar
  49   27   49 1
  50   28   29 ar
  51   28   50 1
  52   29   32 1
  53   30   31 1
  54   30   51 1
  55   30   52 1
  56   31   53 1
  57   31   54 1
  58   31   55 1

#	End of record

