#	Name: ASD01885728
#	Creating user name:	WinNT
#	Creation time:	15. 06. 2019 19:50

#	Modifying user name:	WinNT
#	Modification time:	15. 06. 2019 19:50

#	Program:	/corina/corina34_cracker 3.40 0067  02.08.2006

@<TRIPOS>MOLECULE
ASD01885728
  51   52    0    0    0
SMALL
NO_CHARGES


@<TRIPOS>ATOM
   1 C1            -0.0160     1.3291     0.0093 C.ar    
   2 C2            -1.2522     2.0239     0.0189 C.ar    
   3 C3            -2.4598     1.2808     0.0210 C.ar    
   4 C4            -2.3703    -0.1044     0.0135 C.ar    
   5 C5            -1.1104    -0.7137     0.0043 C.ar    
   6 N6             0.0021    -0.0041     0.0020 N.ar    
   7 C7             1.1365     3.4282     0.0092 C.ar    
   8 C8            -0.0805     4.1063     0.0248 C.ar    
   9 C9            -1.2606     3.4245     0.0266 C.ar    
  10 C10           -3.7750     1.9611     0.0313 C.ar    
  11 C11           -1.0235    -2.1940    -0.0038 C.2     
  12 C12            2.4228     4.2133     0.0076 C.3     
  13 C13            1.1823     2.0683     0.0019 C.ar    
  14 N14            0.1812    -2.7982    -0.0132 N.am    
  15 O15           -2.0383    -2.8621    -0.0018 O.2     
  16 C16           -4.7577     1.5985    -0.8903 C.ar    
  17 C17           -5.9812     2.2347    -0.8763 C.ar    
  18 C18           -6.2354     3.2328     0.0512 C.ar    
  19 C19           -5.2623     3.5968     0.9685 C.ar    
  20 C20           -4.0376     2.9626     0.9663 C.ar    
  21 F21           -7.4355     3.8531     0.0609 F       
  22 N22            2.8509     4.4547     1.3920 N.3     
  23 O23            4.1573     5.1121     1.4297 O.3     
  24 C24            5.1640     4.3656     2.1163 C.3     
  25 C25            1.8464     5.2371     2.1247 C.3     
  26 H26           -3.2662    -0.7075     0.0151 H       
  27 H27           -0.0888     5.1862     0.0355 H       
  28 H28           -2.1976     3.9615     0.0335 H       
  29 H29            3.1928     3.6481    -0.5175 H       
  30 H30            2.2656     5.1673    -0.4957 H       
  31 H31            2.1340     1.5579    -0.0092 H       
  32 H32            0.9913    -2.2648    -0.0147 H       
  33 H33            0.2380    -3.7665    -0.0184 H       
  34 H34           -4.5605     0.8212    -1.6137 H       
  35 H35           -6.7425     1.9551    -1.5896 H       
  36 H36           -5.4648     4.3756     1.6888 H       
  37 H37           -3.2799     3.2470     1.6815 H       
  38 H38            6.1021     4.9203     2.1001 H       
  39 H39            4.8554     4.2038     3.1491 H       
  40 H40            5.3023     3.4033     1.6234 H       
  41 H41            0.9024     4.6924     2.1407 H       
  42 H42            2.1885     5.4014     3.1465 H       
  43 H43            1.7031     6.1981     1.6306 H       
  44 C44           12.1040    13.1052     9.0543 C.3     
  45 C45           12.1247    11.5753     9.0459 C.3     
  46 H46           13.1266    13.4825     9.0465 H       
  47 H47           11.5768    13.4663     8.1712 H       
  48 H48           11.5938    13.4567     9.9511 H       
  49 H49           12.6519    11.2143     9.9289 H       
  50 H50           11.1021    11.1981     9.0536 H       
  51 H51           12.6349    11.2238     8.1491 H       
@<TRIPOS>BOND
   1    1    6 ar
   2    1   13 ar
   3    1    2 ar
   4    2    3 ar
   5    2    9 ar
   6    3   10 1
   7    3    4 ar
   8    4    5 ar
   9    4   26 1
  10    5   11 1
  11    5    6 ar
  12    7   12 1
  13    7    8 ar
  14    7   13 ar
  15    8    9 ar
  16    8   27 1
  17    9   28 1
  18   10   16 ar
  19   10   20 ar
  20   11   14 am
  21   11   15 2
  22   12   22 1
  23   12   29 1
  24   12   30 1
  25   13   31 1
  26   14   32 1
  27   14   33 1
  28   16   17 ar
  29   16   34 1
  30   17   18 ar
  31   17   35 1
  32   18   19 ar
  33   18   21 1
  34   19   20 ar
  35   19   36 1
  36   20   37 1
  37   22   23 1
  38   22   25 1
  39   23   24 1
  40   24   38 1
  41   24   39 1
  42   24   40 1
  43   25   41 1
  44   25   42 1
  45   25   43 1
  46   44   45 1
  47   44   46 1
  48   44   47 1
  49   44   48 1
  50   45   49 1
  51   45   50 1
  52   45   51 1

#	End of record

