#	Name: ASD08070268
#	Creating user name:	WinNT
#	Creation time:	15. 06. 2019 21:14

#	Modifying user name:	WinNT
#	Modification time:	15. 06. 2019 21:14

#	Program:	/corina/corina34_cracker 3.40 0067  02.08.2006

@<TRIPOS>MOLECULE
ASD08070268
  45   46    0    0    0
SMALL
NO_CHARGES


@<TRIPOS>ATOM
   1 C1            -0.0179     1.4718     0.0101 C.2     
   2 C2             0.0021    -0.0041     0.0020 C.ar    
   3 C3             1.2206    -0.6881    -0.0133 C.ar    
   4 C4             1.2351    -2.0649    -0.0209 C.ar    
   5 C5             0.0396    -2.7744    -0.0138 C.ar    
   6 C6            -1.1742    -2.0979     0.0014 C.ar    
   7 C7            -1.1971    -0.7209     0.0154 C.ar    
   8 O8             1.0266     2.0940     0.0035 O.2     
   9 N9            -1.1942     2.1298     0.0193 N.am    
  10 C10           -1.2140     3.5946     0.0273 C.3     
  11 C11           -1.1021     4.1141    -1.4074 C.3     
  12 C12            0.2626     3.7309    -1.9835 C.3     
  13 C13            0.3746     4.2504    -3.4182 C.3     
  14 C14           -2.5056     4.0761     0.6366 C.ar    
  15 C15           -2.5047     5.1666     1.4861 C.ar    
  16 C16           -3.6894     5.6082     2.0450 C.ar    
  17 C17           -4.8750     4.9597     1.7539 C.ar    
  18 C18           -4.8760     3.8698     0.9036 C.ar    
  19 C19           -3.6919     3.4308     0.3414 C.ar    
  20 C20            2.5485    -2.8035    -0.0374 C.3     
  21 O21            0.0580    -4.1314    -0.0222 O.3     
  22 C22           -1.2062    -4.7974    -0.0142 C.3     
  23 H23            2.1498    -0.1376    -0.0195 H       
  24 H24           -2.1008    -2.6527     0.0069 H       
  25 H25           -2.1407    -0.1959     0.0317 H       
  26 H26           -2.0275     1.6334     0.0205 H       
  27 H27           -0.3744     3.9661     0.6148 H       
  28 H28           -1.8906     3.6720    -2.0164 H       
  29 H29           -1.2059     5.1991    -1.4101 H       
  30 H30            1.0511     4.1730    -1.3744 H       
  31 H31            0.3665     2.6459    -1.9808 H       
  32 H32           -0.4140     3.8084    -4.0273 H       
  33 H33            0.2707     5.3354    -3.4209 H       
  34 H34            1.3468     3.9775    -3.8286 H       
  35 H35           -1.5785     5.6733     1.7135 H       
  36 H36           -3.6887     6.4598     2.7093 H       
  37 H37           -5.8005     5.3043     2.1911 H       
  38 H38           -5.8022     3.3629     0.6765 H       
  39 H39           -3.6931     2.5816    -0.3258 H       
  40 H40            2.8750    -2.9872     0.9862 H       
  41 H41            2.4240    -3.7546    -0.5552 H       
  42 H42            3.2965    -2.2031    -0.5551 H       
  43 H43           -1.0488    -5.8759    -0.0222 H       
  44 H44           -1.7587    -4.5175     0.8828 H       
  45 H45           -1.7756    -4.5067    -0.8970 H       
@<TRIPOS>BOND
   1    1    2 1
   2    1    8 2
   3    1    9 am
   4    2    3 ar
   5    2    7 ar
   6    3    4 ar
   7    3   23 1
   8    4    5 ar
   9    4   20 1
  10    5    6 ar
  11    5   21 1
  12    6    7 ar
  13    6   24 1
  14    7   25 1
  15    9   10 1
  16    9   26 1
  17   10   11 1
  18   10   14 1
  19   10   27 1
  20   11   12 1
  21   11   28 1
  22   11   29 1
  23   12   13 1
  24   12   30 1
  25   12   31 1
  26   13   32 1
  27   13   33 1
  28   13   34 1
  29   14   15 ar
  30   14   19 ar
  31   15   16 ar
  32   15   35 1
  33   16   17 ar
  34   16   36 1
  35   17   18 ar
  36   17   37 1
  37   18   19 ar
  38   18   38 1
  39   19   39 1
  40   20   40 1
  41   20   41 1
  42   20   42 1
  43   21   22 1
  44   22   43 1
  45   22   44 1
  46   22   45 1

#	End of record

