#	Name: ASD00841544
#	Creating user name:	WinNT
#	Creation time:	15. 06. 2019 18:42

#	Modifying user name:	WinNT
#	Modification time:	15. 06. 2019 18:42

#	Program:	/corina/corina34_cracker 3.40 0067  02.08.2006

@<TRIPOS>MOLECULE
ASD00841544
  84   89    0    0    0
SMALL
NO_CHARGES


@<TRIPOS>ATOM
   1 C1            -0.0050     1.3863     0.0371 C.ar    
   2 C2             0.0094    -0.0006     0.0191 C.ar    
   3 C3             1.2194    -0.6793    -0.0011 C.ar    
   4 C4             2.4063     0.0272    -0.0031 C.ar    
   5 C5             2.3892     1.4099     0.0153 C.ar    
   6 C6             1.1849     2.0884     0.0349 C.ar    
   7 C7             1.2387    -2.1861    -0.0201 C.3     
   8 C8             0.4942    -2.7111    -1.2292 C.2     
   9 N9             2.6176    -2.6808    -0.0115 N.am    
  10 C10            3.4640    -2.3347    -1.0016 C.2     
  11 N11            4.7595    -2.7012    -0.9396 N.am    
  12 O12            3.0588    -1.6918    -1.9507 O.2     
  13 C13            5.2900    -3.3772     0.2522 C.3     
  14 C14            6.5163    -2.6065     0.7513 C.3     
  15 C15            7.5242    -2.4641    -0.3915 C.3     
  16 C16            6.8900    -1.6727    -1.5377 C.3     
  17 C17            5.6666    -2.4379    -2.0650 C.3     
  18 N18            8.7158    -1.7544     0.0925 N.3     
  19 C19            9.7556    -1.7027    -0.9447 C.3     
  20 C20           10.9455    -0.8889    -0.4304 C.3     
  21 N21           11.4625    -1.5056     0.7993 N.3     
  22 C22           10.4227    -1.5573     1.8365 C.3     
  23 C23            9.2328    -2.3710     1.3222 C.3     
  24 C24           12.6541    -0.7959     1.2833 C.3     
  25 O25            0.7743    -2.5076    -2.3916 O.2     
  26 N26           -0.5344    -3.4451    -0.7734 N.am    
  27 C27            0.4661    -2.7409     1.1550 C.ar    
  28 C28           -0.5817    -3.4845     0.6173 C.ar    
  29 C29            0.6301    -2.6293     2.5124 C.ar    
  30 C30           -0.2651    -3.2697     3.3767 C.ar    
  31 C31           -1.3208    -4.0189     2.8433 C.ar    
  32 C32           -1.4741    -4.1245     1.4775 C.ar    
  33 F33           -2.1905    -4.6409     3.6692 F       
  34 C34           -0.9907    -5.8296    -2.0697 C.ar    
  35 C35           -1.3189    -6.8767    -1.2289 C.ar    
  36 C36           -0.1708    -6.0501    -3.1606 C.ar    
  37 C37            0.3208    -7.3176    -3.4108 C.ar    
  38 C38           -0.0070    -8.3645    -2.5698 C.ar    
  39 C39           -0.8268    -8.1441    -1.4789 C.ar    
  40 H40            0.3771    -9.3548    -2.7653 H       
  41 H41           -1.9594    -6.7044    -0.3766 H       
  42 S42           -1.6232    -4.2155    -1.7549 S.o2    
  43 O43           -2.8042    -4.3906    -0.9842 O.2     
  44 O44           -1.6010    -3.5264    -2.9974 O.2     
  45 O45           -1.1597    -0.6935     0.0216 O.3     
  46 C46           -3.5695    -0.8749     0.0428 C.3     
  47 C47           -2.3669     0.0709     0.0432 C.3     
  48 C48           -0.1025    -3.1598     4.7952 C.1     
  49 N49            0.0265    -3.0727     5.9204 N.1     
  50 H50           -0.9456     1.9169     0.0482 H       
  51 H51            3.3484    -0.5006    -0.0188 H       
  52 H52            3.3183     1.9605     0.0144 H       
  53 H53            1.1743     3.1683     0.0493 H       
  54 H54            2.9215    -3.2575     0.7069 H       
  55 H55            4.5280    -3.3957     1.0314 H       
  56 H56            5.5785    -4.3966    -0.0040 H       
  57 H57            6.2104    -1.6173     1.0920 H       
  58 H58            6.9764    -3.1499     1.5766 H       
  59 H59            7.8109    -3.4533    -0.7483 H       
  60 H60            6.5806    -0.6924    -1.1754 H       
  61 H61            7.6161    -1.5516    -2.3416 H       
  62 H62            5.9884    -3.3794    -2.5099 H       
  63 H63            5.1529    -1.8344    -2.8133 H       
  64 H64           10.0828    -2.7149    -1.1823 H       
  65 H65            9.3524    -1.2307    -1.8406 H       
  66 H66           11.7298    -0.8736    -1.1871 H       
  67 H67           10.6242     0.1309    -0.2185 H       
  68 H68           10.8259    -2.0292     2.7325 H       
  69 H69           10.0955    -0.5451     2.0742 H       
  70 H70            8.4485    -2.3863     2.0789 H       
  71 H71            9.5541    -3.3908     1.1103 H       
  72 H72           12.3980     0.2424     1.4940 H       
  73 H73           13.0161    -1.2728     2.1941 H       
  74 H74           13.4324    -0.8306     0.5210 H       
  75 H75            1.4482    -2.0491     2.9130 H       
  76 H76           -2.2901    -4.7038     1.0714 H       
  77 H77            0.0853    -5.2321    -3.8176 H       
  78 H78            0.9608    -7.4899    -4.2635 H       
  79 H79           -1.0833    -8.9621    -0.8220 H       
  80 H80           -3.5288    -1.5148     0.9243 H       
  81 H81           -4.4903    -0.2918     0.0594 H       
  82 H82           -3.5462    -1.4919    -0.8554 H       
  83 H83           -2.3901     0.6879     0.9415 H       
  84 H84           -2.4076     0.7108    -0.8382 H       
@<TRIPOS>BOND
   1    1    2 ar
   2    1    6 ar
   3    1   50 1
   4    2    3 ar
   5    2   45 1
   6    3    4 ar
   7    3    7 1
   8    4    5 ar
   9    4   51 1
  10    5    6 ar
  11    5   52 1
  12    6   53 1
  13    7    8 1
  14    7    9 1
  15    7   27 1
  16    8   25 2
  17    8   26 am
  18    9   10 am
  19    9   54 1
  20   10   11 am
  21   10   12 2
  22   11   13 1
  23   11   17 1
  24   13   14 1
  25   13   55 1
  26   13   56 1
  27   14   15 1
  28   14   57 1
  29   14   58 1
  30   15   16 1
  31   15   18 1
  32   15   59 1
  33   16   17 1
  34   16   60 1
  35   16   61 1
  36   17   62 1
  37   17   63 1
  38   18   19 1
  39   18   23 1
  40   19   20 1
  41   19   64 1
  42   19   65 1
  43   20   21 1
  44   20   66 1
  45   20   67 1
  46   21   22 1
  47   21   24 1
  48   22   23 1
  49   22   68 1
  50   22   69 1
  51   23   70 1
  52   23   71 1
  53   24   72 1
  54   24   73 1
  55   24   74 1
  56   26   42 am
  57   26   28 1
  58   27   28 ar
  59   27   29 ar
  60   28   32 ar
  61   29   30 ar
  62   29   75 1
  63   30   31 ar
  64   30   48 1
  65   31   32 ar
  66   31   33 1
  67   32   76 1
  68   34   35 ar
  69   34   36 ar
  70   34   42 1
  71   35   41 1
  72   35   39 ar
  73   36   37 ar
  74   36   77 1
  75   37   38 ar
  76   37   78 1
  77   38   39 ar
  78   38   40 1
  79   39   79 1
  80   42   43 2
  81   42   44 2
  82   45   47 1
  83   46   47 1
  84   46   80 1
  85   46   81 1
  86   46   82 1
  87   47   83 1
  88   47   84 1
  89   48   49 3

#	End of record

