#	Name: ASD02560444
#	Creating user name:	WinNT
#	Creation time:	15. 06. 2019 20:25

#	Modifying user name:	WinNT
#	Modification time:	15. 06. 2019 20:25

#	Program:	/corina/corina34_cracker 3.40 0067  02.08.2006

@<TRIPOS>MOLECULE
ASD02560444
  37   40    0    0    0
SMALL
NO_CHARGES


@<TRIPOS>ATOM
   1 C1             0.9729    -1.3161    -4.1470 C.2     
   2 C2             1.4631    -2.4907    -3.5491 C.2     
   3 C3             2.2796    -2.4206    -2.4784 C.2     
   4 N4             2.6433    -1.2084    -1.9588 N.pl3   
   5 C5             2.1797    -0.0426    -2.5230 C.2     
   6 C6             1.3249    -0.1036    -3.6425 C.2     
   7 C7             3.4403    -0.8534    -0.9041 C.2     
   8 C8             3.4461     0.5028    -0.8477 C.2     
   9 N9             2.6775     0.9735    -1.8356 N.2     
  10 C10            4.1933     1.3381     0.1599 C.3     
  11 N11            4.1206    -1.7246    -0.0453 N.pl3   
  12 C12            3.4168    -2.7101     0.6508 C.ar    
  13 C13            3.5914    -4.0497     0.3280 C.ar    
  14 C14            2.8942    -5.0218     1.0188 C.ar    
  15 C15            2.0230    -4.6631     2.0308 C.ar    
  16 C16            1.8459    -3.3302     2.3557 C.ar    
  17 C17            2.5437    -2.3528     1.6728 C.ar    
  18 Cl18           2.3216    -0.6802     2.0813 Cl      
  19 C19            4.5402    -4.4423    -0.7750 C.3     
  20 C20            5.2388     2.3199    -0.3728 C.3     
  21 C21            3.9108     2.8417     0.1794 C.3     
  22 H22            0.3224    -1.3769    -5.0070 H       
  23 H23            1.1838    -3.4541    -3.9494 H       
  24 H24            2.6495    -3.3293    -2.0269 H       
  25 H25            0.9539     0.8040    -4.0954 H       
  26 H26            4.3992     0.8519     1.1134 H       
  27 H27            5.0808    -1.6441     0.0663 H       
  28 H28            3.0295    -6.0635     0.7678 H       
  29 H29            1.4791    -5.4255     2.5688 H       
  30 H30            1.1644    -3.0537     3.1465 H       
  31 H31            5.5351    -4.6013    -0.3591 H       
  32 H32            4.1912    -5.3621    -1.2442 H       
  33 H33            4.5806    -3.6472    -1.5196 H       
  34 H34            6.1324     2.4800     0.2305 H       
  35 H35            5.3863     2.3617    -1.4520 H       
  36 H36            3.1845     3.2267    -0.5364 H       
  37 H37            3.9306     3.3449     1.1461 H       
@<TRIPOS>BOND
   1    1    2 1
   2    1    6 2
   3    1   22 1
   4    2    3 2
   5    2   23 1
   6    3    4 1
   7    3   24 1
   8    4    5 1
   9    4    7 1
  10    5    6 1
  11    5    9 2
  12    6   25 1
  13    7    8 2
  14    7   11 1
  15    8    9 1
  16    8   10 1
  17   10   20 1
  18   10   21 1
  19   10   26 1
  20   11   12 1
  21   11   27 1
  22   12   13 ar
  23   12   17 ar
  24   13   14 ar
  25   13   19 1
  26   14   15 ar
  27   14   28 1
  28   15   16 ar
  29   15   29 1
  30   16   17 ar
  31   16   30 1
  32   17   18 1
  33   19   31 1
  34   19   32 1
  35   19   33 1
  36   20   21 1
  37   20   34 1
  38   20   35 1
  39   21   36 1
  40   21   37 1

#	End of record

