#	Name: ASD02770089
#	Creating user name:	WinNT
#	Creation time:	15. 06. 2019 20:26

#	Modifying user name:	WinNT
#	Modification time:	15. 06. 2019 20:26

#	Program:	/corina/corina34_cracker 3.40 0067  02.08.2006

@<TRIPOS>MOLECULE
ASD02770089
  25   26    0    0    0
SMALL
NO_CHARGES


@<TRIPOS>ATOM
   1 N1            -0.0169     1.3968     0.0097 N.am    
   2 N2             0.0021    -0.0041     0.0020 N.pl3   
   3 N3            -0.0326    -2.8082    -0.0128 N.ar    
   4 C4            -0.0141    -4.1189    -0.0200 C.ar    
   5 C5            -1.1888    -4.8682    -0.0136 C.ar    
   6 C6            -2.3996    -4.2367     0.0009 C.ar    
   7 C7            -2.4147    -2.8287     0.0090 C.ar    
   8 C8            -3.6221    -2.1123     0.0244 C.ar    
   9 C9            -3.6039    -0.7504     0.0325 C.ar    
  10 C10           -2.4014    -0.0503     0.0247 C.ar    
  11 C11           -1.1958    -0.7176     0.0096 C.ar    
  12 C12           -1.1830    -2.1298     0.0014 C.ar    
  13 C13            1.1410     2.0865     0.0024 C.2     
  14 O14            1.1245     3.3022     0.0091 O.2     
  15 N15            2.3171     1.4286    -0.0124 N.am    
  16 H16           -0.8635     1.8703     0.0163 H       
  17 H17            0.8486    -0.4776    -0.0086 H       
  18 H18            0.9365    -4.6314    -0.0315 H       
  19 H19           -1.1418    -5.9471    -0.0205 H       
  20 H20           -3.3201    -4.8016     0.0057 H       
  21 H21           -4.5642    -2.6404     0.0295 H       
  22 H22           -4.5365    -0.2059     0.0440 H       
  23 H23           -2.4130     1.0297     0.0314 H       
  24 H24            2.3303     0.4587    -0.0177 H       
  25 H25            3.1505     1.9249    -0.0177 H       
@<TRIPOS>BOND
   1    1    2 1
   2    1   13 am
   3    1   16 1
   4    2   11 1
   5    2   17 1
   6    3    4 ar
   7    3   12 ar
   8    4    5 ar
   9    4   18 1
  10    5    6 ar
  11    5   19 1
  12    6    7 ar
  13    6   20 1
  14    7    8 ar
  15    7   12 ar
  16    8    9 ar
  17    8   21 1
  18    9   10 ar
  19    9   22 1
  20   10   11 ar
  21   10   23 1
  22   11   12 ar
  23   13   14 2
  24   13   15 am
  25   15   24 1
  26   15   25 1

#	End of record

