#	Name: ASD01815615
#	Creating user name:	WinNT
#	Creation time:	15. 06. 2019 19:33

#	Modifying user name:	WinNT
#	Modification time:	15. 06. 2019 19:33

#	Program:	/corina/corina34_cracker 3.40 0067  02.08.2006

@<TRIPOS>MOLECULE
ASD01815615
  37   39    0    0    0
SMALL
NO_CHARGES


@<TRIPOS>ATOM
   1 C1            -0.7475     0.5438     0.1275 C.ar    
   2 C2            -0.4394    -0.8083     0.0857 C.ar    
   3 C3             0.8733    -1.2307     0.0466 C.ar    
   4 C4             1.9060    -0.2936     0.0485 C.ar    
   5 C5             1.5894     1.0744     0.0905 C.ar    
   6 C6             0.2572     1.4860     0.1302 C.ar    
   7 N7             3.2224    -0.7018     0.0102 N.pl3   
   8 C8             4.2488     0.1576     0.0112 C.2     
   9 C9             4.0632     1.5251     0.0504 C.2     
  10 C10            2.6909     2.0553     0.0921 C.2     
  11 O11            2.4739     3.2538     0.1271 O.2     
  12 C12            5.2165     2.4360     0.0505 C.2     
  13 O13            6.3457     1.9871     0.0158 O.2     
  14 O14            5.0222     3.7695     0.0889 O.3     
  15 C15            3.5102    -2.1376    -0.0328 C.3     
  16 C16            3.4075    -2.6281    -1.4541 C.ar    
  17 C17            3.5009    -3.9795    -1.7267 C.ar    
  18 C18            3.4065    -4.4299    -3.0329 C.ar    
  19 C19            3.2186    -3.5255    -4.0639 C.ar    
  20 C20            3.1254    -2.1741    -3.7888 C.ar    
  21 C21            3.2141    -1.7262    -2.4841 C.ar    
  22 F22            1.1581    -2.5507     0.0070 F       
  23 C23            3.7060    -4.9628    -0.6033 C.3     
  24 F24            2.4720    -5.2667    -0.0185 F       
  25 F25            4.2841    -6.1328    -1.1073 F       
  26 F26            4.5524    -4.4015     0.3590 F       
  27 F27            3.4982    -5.7509    -3.3007 F       
  28 H28           -1.7801     0.8591     0.1537 H       
  29 H29           -1.2357    -1.5379     0.0840 H       
  30 H30            0.0147     2.5379     0.1621 H       
  31 H31            5.2557    -0.2318    -0.0194 H       
  32 H32            5.8114     4.3283     0.0873 H       
  33 H33            4.5179    -2.3176     0.3417 H       
  34 H34            2.7909    -2.6712     0.5885 H       
  35 H35            3.1452    -3.8756    -5.0830 H       
  36 H36            2.9788    -1.4684    -4.5930 H       
  37 H37            3.1408    -0.6702    -2.2700 H       
@<TRIPOS>BOND
   1    1    2 ar
   2    1    6 ar
   3    1   28 1
   4    2    3 ar
   5    2   29 1
   6    3    4 ar
   7    3   22 1
   8    4    5 ar
   9    4    7 1
  10    5    6 ar
  11    5   10 1
  12    6   30 1
  13    7    8 1
  14    7   15 1
  15    8    9 2
  16    8   31 1
  17    9   10 1
  18    9   12 1
  19   10   11 2
  20   12   13 2
  21   12   14 1
  22   14   32 1
  23   15   16 1
  24   15   33 1
  25   15   34 1
  26   16   17 ar
  27   16   21 ar
  28   17   18 ar
  29   17   23 1
  30   18   19 ar
  31   18   27 1
  32   19   20 ar
  33   19   35 1
  34   20   21 ar
  35   20   36 1
  36   21   37 1
  37   23   24 1
  38   23   25 1
  39   23   26 1

#	End of record

