#	Name: ASD05763004
#	Creating user name:	WinNT
#	Creation time:	15. 06. 2019 21:03

#	Modifying user name:	WinNT
#	Modification time:	15. 06. 2019 21:03

#	Program:	/corina/corina34_cracker 3.40 0067  02.08.2006

@<TRIPOS>MOLECULE
ASD05763004
 216  217    0    0    0
SMALL
NO_CHARGES


@<TRIPOS>ATOM
   1 C1             0.3681     4.8770    -2.6163 C.2     
   2 O2             0.4713     3.6787    -2.7724 O.2     
   3 N3             2.7927     4.9358    -2.4652 N.3     
   4 C4             1.5920     5.7537    -2.6829 C.3     
   5 C5             1.6697     6.4173    -4.0594 C.3     
   6 C6             2.8405     7.4019    -4.0855 C.3     
   7 C7             2.9170     8.0556    -5.4412 C.2     
   8 O8             2.1145     7.7628    -6.3014 O.2     
   9 N9             3.8775     8.9656    -5.6973 N.am    
  10 C10           -3.2509     5.3887    -2.6798 C.2     
  11 O11           -3.1360     6.5651    -2.9514 O.2     
  12 N12           -0.8419     5.4252    -2.3888 N.am    
  13 C13           -2.0325     4.5736    -2.3300 C.3     
  14 C14           -2.1858     4.0081    -0.9167 C.3     
  15 C15           -1.0090     3.0803    -0.6082 C.3     
  16 C16           -1.0954     2.6131     0.8461 C.3     
  17 C17           -1.0595     1.8660    -1.5377 C.3     
  18 C18           -6.8727     4.9751    -2.4076 C.2     
  19 O19           -6.7637     3.9653    -1.7448 O.2     
  20 N20           -4.4682     4.8104    -2.6907 N.am    
  21 C21           -5.6526     5.6027    -3.0307 C.3     
  22 C22           -5.8199     5.6432    -4.5510 C.3     
  23 C23           -4.6398     6.3914    -5.1743 C.3     
  24 C24           -4.8071     6.4319    -6.6945 C.3     
  25 N25           -3.6771     7.1483    -7.2913 N.pl3   
  26 C26           -3.6097     7.3120    -8.6547 C.2     
  27 N27           -2.6044     7.9494    -9.1856 N.2     
  28 N28           -4.6027     6.8034    -9.4580 N.pl3   
  29 C29          -10.4944     5.3122    -2.7720 C.2     
  30 O30          -10.4603     6.2739    -3.5103 O.2     
  31 N31           -8.0851     5.5359    -2.5869 N.am    
  32 C32           -9.2713     4.9257    -1.9812 C.3     
  33 C33           -9.4188     5.4185    -0.5403 C.3     
  34 C34           -8.2425     4.9102     0.2956 C.3     
  35 C35           -9.4330     6.9484    -0.5235 C.3     
  36 C36          -14.0502     4.4733    -2.6461 C.2     
  37 O37          -13.9134     3.8014    -1.6458 O.2     
  38 N38          -11.6262     4.5892    -2.6590 N.am    
  39 C39          -12.8393     5.0127    -3.3629 C.3     
  40 C40          -12.8123     4.4741    -4.7948 C.3     
  41 C41          -11.6545     5.1181    -5.5601 C.3     
  42 C42          -11.6275     4.5796    -6.9920 C.3     
  43 N43          -10.5189     5.1962    -7.7248 N.pl3   
  44 C44          -10.2950     4.8638    -9.0399 C.2     
  45 N45          -11.0691     4.0001    -9.6347 N.2     
  46 N46           -9.2547     5.4425    -9.7276 N.pl3   
  47 C47          -17.6091     4.0944    -3.3904 C.2     
  48 O48          -17.4579     4.4160    -4.5500 O.2     
  49 N49          -15.2851     4.7376    -3.1167 N.am    
  50 C50          -16.4623     4.2133    -2.4199 C.3     
  51 C51          -16.8500     5.1650    -1.2865 C.3     
  52 C52          -15.7531     5.1891    -0.2534 C.ar    
  53 C53          -14.7235     6.1055    -0.3597 C.ar    
  54 C54          -13.7173     6.1275     0.5879 C.ar    
  55 C55          -13.7408     5.2336     1.6420 C.ar    
  56 C56          -14.7709     4.3179     1.7488 C.ar    
  57 C57          -15.7794     4.2987     0.8036 C.ar    
  58 C58          -21.2213     3.5828    -3.1608 C.2     
  59 O59          -21.2196     3.7144    -1.9552 O.2     
  60 N60          -18.8026     3.6307    -2.9698 N.am    
  61 C61          -19.9174     3.5152    -3.9133 C.3     
  62 C62          -19.8236     2.1788    -4.6523 C.3     
  63 C63          -24.7303     2.8601    -3.8872 C.2     
  64 O64          -24.5765     2.6597    -5.0734 O.2     
  65 N65          -22.3894     3.4969    -3.8277 N.am    
  66 C66          -23.6570     3.5625    -3.0962 C.3     
  67 C67          -24.0513     5.0263    -2.8895 C.3     
  68 C68          -22.9845     5.7276    -2.0463 C.3     
  69 O69          -24.1577     5.6747    -4.1585 O.3     
  70 C70          -28.2524     2.0464    -3.3432 C.2     
  71 O71          -28.2813     2.6315    -2.2813 O.2     
  72 N72          -25.8612     2.4544    -3.2763 N.am    
  73 C73          -26.9416     1.8514    -4.0607 C.3     
  74 C74          -26.6725     0.3552    -4.2335 C.3     
  75 C75          -25.4255     0.1610    -5.0572 C.2     
  76 C76          -24.3447    -0.5583    -4.6993 C.2     
  77 N77          -23.4510    -0.4710    -5.7323 N.pl3   
  78 C78          -24.0172     0.2992    -6.6863 C.2     
  79 N79          -25.2000     0.6694    -6.2777 N.2     
  80 C80          -31.6345     0.6838    -3.6043 C.2     
  81 O81          -31.2932    -0.1587    -4.4072 O.2     
  82 N82          -29.3927     1.5706    -3.8817 N.am    
  83 C83          -30.6670     1.7601    -3.1842 C.3     
  84 C84          -31.2440     3.1317    -3.5401 C.3     
  85 C85          -35.2314     0.1032    -3.3075 C.2     
  86 O86          -35.4322     1.2183    -2.8747 O.2     
  87 N87          -32.8790     0.6574    -3.0877 N.am    
  88 C88          -33.8196    -0.3889    -3.4960 C.3     
  89 C89          -33.5963    -1.6376    -2.6405 C.3     
  90 C90          -38.5655    -1.3948    -3.2517 C.2     
  91 O91          -38.1200    -2.5227    -3.2711 O.2     
  92 N92          -36.2710    -0.6957    -3.6199 N.am    
  93 C93          -37.6434    -0.2172    -3.4366 C.3     
  94 C94          -38.0747     0.5795    -4.6696 C.3     
  95 C95          -41.1994    -2.8667    -4.2335 C.2     
  96 O96          -40.7906    -2.3403    -5.2412 O.2     
  97 N97          -39.8851    -1.1946    -3.0648 N.am    
  98 C98          -40.7814    -2.3393    -2.8850 C.3     
  99 C99          -42.0206    -1.8990    -2.1031 C.3     
 100 C100         -41.6088    -1.4724    -0.6927 C.3     
 101 C101         -42.8256    -0.9120     0.0463 C.3     
 102 C102         -41.0635    -2.6831     0.0674 C.3     
 103 O103         -42.0260    -3.9212    -4.3150 O.3     
 104 O104           3.1435     9.2574    -7.7700 O.2     
 105 C105           3.9460     9.5501    -6.9098 C.2     
 106 C106           5.0200    10.5677    -7.1962 C.3     
 107 H107           2.8719     4.2157    -3.1675 H       
 108 H108           3.6219     5.5101    -2.4410 H       
 109 H109           1.5311     6.5219    -1.9121 H       
 110 H110           1.8199     5.6539    -4.8228 H       
 111 H111           0.7408     6.9519    -4.2579 H       
 112 H112           2.6903     8.1653    -3.3220 H       
 113 H113           3.7694     6.8673    -3.8869 H       
 114 H114           4.5196     9.1999    -5.0090 H       
 115 H115          -0.9245     6.3836    -2.2640 H       
 116 H116          -1.9280     3.7534    -3.0402 H       
 117 H117          -2.2012     4.8269    -0.1974 H       
 118 H118          -3.1180     3.4473    -0.8488 H       
 119 H119          -0.0729     3.6171    -0.7624 H       
 120 H120          -2.0314     2.0763     1.0003 H       
 121 H121          -0.2570     1.9522     1.0659 H       
 122 H122          -1.0593     3.4782     1.5084 H       
 123 H123          -0.9980     2.1988    -2.5739 H       
 124 H124          -0.2211     1.2051    -1.3180 H       
 125 H125          -1.9956     1.3292    -1.3836 H       
 126 H126          -4.5601     3.8695    -2.4735 H       
 127 H127          -5.5321     6.6174    -2.6513 H       
 128 H128          -5.8514     4.6256    -4.9403 H       
 129 H129          -6.7484     6.1566    -4.8008 H       
 130 H130          -4.6083     7.4090    -4.7850 H       
 131 H131          -3.7113     5.8780    -4.9245 H       
 132 H132          -4.8386     5.4142    -7.0838 H       
 133 H133          -5.7356     6.9453    -6.9443 H       
 134 H134          -2.9765     7.5071    -6.7245 H       
 135 H135          -2.5568     8.0649   -10.1475 H       
 136 H136          -5.3509     6.3290    -9.0629 H       
 137 H137          -4.5552     6.9189   -10.4200 H       
 138 H138          -8.1723     6.3435    -3.1171 H       
 139 H139          -9.1639     3.8410    -1.9849 H       
 140 H140         -10.3519     5.0419    -0.1212 H       
 141 H141          -7.3094     5.2868    -0.1234 H       
 142 H142          -8.3476     5.2613     1.3222 H       
 143 H143          -8.2324     3.8203     0.2837 H       
 144 H144         -10.3154     7.3094    -1.0517 H       
 145 H145          -9.4576     7.3002     0.5079 H       
 146 H146          -8.5359     7.3254    -1.0146 H       
 147 H147         -11.6377     3.7886    -2.1116 H       
 148 H148         -12.8852     6.1015    -3.3851 H       
 149 H149         -12.6770     3.3927    -4.7737 H       
 150 H150         -13.7531     4.7130    -5.2906 H       
 151 H151         -11.7898     6.1995    -5.5811 H       
 152 H152         -10.7137     4.8792    -5.0643 H       
 153 H153         -11.4923     3.4982    -6.9709 H       
 154 H154         -12.5683     4.8185    -7.4878 H       
 155 H155          -9.9429     5.8390    -7.2821 H       
 156 H156         -10.9111     3.7656   -10.5626 H       
 157 H157          -8.6787     6.0853    -9.2850 H       
 158 H158          -9.0967     5.2080   -10.6555 H       
 159 H159         -15.3945     5.2750    -3.9168 H       
 160 H160         -16.2325     3.2310    -2.0070 H       
 161 H161         -16.9935     6.1684    -1.6876 H       
 162 H162         -17.7762     4.8224    -0.8250 H       
 163 H163         -14.7051     6.8039    -1.1833 H       
 164 H164         -12.9126     6.8430     0.5044 H       
 165 H165         -12.9543     5.2504     2.3819 H       
 166 H166         -14.7891     3.6192     2.5722 H       
 167 H167         -16.5861     3.5857     0.8891 H       
 168 H168         -18.9235     3.3735    -2.0424 H       
 169 H169         -19.8704     4.3325    -4.6330 H       
 170 H170         -19.8706     1.3616    -3.9326 H       
 171 H171         -20.6531     2.0929    -5.3543 H       
 172 H172         -18.8805     2.1300    -5.1965 H       
 173 H173         -22.3907     3.3915    -4.7920 H       
 174 H174         -23.5429     3.0766    -2.1272 H       
 175 H175         -25.0110     5.0749    -2.3750 H       
 176 H176         -22.0568     5.7926    -2.6148 H       
 177 H177         -23.3251     6.7310    -1.7907 H       
 178 H178         -22.8117     5.1589    -1.1326 H       
 179 H179         -24.8171     5.2820    -4.7468 H       
 180 H180         -25.9597     2.5618    -2.3173 H       
 181 H181         -26.9891     2.3275    -5.0400 H       
 182 H182         -26.5368    -0.1050    -3.2548 H       
 183 H183         -27.5184    -0.1100    -4.7397 H       
 184 H184         -24.2091    -1.0997    -3.7747 H       
 185 H185         -22.5747    -0.8849    -5.7719 H       
 186 H186         -23.5673     0.5618    -7.6324 H       
 187 H187         -29.3696     1.1026    -4.7310 H       
 188 H188         -30.5042     1.7026    -2.1080 H       
 189 H189         -31.4068     3.1893    -4.6164 H       
 190 H190         -32.1921     3.2728    -3.0212 H       
 191 H191         -30.5442     3.9103    -3.2363 H       
 192 H192         -33.1520     1.3312    -2.4456 H       
 193 H193         -33.6573    -0.6339    -4.5457 H       
 194 H194         -33.7586    -1.3926    -1.5908 H       
 195 H195         -34.2961    -2.4161    -2.9443 H       
 196 H196         -32.5751    -1.9936    -2.7768 H       
 197 H197         -36.1104    -1.5875    -3.9660 H       
 198 H198         -37.6905     0.4229    -2.5557 H       
 199 H199         -39.0959     0.9355    -4.5332 H       
 200 H200         -37.4078     1.4313    -4.8033 H       
 201 H201         -38.0277    -0.0606    -5.5506 H       
 202 H202         -40.2414    -0.2925    -3.0493 H       
 203 H203         -40.2632    -3.1234    -2.3330 H       
 204 H204         -42.4927    -1.0594    -2.6133 H       
 205 H205         -42.7247    -2.7287    -2.0408 H       
 206 H206         -40.8370    -0.7054    -0.7559 H       
 207 H207         -42.5525    -0.6864     1.0772 H       
 208 H208         -43.1630    -0.0009    -0.4479 H       
 209 H209         -43.6283    -1.6494     0.0362 H       
 210 H210         -40.1967    -3.0824    -0.4591 H       
 211 H211         -40.7701    -2.3793     1.0723 H       
 212 H212         -41.8353    -3.4502     0.1306 H       
 213 H213         -42.2659    -4.2234    -5.2016 H       
 214 H214           5.9020    10.0636    -7.5913 H       
 215 H215           4.6534    11.2865    -7.9290 H       
 216 H216           5.2815    11.0890    -6.2753 H       
@<TRIPOS>BOND
   1    1    2 2
   2    1    4 1
   3    1   12 am
   4    3    4 1
   5    3  107 1
   6    3  108 1
   7    4    5 1
   8    4  109 1
   9    5    6 1
  10    5  110 1
  11    5  111 1
  12    6    7 1
  13    6  112 1
  14    6  113 1
  15    7    8 2
  16    7    9 am
  17    9  105 am
  18    9  114 1
  19   10   11 2
  20   10   13 1
  21   10   20 am
  22   12   13 1
  23   12  115 1
  24   13   14 1
  25   13  116 1
  26   14   15 1
  27   14  117 1
  28   14  118 1
  29   15   16 1
  30   15   17 1
  31   15  119 1
  32   16  120 1
  33   16  121 1
  34   16  122 1
  35   17  123 1
  36   17  124 1
  37   17  125 1
  38   18   19 2
  39   18   21 1
  40   18   31 am
  41   20   21 1
  42   20  126 1
  43   21   22 1
  44   21  127 1
  45   22   23 1
  46   22  128 1
  47   22  129 1
  48   23   24 1
  49   23  130 1
  50   23  131 1
  51   24   25 1
  52   24  132 1
  53   24  133 1
  54   25   26 1
  55   25  134 1
  56   26   27 2
  57   26   28 1
  58   27  135 1
  59   28  136 1
  60   28  137 1
  61   29   30 2
  62   29   32 1
  63   29   38 am
  64   31   32 1
  65   31  138 1
  66   32   33 1
  67   32  139 1
  68   33   34 1
  69   33   35 1
  70   33  140 1
  71   34  141 1
  72   34  142 1
  73   34  143 1
  74   35  144 1
  75   35  145 1
  76   35  146 1
  77   36   37 2
  78   36   39 1
  79   36   49 am
  80   38   39 1
  81   38  147 1
  82   39   40 1
  83   39  148 1
  84   40   41 1
  85   40  149 1
  86   40  150 1
  87   41   42 1
  88   41  151 1
  89   41  152 1
  90   42   43 1
  91   42  153 1
  92   42  154 1
  93   43   44 1
  94   43  155 1
  95   44   45 2
  96   44   46 1
  97   45  156 1
  98   46  157 1
  99   46  158 1
 100   47   48 2
 101   47   50 1
 102   47   60 am
 103   49   50 1
 104   49  159 1
 105   50   51 1
 106   50  160 1
 107   51   52 1
 108   51  161 1
 109   51  162 1
 110   52   53 ar
 111   52   57 ar
 112   53   54 ar
 113   53  163 1
 114   54   55 ar
 115   54  164 1
 116   55   56 ar
 117   55  165 1
 118   56   57 ar
 119   56  166 1
 120   57  167 1
 121   58   59 2
 122   58   61 1
 123   58   65 am
 124   60   61 1
 125   60  168 1
 126   61   62 1
 127   61  169 1
 128   62  170 1
 129   62  171 1
 130   62  172 1
 131   63   64 2
 132   63   66 1
 133   63   72 am
 134   65   66 1
 135   65  173 1
 136   66   67 1
 137   66  174 1
 138   67   68 1
 139   67   69 1
 140   67  175 1
 141   68  176 1
 142   68  177 1
 143   68  178 1
 144   69  179 1
 145   70   71 2
 146   70   73 1
 147   70   82 am
 148   72   73 1
 149   72  180 1
 150   73   74 1
 151   73  181 1
 152   74   75 1
 153   74  182 1
 154   74  183 1
 155   75   76 2
 156   75   79 1
 157   76   77 1
 158   76  184 1
 159   77   78 1
 160   77  185 1
 161   78   79 2
 162   78  186 1
 163   80   81 2
 164   80   83 1
 165   80   87 am
 166   82   83 1
 167   82  187 1
 168   83   84 1
 169   83  188 1
 170   84  189 1
 171   84  190 1
 172   84  191 1
 173   85   86 2
 174   85   88 1
 175   85   92 am
 176   87   88 1
 177   87  192 1
 178   88   89 1
 179   88  193 1
 180   89  194 1
 181   89  195 1
 182   89  196 1
 183   90   91 2
 184   90   93 1
 185   90   97 am
 186   92   93 1
 187   92  197 1
 188   93   94 1
 189   93  198 1
 190   94  199 1
 191   94  200 1
 192   94  201 1
 193   95   96 2
 194   95   98 1
 195   95  103 1
 196   97   98 1
 197   97  202 1
 198   98   99 1
 199   98  203 1
 200   99  100 1
 201   99  204 1
 202   99  205 1
 203  100  101 1
 204  100  102 1
 205  100  206 1
 206  101  207 1
 207  101  208 1
 208  101  209 1
 209  102  210 1
 210  102  211 1
 211  102  212 1
 212  103  213 1
 213  104  105 2
 214  105  106 1
 215  106  214 1
 216  106  215 1
 217  106  216 1

#	End of record

