#	Name: ASD01900538
#	Creating user name:	WinNT
#	Creation time:	15. 06. 2019 19:52

#	Modifying user name:	WinNT
#	Modification time:	15. 06. 2019 19:52

#	Program:	/corina/corina34_cracker 3.40 0067  02.08.2006

@<TRIPOS>MOLECULE
ASD01900538
  38   41    0    0    0
SMALL
NO_CHARGES


@<TRIPOS>ATOM
   1 C1             0.3968     3.6818     0.7355 C.ar    
   2 C2             0.8510     4.6111     1.6829 C.ar    
   3 C3             2.2216     4.7836     1.8569 C.ar    
   4 C4             3.0808     4.0259     1.0828 C.ar    
   5 C5             2.5603     3.1251     0.1647 C.ar    
   6 N6             1.2626     2.9773     0.0157 N.ar    
   7 O7            -0.2342     5.1696     2.2540 O.3     
   8 N8            -1.4031     4.6124     1.6873 N.2     
   9 C9            -1.0747     3.7336     0.7819 C.2     
  10 N10           -1.9496     2.9796     0.0111 N.pl3   
  11 C11           -3.3307     3.1719     0.1300 C.ar    
  12 C12           -3.8345     4.4353     0.4119 C.ar    
  13 C13           -5.1980     4.6241     0.5291 C.ar    
  14 C14           -6.0642     3.5512     0.3650 C.ar    
  15 C15           -5.5610     2.2899     0.0840 C.ar    
  16 C16           -4.1982     2.1010    -0.0395 C.ar    
  17 O17           -7.4064     3.7373     0.4804 O.3     
  18 C18           -8.0830     4.1856    -0.6066 C.ar    
  19 C19           -9.4412     4.4609    -0.5065 C.ar    
  20 C20          -10.1196     4.9175    -1.6227 C.ar    
  21 C21           -9.4121     5.0836    -2.8056 C.ar    
  22 C22           -8.0633     4.7905    -2.8328 C.ar    
  23 N23           -7.4423     4.3616    -1.7504 N.ar    
  24 C24          -10.1091     5.5782    -4.0468 C.3     
  25 F25          -10.0480     6.9751    -4.0907 F       
  26 F26           -9.4792     5.0481    -5.1779 F       
  27 F27          -11.4472     5.1704    -4.0241 F       
  28 Cl28          -5.8286     6.2026     0.8820 Cl      
  29 H29            2.6038     5.4913     2.5777 H       
  30 H30            4.1497     4.1346     1.1917 H       
  31 H31            3.2337     2.5345    -0.4387 H       
  32 H32           -1.6035     2.3196    -0.6098 H       
  33 H33           -3.1607     5.2695     0.5398 H       
  34 H34           -6.2352     1.4558    -0.0431 H       
  35 H35           -3.8072     1.1195    -0.2635 H       
  36 H36           -9.9606     4.3199     0.4299 H       
  37 H37          -11.1755     5.1394    -1.5748 H       
  38 H38           -7.5085     4.9177    -3.7506 H       
@<TRIPOS>BOND
   1    1    2 ar
   2    1    6 ar
   3    1    9 1
   4    2    3 ar
   5    2    7 1
   6    3    4 ar
   7    3   29 1
   8    4    5 ar
   9    4   30 1
  10    5    6 ar
  11    5   31 1
  12    7    8 1
  13    8    9 2
  14    9   10 1
  15   10   11 1
  16   10   32 1
  17   11   12 ar
  18   11   16 ar
  19   12   13 ar
  20   12   33 1
  21   13   14 ar
  22   13   28 1
  23   14   15 ar
  24   14   17 1
  25   15   16 ar
  26   15   34 1
  27   16   35 1
  28   17   18 1
  29   18   19 ar
  30   18   23 ar
  31   19   20 ar
  32   19   36 1
  33   20   21 ar
  34   20   37 1
  35   21   22 ar
  36   21   24 1
  37   22   23 ar
  38   22   38 1
  39   24   25 1
  40   24   26 1
  41   24   27 1

#	End of record

