#	Name: ASD01120128
#	Creating user name:	WinNT
#	Creation time:	15. 06. 2019 18:59

#	Modifying user name:	WinNT
#	Modification time:	15. 06. 2019 18:59

#	Program:	/corina/corina34_cracker 3.40 0067  02.08.2006

@<TRIPOS>MOLECULE
ASD01120128
  20   21    0    0    0
SMALL
NO_CHARGES


@<TRIPOS>ATOM
   1 N1            -0.0167     1.3812     0.0096 N.pl3   
   2 C2             0.0021    -0.0041     0.0020 C.2     
   3 N3             1.0709    -0.7386    -0.0121 N.2     
   4 C4             0.8936    -2.0592    -0.0175 C.2     
   5 C5            -0.3870    -2.4666    -0.0075 C.2     
   6 S6            -1.4213    -1.0405     0.0177 S.3     
   7 C7             2.0296    -3.0124    -0.0340 C.ar    
   8 C8             3.3405    -2.5385    -0.0439 C.ar    
   9 C9             4.3936    -3.4301    -0.0592 C.ar    
  10 C10            4.1504    -4.7919    -0.0648 C.ar    
  11 C11            2.8516    -5.2680    -0.0554 C.ar    
  12 C12            1.7906    -4.3857    -0.0338 C.ar    
  13 H13            0.8166     1.8776     0.0043 H       
  14 H14           -0.8632     1.8547     0.0162 H       
  15 H15           -0.7243    -3.4926    -0.0104 H       
  16 H16            3.5315    -1.4755    -0.0399 H       
  17 H17            5.4097    -3.0641    -0.0673 H       
  18 H18            4.9777    -5.4861    -0.0768 H       
  19 H19            2.6676    -6.3322    -0.0602 H       
  20 H20            0.7770    -4.7584    -0.0262 H       
@<TRIPOS>BOND
   1    1    2 1
   2    1   13 1
   3    1   14 1
   4    2    3 2
   5    2    6 1
   6    3    4 1
   7    4    5 2
   8    4    7 1
   9    5    6 1
  10    5   15 1
  11    7    8 ar
  12    7   12 ar
  13    8    9 ar
  14    8   16 1
  15    9   10 ar
  16    9   17 1
  17   10   11 ar
  18   10   18 1
  19   11   12 ar
  20   11   19 1
  21   12   20 1

#	End of record

