#	Name: ASD01813017
#	Creating user name:	WinNT
#	Creation time:	15. 06. 2019 19:29

#	Modifying user name:	WinNT
#	Modification time:	15. 06. 2019 19:29

#	Program:	/corina/corina34_cracker 3.40 0067  02.08.2006

@<TRIPOS>MOLECULE
ASD01813017
  49   52    0    0    0
SMALL
NO_CHARGES


@<TRIPOS>ATOM
   1 C1            -0.6573     1.4809     0.0083 C.2     
   2 C2            -0.4026     0.1611    -0.0302 C.2     
   3 N3            -1.4275    -0.7352     0.0623 N.pl3   
   4 C4            -2.7169    -0.3457     0.1822 C.2     
   5 C5            -3.0365     0.9665     0.2177 C.2     
   6 C6            -2.0015     1.9236     0.1342 C.2     
   7 O7            -2.2595     3.1182     0.1625 O.2     
   8 C8            -4.4733     1.4016     0.3488 C.3     
   9 C9            -1.1206    -2.1673     0.0299 C.3     
  10 C10           -1.2541    -2.6779    -1.3816 C.ar    
  11 C11            0.4195     2.5298    -0.0696 C.3     
  12 C12            1.7120     1.9365    -0.6265 C.3     
  13 C13            2.0349     0.6629     0.1646 C.3     
  14 C14            0.9900    -0.3949    -0.1834 C.3     
  15 O15           -0.0173     3.5902    -0.9222 O.3     
  16 C16           -0.1348    -2.7736    -2.1886 C.ar    
  17 C17           -0.2513    -3.2406    -3.4821 C.ar    
  18 C18           -1.4995    -3.6159    -3.9747 C.ar    
  19 C19           -2.6237    -3.5175    -3.1575 C.ar    
  20 C20           -2.4948    -3.0545    -1.8636 C.ar    
  21 C21           -1.6311    -4.1183    -5.3648 C.ar    
  22 C22           -2.8793    -4.4937    -5.8574 C.ar    
  23 C23           -2.9959    -4.9602    -7.1511 C.ar    
  24 C24           -1.8765    -5.0560    -7.9580 C.ar    
  25 C25           -0.6350    -4.6852    -7.4740 C.ar    
  26 C26           -0.5078    -4.2109    -6.1841 C.ar    
  27 H27           -3.4972    -1.0893     0.2499 H       
  28 H28           -5.1157     0.5226     0.4019 H       
  29 H29           -4.5923     1.9938     1.2561 H       
  30 H30           -4.7513     2.0030    -0.5167 H       
  31 H31           -0.1008    -2.3283     0.3796 H       
  32 H32           -1.8154    -2.7025     0.6772 H       
  33 H33            0.6072     2.9264     0.9281 H       
  34 H34            1.5799     1.6911    -1.6803 H       
  35 H35            2.5243     2.6546    -0.5147 H       
  36 H36            3.0271     0.3028    -0.1076 H       
  37 H37            2.0010     0.8755     1.2331 H       
  38 H38            1.1101    -1.2504     0.4813 H       
  39 H39            1.1361    -0.7184    -1.2139 H       
  40 H40            0.6260     4.3053    -1.0215 H       
  41 H41            0.8321    -2.4820    -1.8058 H       
  42 H42            0.6232    -3.3146    -4.1114 H       
  43 H43           -3.5935    -3.8071    -3.5343 H       
  44 H44           -3.3655    -2.9777    -1.2293 H       
  45 H45           -3.7538    -4.4200    -5.2280 H       
  46 H46           -3.9629    -5.2515    -7.5339 H       
  47 H47           -1.9722    -5.4220    -8.9696 H       
  48 H48            0.2358    -4.7623    -8.1082 H       
  49 H49            0.4620    -3.9214    -5.8072 H       
@<TRIPOS>BOND
   1    1    2 2
   2    1   11 1
   3    1    6 1
   4    2    3 1
   5    2   14 1
   6    3    4 1
   7    3    9 1
   8    4    5 2
   9    4   27 1
  10    5    6 1
  11    5    8 1
  12    6    7 2
  13    8   28 1
  14    8   29 1
  15    8   30 1
  16    9   10 1
  17    9   31 1
  18    9   32 1
  19   10   16 ar
  20   10   20 ar
  21   11   12 1
  22   11   15 1
  23   11   33 1
  24   12   13 1
  25   12   34 1
  26   12   35 1
  27   13   14 1
  28   13   36 1
  29   13   37 1
  30   14   38 1
  31   14   39 1
  32   15   40 1
  33   16   17 ar
  34   16   41 1
  35   17   18 ar
  36   17   42 1
  37   18   19 ar
  38   18   21 1
  39   19   20 ar
  40   19   43 1
  41   20   44 1
  42   21   22 ar
  43   21   26 ar
  44   22   23 ar
  45   22   45 1
  46   23   24 ar
  47   23   46 1
  48   24   25 ar
  49   24   47 1
  50   25   26 ar
  51   25   48 1
  52   26   49 1

#	End of record

