#	Name: ASD04880468
#	Creating user name:	WinNT
#	Creation time:	15. 06. 2019 20:53

#	Modifying user name:	WinNT
#	Modification time:	15. 06. 2019 20:53

#	Program:	/corina/corina34_cracker 3.40 0067  02.08.2006

@<TRIPOS>MOLECULE
ASD04880468
  37   39    0    0    0
SMALL
NO_CHARGES


@<TRIPOS>ATOM
   1 C1            -0.0144     1.2118     0.0087 C.2     
   2 O2             0.0636    -0.0015    -0.0142 O.2     
   3 C3             1.2147     2.0320    -0.0208 C.ar    
   4 C4             2.4669     1.4217     0.0707 C.ar    
   5 C5             3.6117     2.1946     0.0420 C.ar    
   6 C6             3.5174     3.5722    -0.0770 C.ar    
   7 C7             2.2789     4.1811    -0.1675 C.ar    
   8 C8             1.1285     3.4195    -0.1462 C.ar    
   9 F9             4.8249     1.6066     0.1304 F       
  10 N10           -1.2219     1.8087     0.0554 N.am    
  11 N11           -1.4447     3.1767     0.1982 N.2     
  12 C12           -2.6900     3.5082     0.2160 C.2     
  13 C13           -3.5444     2.2691     0.0718 C.3     
  14 C14           -2.5201     1.1228    -0.0426 C.3     
  15 C15           -3.2022     4.8828     0.3555 C.ar    
  16 C16           -2.3110     5.9551     0.4820 C.ar    
  17 C17           -2.7969     7.2404     0.6118 C.ar    
  18 C18           -4.1664     7.4694     0.6175 C.ar    
  19 C19           -5.0536     6.4078     0.4927 C.ar    
  20 C20           -4.5789     5.1213     0.3562 C.ar    
  21 O21           -4.6403     8.7360     0.7459 O.3     
  22 C22           -6.0598     8.9009     0.7441 C.3     
  23 F23           -0.9786     5.7321     0.4774 F       
  24 H24            2.5405     0.3483     0.1641 H       
  25 H25            4.4148     4.1728    -0.0987 H       
  26 H26            2.2122     5.2551    -0.2593 H       
  27 H27            0.1625     3.8967    -0.2215 H       
  28 H28           -4.1763     2.1360     0.9499 H       
  29 H29           -4.1512     2.3262    -0.8319 H       
  30 H30           -2.6145     0.6158    -1.0028 H       
  31 H31           -2.6439     0.4170     0.7788 H       
  32 H32           -2.1111     8.0690     0.7095 H       
  33 H33           -6.1179     6.5916     0.4984 H       
  34 H34           -5.2703     4.2978     0.2545 H       
  35 H35           -6.4675     8.5296    -0.1962 H       
  36 H36           -6.4917     8.3410     1.5736 H       
  37 H37           -6.3030     9.9578     0.8533 H       
@<TRIPOS>BOND
   1    1    2 2
   2    1    3 1
   3    1   10 am
   4    3    4 ar
   5    3    8 ar
   6    4    5 ar
   7    4   24 1
   8    5    6 ar
   9    5    9 1
  10    6    7 ar
  11    6   25 1
  12    7    8 ar
  13    7   26 1
  14    8   27 1
  15   10   11 1
  16   10   14 1
  17   11   12 2
  18   12   13 1
  19   12   15 1
  20   13   14 1
  21   13   28 1
  22   13   29 1
  23   14   30 1
  24   14   31 1
  25   15   16 ar
  26   15   20 ar
  27   16   17 ar
  28   16   23 1
  29   17   18 ar
  30   17   32 1
  31   18   19 ar
  32   18   21 1
  33   19   20 ar
  34   19   33 1
  35   20   34 1
  36   21   22 1
  37   22   35 1
  38   22   36 1
  39   22   37 1

#	End of record

