#	Name: ASD01720089
#	Creating user name:	WinNT
#	Creation time:	15. 06. 2019 19:23

#	Modifying user name:	WinNT
#	Modification time:	15. 06. 2019 19:23

#	Program:	/corina/corina34_cracker 3.40 0067  02.08.2006

@<TRIPOS>MOLECULE
ASD01720089
  58   61    0    0    0
SMALL
NO_CHARGES


@<TRIPOS>ATOM
   1 C1            -0.0531     1.3663    -0.0162 C.ar    
   2 C2            -0.0531    -0.0024    -0.0236 C.ar    
   3 C3             1.1402    -0.6907     0.1880 C.ar    
   4 N4             2.2765    -0.0404     0.3969 N.ar    
   5 C5             2.3249     1.2804     0.4128 C.ar    
   6 C6             1.1596     2.0355     0.2062 C.ar    
   7 N7             1.1389    -2.0751     0.1803 N.3     
   8 O8             3.5048     1.9085     0.6300 O.3     
   9 C9             4.6522     1.0814     0.8335 C.3     
  10 C10            5.8821     1.9626     1.0611 C.3     
  11 C11            7.1107     1.0770     1.2790 C.3     
  12 C12            7.4066     0.2917    -0.0003 C.3     
  13 C13            8.3150     1.9530     1.6297 C.3     
  14 C14            1.2093     3.5065     0.2231 C.2     
  15 O15            2.2660     4.0771     0.4168 O.2     
  16 C16            2.5033    -2.6102     0.4236 C.3     
  17 C17            2.4622    -4.0489    -0.1346 C.3     
  18 C18            1.3252    -4.0420    -1.1771 C.3     
  19 C19            0.7750    -2.5997    -1.1611 C.3     
  20 C20            2.7746    -4.2563    -1.6180 C.3     
  21 C21            3.1692    -5.6427    -2.0575 C.2     
  22 O22            3.2289    -6.5386    -1.2490 O.2     
  23 O23            3.4542    -5.8823    -3.3471 O.3     
  24 N24            0.0841     4.2211     0.0239 N.am    
  25 C25            0.1118     5.6148     0.1367 C.ar    
  26 C26           -0.9515     7.6682     0.7792 C.ar    
  27 C27           -0.9792     6.2914     0.6674 C.ar    
  28 C28            1.2318     6.3234    -0.2762 C.ar    
  29 C29            1.2555     7.7043    -0.1624 C.ar    
  30 C30            0.1604     8.3755     0.3638 C.ar    
  31 O31            2.3506     8.4009    -0.5653 O.3     
  32 H32           -0.9659     1.9190    -0.1825 H       
  33 H33           -0.9715    -0.5453    -0.1919 H       
  34 H34            4.4931     0.4474     1.7057 H       
  35 H35            4.8104     0.4568    -0.0457 H       
  36 H36            6.0413     2.5966     0.1889 H       
  37 H37            5.7239     2.5872     1.9403 H       
  38 H38            6.9171     0.3816     2.0957 H       
  39 H39            8.2818    -0.3392     0.1549 H       
  40 H40            6.5486    -0.3324    -0.2502 H       
  41 H41            7.6002     0.9871    -0.8170 H       
  42 H42            8.1042     2.5126     2.5410 H       
  43 H43            9.1903     1.3222     1.7849 H       
  44 H44            8.5086     2.6485     0.8130 H       
  45 H45            3.2453    -2.0163    -0.1102 H       
  46 H46            2.7219    -2.6228     1.4914 H       
  47 H47            2.5879    -4.8688     0.5725 H       
  48 H48            0.6045    -4.8568    -1.2460 H       
  49 H49           -0.3078    -2.6045    -1.2865 H       
  50 H50            1.2465    -2.0043    -1.9429 H       
  51 H51            3.2647    -3.4391    -2.1472 H       
  52 H52            3.7023    -6.7872    -3.5811 H       
  53 H53           -0.7448     3.7688    -0.1976 H       
  54 H54           -1.8007     8.1925     1.1920 H       
  55 H55           -1.8496     5.7408     0.9924 H       
  56 H56            2.0831     5.7995    -0.6850 H       
  57 H57            0.1787     9.4518     0.4518 H       
  58 H58            2.3232     8.6753    -1.4921 H       
@<TRIPOS>BOND
   1    1    2 ar
   2    1    6 ar
   3    1   32 1
   4    2    3 ar
   5    2   33 1
   6    3    4 ar
   7    3    7 1
   8    4    5 ar
   9    5    6 ar
  10    5    8 1
  11    6   14 1
  12    7   16 1
  13    7   19 1
  14    8    9 1
  15    9   10 1
  16    9   34 1
  17    9   35 1
  18   10   11 1
  19   10   36 1
  20   10   37 1
  21   11   12 1
  22   11   13 1
  23   11   38 1
  24   12   39 1
  25   12   40 1
  26   12   41 1
  27   13   42 1
  28   13   43 1
  29   13   44 1
  30   14   15 2
  31   14   24 am
  32   16   17 1
  33   16   45 1
  34   16   46 1
  35   17   18 1
  36   17   20 1
  37   17   47 1
  38   18   19 1
  39   18   20 1
  40   18   48 1
  41   19   49 1
  42   19   50 1
  43   20   21 1
  44   20   51 1
  45   21   22 2
  46   21   23 1
  47   23   52 1
  48   24   25 1
  49   24   53 1
  50   25   28 ar
  51   25   27 ar
  52   26   27 ar
  53   26   30 ar
  54   26   54 1
  55   27   55 1
  56   28   29 ar
  57   28   56 1
  58   29   30 ar
  59   29   31 1
  60   30   57 1
  61   31   58 1

#	End of record

