#	Name: ASD01120189
#	Creating user name:	WinNT
#	Creation time:	15. 06. 2019 18:59

#	Modifying user name:	WinNT
#	Modification time:	15. 06. 2019 18:59

#	Program:	/corina/corina34_cracker 3.40 0067  02.08.2006

@<TRIPOS>MOLECULE
ASD01120189
  29   31    0    0    0
SMALL
NO_CHARGES


@<TRIPOS>ATOM
   1 C1            -0.1494     0.6732     0.7929 C.ar    
   2 C2            -0.2739    -0.7070     0.7350 C.ar    
   3 C3            -1.5142    -1.2913     0.5719 C.ar    
   4 C4            -2.6434    -0.4966     0.4657 C.ar    
   5 C5            -2.5226     0.9001     0.5241 C.ar    
   6 C6            -1.2646     1.4785     0.6944 C.ar    
   7 O7            -3.9610    -0.7594     0.3043 O.3     
   8 C8            -4.6208     0.4115     0.2649 C.2     
   9 N9            -3.7800     1.4058     0.3942 N.2     
  10 Cl10           1.4181     1.3906     0.9977 Cl      
  11 N11           -5.9822     0.5448     0.1110 N.am    
  12 S12           -6.6831     2.0424     0.2027 S.o2    
  13 O13           -5.9266     2.8922    -0.6487 O.2     
  14 O14           -8.0819     1.8404     0.0555 O.2     
  15 C15           -6.4358     2.6344     1.8438 C.ar    
  16 C16           -7.0095     1.9699     2.9125 C.ar    
  17 C17           -6.8151     2.4352     4.2008 C.ar    
  18 C18           -6.0478     3.5637     4.4192 C.ar    
  19 C19           -5.4745     4.2276     3.3505 C.ar    
  20 C20           -5.6638     3.7598     2.0637 C.ar    
  21 Br21          -8.0598     0.4262     2.6129 Br      
  22 H22            0.6052    -1.3288     0.8176 H       
  23 H23           -1.6035    -2.3666     0.5270 H       
  24 H24           -1.1635     2.5528     0.7407 H       
  25 H25           -6.5310    -0.2384    -0.0511 H       
  26 H26           -7.2632     1.9169     5.0356 H       
  27 H27           -5.8963     3.9272     5.4248 H       
  28 H28           -4.8753     5.1097     3.5215 H       
  29 H29           -5.2155     4.2785     1.2292 H       
@<TRIPOS>BOND
   1    1    2 ar
   2    1   10 1
   3    1    6 ar
   4    2    3 ar
   5    2   22 1
   6    3    4 ar
   7    3   23 1
   8    4    5 ar
   9    4    7 1
  10    5    6 ar
  11    5    9 1
  12    6   24 1
  13    7    8 1
  14    8    9 2
  15    8   11 1
  16   11   12 am
  17   11   25 1
  18   12   13 2
  19   12   14 2
  20   12   15 1
  21   15   16 ar
  22   15   20 ar
  23   16   17 ar
  24   16   21 1
  25   17   18 ar
  26   17   26 1
  27   18   19 ar
  28   18   27 1
  29   19   20 ar
  30   19   28 1
  31   20   29 1

#	End of record

