#	Name: ASD03430160
#	Creating user name:	WinNT
#	Creation time:	15. 06. 2019 20:40

#	Modifying user name:	WinNT
#	Modification time:	15. 06. 2019 20:40

#	Program:	/corina/corina34_cracker 3.40 0067  02.08.2006

@<TRIPOS>MOLECULE
ASD03430160
  62   68    0    0    0
SMALL
NO_CHARGES


@<TRIPOS>ATOM
   1 C1             0.0440     1.2899     0.0883 C.ar    
   2 C2             0.0437    -0.0961     0.0564 C.ar    
   3 C3             1.2350    -0.7899     0.0266 C.ar    
   4 C4             2.4503    -0.1120     0.0388 C.ar    
   5 C5             2.4469     1.2789     0.0674 C.ar    
   6 C6             1.2518     1.9779     0.0931 C.ar    
   7 O7             3.5011    -0.9814     0.0329 O.3     
   8 C8             1.5631    -2.2577    -0.0336 C.3     
   9 C9             3.0483    -2.2714    -0.4205 C.3     
  10 C10            0.4149    -3.9743     0.9940 C.ar    
  11 C11            1.3180    -2.9513     1.2734 C.ar    
  12 C12            0.7186    -2.9893    -1.0370 C.2     
  13 N13            0.0849    -3.9699    -0.3634 N.am    
  14 O14            0.6247    -2.7452    -2.2214 O.2     
  15 C15            1.7868    -2.7612     2.5537 C.ar    
  16 C16            1.3622    -3.5897     3.5776 C.ar    
  17 C17            0.4662    -4.6085     3.3116 C.ar    
  18 C18           -0.0065    -4.8034     2.0301 C.ar    
  19 C19           -0.8414    -4.9208    -0.9829 C.3     
  20 C20           -2.2415    -4.3658    -0.9293 C.ar    
  21 C21           -2.7125    -3.5835    -1.9688 C.ar    
  22 C22           -3.9929    -3.0719    -1.9259 C.ar    
  23 C23           -4.8140    -3.3455    -0.8307 C.ar    
  24 C24           -4.3328    -4.1358     0.2145 C.ar    
  25 C25           -3.0521    -4.6454     0.1565 C.ar    
  26 C26           -6.1869    -2.8003    -0.7777 C.2     
  27 N27           -6.9772    -3.0662     0.2812 N.am    
  28 O28           -6.6032    -2.1120    -1.6891 O.2     
  29 C29           -8.2458    -2.4817     0.3720 C.ar    
  30 C30           -8.9128    -2.0850    -0.7786 C.ar    
  31 C31          -10.1651    -1.5082    -0.6858 C.ar    
  32 C32          -10.7547    -1.3256     0.5511 C.ar    
  33 C33          -10.0940    -1.7189     1.7008 C.ar    
  34 C34           -8.8434    -2.3023     1.6153 C.ar    
  35 F35           -8.1978    -2.6865     2.7382 F       
  36 O36           -1.1415     1.9595     0.1088 O.3     
  37 C37           -1.0979     3.3331     0.5103 C.3     
  38 C38            0.0634     4.0125    -0.2282 C.3     
  39 O39            1.2757     3.3390     0.1264 O.3     
  40 H40           -0.8927    -0.6342     0.0554 H       
  41 H41            3.3831     1.8174     0.0700 H       
  42 H42            3.1662    -2.3655    -1.5001 H       
  43 H43            3.5762    -3.0713     0.0987 H       
  44 H44            2.4870    -1.9650     2.7592 H       
  45 H45            1.7300    -3.4410     4.5821 H       
  46 H46            0.1349    -5.2552     4.1107 H       
  47 H47           -0.7059    -5.6016     1.8301 H       
  48 H48           -0.5545    -5.0833    -2.0218 H       
  49 H49           -0.8050    -5.8674    -0.4436 H       
  50 H50           -2.0761    -3.3726    -2.8156 H       
  51 H51           -4.3591    -2.4609    -2.7376 H       
  52 H52           -4.9629    -4.3509     1.0648 H       
  53 H53           -2.6786    -5.2573     0.9643 H       
  54 H54           -6.6669    -3.6627     0.9803 H       
  55 H55           -8.4534    -2.2266    -1.7456 H       
  56 H56          -10.6839    -1.1992    -1.5812 H       
  57 H57          -11.7336    -0.8745     0.6199 H       
  58 H58          -10.5571    -1.5741     2.6657 H       
  59 H59           -2.0361     3.8224     0.2490 H       
  60 H60           -0.9366     3.3967     1.5864 H       
  61 H61           -0.0942     3.9424    -1.3044 H       
  62 H62            0.1245     5.0598     0.0675 H       
@<TRIPOS>BOND
   1    1    2 ar
   2    1    6 ar
   3    1   36 1
   4    2    3 ar
   5    2   40 1
   6    3    4 ar
   7    3    8 1
   8    4    5 ar
   9    4    7 1
  10    5    6 ar
  11    5   41 1
  12    6   39 1
  13    7    9 1
  14    8    9 1
  15    8   11 1
  16    8   12 1
  17    9   42 1
  18    9   43 1
  19   10   11 ar
  20   10   13 1
  21   10   18 ar
  22   11   15 ar
  23   12   13 am
  24   12   14 2
  25   13   19 1
  26   15   16 ar
  27   15   44 1
  28   16   17 ar
  29   16   45 1
  30   17   18 ar
  31   17   46 1
  32   18   47 1
  33   19   20 1
  34   19   48 1
  35   19   49 1
  36   20   21 ar
  37   20   25 ar
  38   21   22 ar
  39   21   50 1
  40   22   23 ar
  41   22   51 1
  42   23   24 ar
  43   23   26 1
  44   24   25 ar
  45   24   52 1
  46   25   53 1
  47   26   27 am
  48   26   28 2
  49   27   29 1
  50   27   54 1
  51   29   30 ar
  52   29   34 ar
  53   30   31 ar
  54   30   55 1
  55   31   32 ar
  56   31   56 1
  57   32   33 ar
  58   32   57 1
  59   33   34 ar
  60   33   58 1
  61   34   35 1
  62   36   37 1
  63   37   38 1
  64   37   59 1
  65   37   60 1
  66   38   39 1
  67   38   61 1
  68   38   62 1

#	End of record

