#	Name: ASD03740241
#	Creating user name:	WinNT
#	Creation time:	15. 06. 2019 20:46

#	Modifying user name:	WinNT
#	Modification time:	15. 06. 2019 20:46

#	Program:	/corina/corina34_cracker 3.40 0067  02.08.2006

@<TRIPOS>MOLECULE
ASD03740241
  54   56    0    0    0
SMALL
NO_CHARGES


@<TRIPOS>ATOM
   1 C1            -0.1139     1.8702     0.3859 C.3     
   2 C2            -0.2048     0.3565     0.5892 C.3     
   3 C3             0.4356    -0.0177     1.9274 C.3     
   4 C4             1.9047     0.4095     1.9269 C.3     
   5 C5             1.9956     1.9233     1.7237 C.3     
   6 C6             1.3552     2.2975     0.3855 C.3     
   7 C7             2.5451     0.0353     3.2651 C.3     
   8 C8            -0.7447     2.2388    -0.9322 C.2     
   9 S9            -1.7780     4.5786    -4.8937 S.3     
  10 C10           -0.7881     4.1796    -3.4966 C.2     
  11 C11           -1.5988     3.8745    -2.4287 C.2     
  12 C12           -2.9450     3.9513    -2.6976 C.2     
  13 C13           -3.2525     4.3157    -3.9734 C.2     
  14 N14           -1.0971     3.5165    -1.1767 N.am    
  15 C15            0.6258     4.1729    -3.4746 C.2     
  16 C16           -4.6231     4.4675    -4.5054 C.ar    
  17 C17           -4.8213     4.8465    -5.8342 C.ar    
  18 C18           -6.1032     4.9865    -6.3244 C.ar    
  19 C19           -7.1910     4.7527    -5.5021 C.ar    
  20 C20           -7.0015     4.3772    -4.1839 C.ar    
  21 C21           -5.7249     4.2271    -3.6829 C.ar    
  22 C22           -0.9536     4.5294    -0.1281 C.3     
  23 C23           -0.1311     5.7037    -0.6625 C.3     
  24 C24           -2.3377     5.0265     0.2938 C.3     
  25 O25            1.2172     3.8851    -2.4504 O.2     
  26 O26            1.3197     4.4857    -4.5895 O.3     
  27 O27           -0.9352     1.3857    -1.7729 O.2     
  28 H28           -0.6396     2.3776     1.1948 H       
  29 H29           -1.2514     0.0521     0.5895 H       
  30 H30            0.3209    -0.1509    -0.2197 H       
  31 H31           -0.0901     0.4897     2.7363 H       
  32 H32            0.3709    -1.0961     2.0722 H       
  33 H33            2.4304    -0.0979     1.1181 H       
  34 H34            1.4699     2.4307     2.5325 H       
  35 H35            3.0422     2.2276     1.7233 H       
  36 H36            1.8809     1.7901    -0.4234 H       
  37 H37            1.4199     3.3759     0.2407 H       
  38 H38            2.4804    -1.0431     3.4100 H       
  39 H39            3.5917     0.3397     3.2648 H       
  40 H40            2.0194     0.5427     4.0740 H       
  41 H41           -3.6999     3.7388    -1.9550 H       
  42 H42           -3.9730     5.0300    -6.4769 H       
  43 H43           -6.2579     5.2797    -7.3523 H       
  44 H44           -8.1925     4.8640    -5.8907 H       
  45 H45           -7.8549     4.1965    -3.5472 H       
  46 H46           -5.5784     3.9293    -2.6552 H       
  47 H47           -0.4466     4.0925     0.7322 H       
  48 H48           -0.5863     6.0789    -1.5790 H       
  49 H49           -0.1062     6.4988     0.0827 H       
  50 H50            0.8852     5.3699    -0.8718 H       
  51 H51           -2.9237     4.1899     0.6745 H       
  52 H52           -2.2309     5.7801     1.0740 H       
  53 H53           -2.8447     5.4634    -0.5665 H       
  54 H54            2.2796     4.4539    -4.4773 H       
@<TRIPOS>BOND
   1    1    2 1
   2    1    6 1
   3    1    8 1
   4    1   28 1
   5    2    3 1
   6    2   29 1
   7    2   30 1
   8    3    4 1
   9    3   31 1
  10    3   32 1
  11    4    5 1
  12    4    7 1
  13    4   33 1
  14    5    6 1
  15    5   34 1
  16    5   35 1
  17    6   36 1
  18    6   37 1
  19    7   38 1
  20    7   39 1
  21    7   40 1
  22    8   14 am
  23    8   27 2
  24    9   10 1
  25    9   13 1
  26   10   11 2
  27   10   15 1
  28   11   12 1
  29   11   14 1
  30   12   13 2
  31   12   41 1
  32   13   16 1
  33   14   22 1
  34   15   25 2
  35   15   26 1
  36   16   17 ar
  37   16   21 ar
  38   17   18 ar
  39   17   42 1
  40   18   19 ar
  41   18   43 1
  42   19   20 ar
  43   19   44 1
  44   20   21 ar
  45   20   45 1
  46   21   46 1
  47   22   23 1
  48   22   24 1
  49   22   47 1
  50   23   48 1
  51   23   49 1
  52   23   50 1
  53   24   51 1
  54   24   52 1
  55   24   53 1
  56   26   54 1

#	End of record

