#	Name: ASD02030397
#	Creating user name:	WinNT
#	Creation time:	15. 06. 2019 20:15

#	Modifying user name:	WinNT
#	Modification time:	15. 06. 2019 20:15

#	Program:	/corina/corina34_cracker 3.40 0067  02.08.2006

@<TRIPOS>MOLECULE
ASD02030397
  49   51    0    0    0
SMALL
NO_CHARGES


@<TRIPOS>ATOM
   1 N1            -0.1413     1.5387    -0.0808 N.am    
   2 C2             0.0313     0.2021    -0.0836 C.2     
   3 C3            -1.1356    -0.6929     0.0419 C.ar    
   4 O4             1.1483    -0.2665    -0.1896 O.2     
   5 C5            -0.9588    -2.0791     0.0392 C.ar    
   6 C6            -2.0502    -2.9107     0.1570 C.ar    
   7 C7            -3.3261    -2.3731     0.2781 C.ar    
   8 C8            -3.5062    -0.9950     0.2808 C.ar    
   9 C9            -2.4195    -0.1564     0.1696 C.ar    
  10 O10           -4.3994    -3.1964     0.3936 O.3     
  11 C11           -5.2862    -3.1918    -0.6216 C.2     
  12 N12           -6.4270    -3.9026    -0.5230 N.am    
  13 S13           -4.9633    -2.2831    -2.0362 S.2     
  14 C14           -6.7033    -4.6802     0.6874 C.3     
  15 C15           -7.3908    -3.8976    -1.6264 C.3     
  16 C16            0.9675     2.3857    -0.1241 C.ar    
  17 C17            2.1493     1.9552    -0.6870 C.ar    
  18 C18            3.2610     2.7915    -0.7355 C.ar    
  19 C19            3.2125     4.0557    -0.2300 C.ar    
  20 C20            2.0248     4.5333     0.3526 C.ar    
  21 C21            0.8860     3.6925     0.4029 C.ar    
  22 C22            1.9449     5.8329     0.8818 C.ar    
  23 C23            0.7795     6.2631     1.4381 C.ar    
  24 C24           -0.3388     5.4335     1.4916 C.ar    
  25 C25           -0.2989     4.1708     0.9838 C.ar    
  26 C26           -7.4607    -3.8089     1.6915 C.3     
  27 C27           -7.0651    -5.0379    -2.5931 C.3     
  28 Cl28           4.6153     5.0756    -0.3042 Cl      
  29 H29           -1.0361     1.9122    -0.0526 H       
  30 H30            0.0323    -2.4976    -0.0556 H       
  31 H31           -1.9144    -3.9822     0.1550 H       
  32 H32           -4.4994    -0.5812     0.3747 H       
  33 H33           -2.5603     0.9144     0.1719 H       
  34 H34           -7.3093    -5.5491     0.4307 H       
  35 H35           -5.7633    -5.0106     1.1295 H       
  36 H36           -8.3972    -4.0333    -1.2303 H       
  37 H37           -7.3335    -2.9459    -2.1546 H       
  38 H38            2.2138     0.9573    -1.0949 H       
  39 H39            4.1770     2.4323    -1.1808 H       
  40 H40            2.8038     6.4866     0.8476 H       
  41 H41            0.7209     7.2621     1.8444 H       
  42 H42           -1.2515     5.7988     1.9387 H       
  43 H43           -1.1734     3.5387     1.0318 H       
  44 H44           -7.6662    -4.3874     2.5921 H       
  45 H45           -6.8547    -2.9400     1.9483 H       
  46 H46           -8.4006    -3.4785     1.2495 H       
  47 H47           -6.0588    -4.9022    -2.9892 H       
  48 H48           -7.1225    -5.9896    -2.0649 H       
  49 H49           -7.7822    -5.0342    -3.4140 H       
@<TRIPOS>BOND
   1    1    2 am
   2    1   16 1
   3    1   29 1
   4    2    3 1
   5    2    4 2
   6    3    5 ar
   7    3    9 ar
   8    5    6 ar
   9    5   30 1
  10    6    7 ar
  11    6   31 1
  12    7    8 ar
  13    7   10 1
  14    8    9 ar
  15    8   32 1
  16    9   33 1
  17   10   11 1
  18   11   12 am
  19   11   13 2
  20   12   14 1
  21   12   15 1
  22   14   26 1
  23   14   34 1
  24   14   35 1
  25   15   27 1
  26   15   36 1
  27   15   37 1
  28   16   17 ar
  29   16   21 ar
  30   17   18 ar
  31   17   38 1
  32   18   19 ar
  33   18   39 1
  34   19   20 ar
  35   19   28 1
  36   20   21 ar
  37   20   22 ar
  38   21   25 ar
  39   22   23 ar
  40   22   40 1
  41   23   24 ar
  42   23   41 1
  43   24   25 ar
  44   24   42 1
  45   25   43 1
  46   26   44 1
  47   26   45 1
  48   26   46 1
  49   27   47 1
  50   27   48 1
  51   27   49 1

#	End of record

