#	Name: ASD01810677
#	Creating user name:	WinNT
#	Creation time:	15. 06. 2019 19:25

#	Modifying user name:	WinNT
#	Modification time:	15. 06. 2019 19:25

#	Program:	/corina/corina34_cracker 3.40 0067  02.08.2006

@<TRIPOS>MOLECULE
ASD01810677
  60   64    0    0    0
SMALL
NO_CHARGES


@<TRIPOS>ATOM
   1 C1            -0.1774     1.9883     0.5198 C.ar    
   2 C2             0.0702     0.6144     0.5342 C.ar    
   3 C3            -0.9733    -0.2800     0.3977 C.ar    
   4 C4            -2.2669     0.1772     0.2458 C.ar    
   5 C5            -2.5286     1.5493     0.2297 C.ar    
   6 C6            -1.4811     2.4566     0.3732 C.ar    
   7 C7            -3.9148     2.0375     0.0670 C.2     
   8 N8            -4.4476     2.8706     0.9826 N.am    
   9 O9            -4.5737     1.6874    -0.8925 O.2     
  10 C10           -5.8498     3.2973     0.8802 C.3     
  11 C11           -3.6391     3.3646     2.1056 C.3     
  12 C12           -4.3745     3.0595     3.4144 C.3     
  13 C13           -5.7864     3.6465     3.3503 C.3     
  14 C14           -6.5559     2.9931     2.2052 C.3     
  15 C15           -6.5013     3.3777     4.6495 C.ar    
  16 C16           -6.9582     4.4354     5.4156 C.ar    
  17 C17           -7.6138     4.1966     6.6057 C.ar    
  18 C18           -7.8158     2.8838     7.0365 C.ar    
  19 C19           -7.3520     1.8212     6.2583 C.ar    
  20 C20           -6.7027     2.0743     5.0678 C.ar    
  21 C21            0.9416     2.9447     0.6661 C.2     
  22 N22            2.1847     2.6167     0.9178 N.2     
  23 C23            2.9449     3.7373     0.9870 C.ar    
  24 C24            2.0916     4.8335     0.7585 C.ar    
  25 N25            0.8344     4.3049     0.5531 N.pl3   
  26 C26            4.3022     3.9605     1.2241 C.ar    
  27 C27            4.7916     5.2629     1.2310 C.ar    
  28 C28            3.9268     6.3420     1.0019 C.ar    
  29 C29            2.5993     6.1277     0.7691 C.ar    
  30 C30            1.4794     0.1061     0.6985 C.3     
  31 C31           -3.3993    -0.8060     0.0965 C.3     
  32 C32           -8.4950     2.6285     8.2710 C.1     
  33 N33           -9.0339     2.4259     9.2503 N.1     
  34 C34            6.1826     5.5016     1.4733 C.1     
  35 N35            7.2861     5.6910     1.6656 N.1     
  36 H36           -0.7763    -1.3418     0.4094 H       
  37 H37           -1.6780     3.5184     0.3619 H       
  38 H38           -5.8923     4.3681     0.6810 H       
  39 H39           -6.3392     2.7535     0.0721 H       
  40 H40           -2.6703     2.8651     2.1058 H       
  41 H41           -3.4976     4.4410     2.0083 H       
  42 H42           -4.4352     1.9802     3.5545 H       
  43 H43           -3.8327     3.5052     4.2486 H       
  44 H44           -5.7253     4.7222     3.1855 H       
  45 H45           -7.5693     3.3932     2.1729 H       
  46 H46           -6.5947     1.9150     2.3614 H       
  47 H47           -6.8010     5.4502     5.0814 H       
  48 H48           -7.9696     5.0230     7.2029 H       
  49 H49           -7.5046     0.8035     6.5859 H       
  50 H50           -6.3434     1.2534     4.4650 H       
  51 H51            0.0235     4.8045     0.3691 H       
  52 H52            4.9675     3.1284     1.4012 H       
  53 H53            4.3140     7.3502     1.0092 H       
  54 H54            1.9412     6.9658     0.5931 H       
  55 H55            1.7324     0.0727     1.7582 H       
  56 H56            1.5561    -0.8953     0.2749 H       
  57 H57            2.1689     0.7732     0.1812 H       
  58 H58           -3.7395    -1.1208     1.0830 H       
  59 H59           -4.2230    -0.3330    -0.4381 H       
  60 H60           -3.0542    -1.6752    -0.4633 H       
@<TRIPOS>BOND
   1    1    2 ar
   2    1   21 1
   3    1    6 ar
   4    2    3 ar
   5    2   30 1
   6    3    4 ar
   7    3   36 1
   8    4    5 ar
   9    4   31 1
  10    5    6 ar
  11    5    7 1
  12    6   37 1
  13    7    8 am
  14    7    9 2
  15    8   10 1
  16    8   11 1
  17   10   14 1
  18   10   38 1
  19   10   39 1
  20   11   12 1
  21   11   40 1
  22   11   41 1
  23   12   13 1
  24   12   42 1
  25   12   43 1
  26   13   14 1
  27   13   15 1
  28   13   44 1
  29   14   45 1
  30   14   46 1
  31   15   16 ar
  32   15   20 ar
  33   16   17 ar
  34   16   47 1
  35   17   18 ar
  36   17   48 1
  37   18   19 ar
  38   18   32 1
  39   19   20 ar
  40   19   49 1
  41   20   50 1
  42   21   22 2
  43   21   25 1
  44   22   23 1
  45   23   24 ar
  46   23   26 ar
  47   24   25 1
  48   24   29 ar
  49   25   51 1
  50   26   27 ar
  51   26   52 1
  52   27   28 ar
  53   27   34 1
  54   28   29 ar
  55   28   53 1
  56   29   54 1
  57   30   55 1
  58   30   56 1
  59   30   57 1
  60   31   58 1
  61   31   59 1
  62   31   60 1
  63   32   33 3
  64   34   35 3

#	End of record

