#	Name: ASD01028538
#	Creating user name:	WinNT
#	Creation time:	15. 06. 2019 18:57

#	Modifying user name:	WinNT
#	Modification time:	15. 06. 2019 18:57

#	Program:	/corina/corina34_cracker 3.40 0067  02.08.2006

@<TRIPOS>MOLECULE
ASD01028538
  40   44    0    0    0
SMALL
NO_CHARGES


@<TRIPOS>ATOM
   1 N1            -0.0169     1.3921     0.0097 N.2     
   2 N2             0.0021    -0.0041     0.0020 N.pl3   
   3 C3             1.1071     2.0741     0.0026 C.2     
   4 C4             2.3532     1.4123    -0.0133 C.2     
   5 C5             2.4037     0.0542    -0.0211 C.2     
   6 C6             1.2008    -0.6771    -0.0130 C.2     
   7 N7             0.9145    -1.9687    -0.0178 N.2     
   8 N8            -0.3638    -2.1208    -0.0063 N.2     
   9 C9            -0.9586    -0.9539     0.0061 C.2     
  10 C10           -2.4463    -0.7141     0.0220 C.3     
  11 C11            1.0647     3.5571     0.0110 C.ar    
  12 N12           -2.9150    -0.6448     1.4083 N.pl3   
  13 C13           -0.1601     4.2216     0.0263 C.ar    
  14 C14           -0.1936     5.6013     0.0339 C.ar    
  15 C15            0.9856     6.3244     0.0265 C.ar    
  16 C16            2.2041     5.6700     0.0109 C.ar    
  17 C17            2.2496     4.2906     0.0094 C.ar    
  18 C18           -3.4341    -1.6806     2.1238 C.2     
  19 C19           -3.7573    -1.2501     3.3619 C.2     
  20 C20           -3.4327     0.1161     3.4439 C.2     
  21 C21           -2.8984     0.4792     2.2079 C.2     
  22 N22           -3.5434     1.0519     4.4474 N.am    
  23 C23           -3.1438     2.3216     4.2418 C.2     
  24 C24           -2.6088     2.7119     3.0039 C.2     
  25 C25           -2.4807     1.8013     1.9965 C.2     
  26 O26           -3.2481     3.1410     5.1404 O.2     
  27 H27            3.2683     1.9860    -0.0197 H       
  28 H28            3.3547    -0.4576    -0.0329 H       
  29 H29           -2.6683     0.2255    -0.4840 H       
  30 H30           -2.9517    -1.5318    -0.4920 H       
  31 H31           -1.0814     3.6581     0.0317 H       
  32 H32           -1.1423     6.1174     0.0454 H       
  33 H33            0.9547     7.4040     0.0326 H       
  34 H34            3.1217     6.2395     0.0048 H       
  35 H35            3.2015     3.7807    -0.0024 H       
  36 H36           -3.5664    -2.6883     1.7583 H       
  37 H37           -4.1895    -1.8488     4.1501 H       
  38 H38           -3.9116     0.7955     5.3074 H       
  39 H39           -2.2925     3.7331     2.8510 H       
  40 H40           -2.0697     2.0974     1.0427 H       
@<TRIPOS>BOND
   1    1    2 1
   2    1    3 2
   3    2    6 1
   4    2    9 1
   5    3    4 1
   6    3   11 1
   7    4    5 2
   8    4   27 1
   9    5    6 1
  10    5   28 1
  11    6    7 2
  12    7    8 1
  13    8    9 2
  14    9   10 1
  15   10   12 1
  16   10   29 1
  17   10   30 1
  18   11   13 ar
  19   11   17 ar
  20   12   18 1
  21   12   21 1
  22   13   14 ar
  23   13   31 1
  24   14   15 ar
  25   14   32 1
  26   15   16 ar
  27   15   33 1
  28   16   17 ar
  29   16   34 1
  30   17   35 1
  31   18   19 2
  32   18   36 1
  33   19   20 1
  34   19   37 1
  35   20   21 2
  36   20   22 1
  37   21   25 1
  38   22   23 am
  39   22   38 1
  40   23   24 1
  41   23   26 2
  42   24   25 2
  43   24   39 1
  44   25   40 1

#	End of record

