#	Name: ASD02198469
#	Creating user name:	WinNT
#	Creation time:	15. 06. 2019 20:19

#	Modifying user name:	WinNT
#	Modification time:	15. 06. 2019 20:19

#	Program:	/corina/corina34_cracker 3.40 0067  02.08.2006

@<TRIPOS>MOLECULE
ASD02198469
  41   44    0    0    0
SMALL
NO_CHARGES


@<TRIPOS>ATOM
   1 C1            -0.2819     1.6236    -0.2718 C.2     
   2 C2            -0.4278     0.2760    -0.2167 C.2     
   3 N3             0.6479    -0.5330    -0.0858 N.pl3   
   4 N4             1.8509    -0.0975    -0.0070 N.2     
   5 C5             2.1334     1.1866    -0.0480 C.2     
   6 C6             1.0295     2.1503    -0.1885 C.2     
   7 C7             0.4372    -1.9148    -0.0334 C.ar    
   8 C8            -1.0596    -3.7849     0.0836 C.ar    
   9 C9             0.0203    -4.6483     0.0701 C.ar    
  10 C10            1.3087    -4.1486     0.0108 C.ar    
  11 C11            1.5203    -2.7851    -0.0410 C.ar    
  12 C12            3.5318     1.6528     0.0462 C.2     
  13 N13            4.1831     2.4527    -0.8502 N.pl3   
  14 N14            5.4869     2.6491    -0.3780 N.2     
  15 C15            5.6275     2.0019     0.7513 C.2     
  16 C16            4.4233     1.3680     1.0572 C.2     
  17 C17            3.6437     2.9810    -2.0299 C.ar    
  18 C18            2.8453     2.1897    -2.8449 C.ar    
  19 O19            1.2364     3.3538    -0.2318 O.2     
  20 C20           -0.8551    -2.4199     0.0320 C.ar    
  21 C21            3.9017     4.2988    -2.3835 C.ar    
  22 C22            3.3684     4.8184    -3.5471 C.ar    
  23 C23            2.5776     4.0285    -4.3603 C.ar    
  24 C24            2.3138     2.7147    -4.0089 C.ar    
  25 F25            1.5406     1.9448    -4.8055 F       
  26 C26           -2.4615    -4.3339     0.1484 C.3     
  27 F27           -2.4137    -5.7316     0.1862 F       
  28 F28           -3.0961    -3.8577     1.3006 F       
  29 F29           -3.1762    -3.9222    -0.9816 F       
  30 H30           -1.1379     2.2732    -0.3803 H       
  31 H31           -1.4157    -0.1563    -0.2776 H       
  32 H32           -0.1426    -5.7154     0.1064 H       
  33 H33            2.1499    -4.8257     0.0004 H       
  34 H34            2.5265    -2.3956    -0.0877 H       
  35 H35            6.5263     1.9677     1.3493 H       
  36 H36            4.2272     0.7579     1.9265 H       
  37 H37            2.6399     1.1655    -2.5705 H       
  38 H38           -1.6990    -1.7460     0.0430 H       
  39 H39            4.5187     4.9175    -1.7487 H       
  40 H40            3.5694     5.8434    -3.8216 H       
  41 H41            2.1617     4.4373    -5.2693 H       
@<TRIPOS>BOND
   1    1    2 2
   2    1    6 1
   3    1   30 1
   4    2    3 1
   5    2   31 1
   6    3    4 1
   7    3    7 1
   8    4    5 2
   9    5    6 1
  10    5   12 1
  11    6   19 2
  12    7   20 ar
  13    7   11 ar
  14    8    9 ar
  15    8   26 1
  16    8   20 ar
  17    9   10 ar
  18    9   32 1
  19   10   11 ar
  20   10   33 1
  21   11   34 1
  22   12   13 1
  23   12   16 2
  24   13   14 1
  25   13   17 1
  26   14   15 2
  27   15   16 1
  28   15   35 1
  29   16   36 1
  30   17   21 ar
  31   17   18 ar
  32   18   24 ar
  33   18   37 1
  34   20   38 1
  35   21   22 ar
  36   21   39 1
  37   22   23 ar
  38   22   40 1
  39   23   24 ar
  40   23   41 1
  41   24   25 1
  42   26   27 1
  43   26   28 1
  44   26   29 1

#	End of record

