#	Name: ASD00170148
#	Creating user name:	WinNT
#	Creation time:	15. 06. 2019 18:31

#	Modifying user name:	WinNT
#	Modification time:	15. 06. 2019 18:31

#	Program:	/corina/corina34_cracker 3.40 0067  02.08.2006

@<TRIPOS>MOLECULE
ASD00170148
  23   24    0    0    0
SMALL
NO_CHARGES


@<TRIPOS>ATOM
   1 C1             0.0042     1.3223     0.1985 C.2     
   2 C2             0.0144     0.0004     0.1268 C.2     
   3 C3             1.3490    -0.5571     0.0608 C.2     
   4 C4             2.3289     0.4084     0.0867 C.2     
   5 S5             1.6375     1.9629     0.1893 S.3     
   6 N6             3.6842     0.1533     0.0372 N.pl3   
   7 C7             1.6254    -1.9907    -0.0234 C.2     
   8 C8             0.5189    -2.9656     0.0939 C.ar    
   9 O9             2.7664    -2.3820    -0.1900 O.2     
  10 C10            0.5786    -4.1791    -0.5923 C.ar    
  11 C11           -0.4574    -5.0846    -0.4781 C.ar    
  12 C12           -1.5531    -4.7904     0.3150 C.ar    
  13 C13           -1.6176    -3.5886     0.9977 C.ar    
  14 C14           -0.5867    -2.6777     0.8961 C.ar    
  15 Br15          -0.3796    -6.7297    -1.4074 Br      
  16 H16           -0.8899     1.9258     0.2510 H       
  17 H17           -0.8824    -0.6014     0.1189 H       
  18 H18            4.0039    -0.7607    -0.0203 H       
  19 H19            4.3171     0.8880     0.0599 H       
  20 H20            1.4329    -4.4093    -1.2116 H       
  21 H21           -2.3612    -5.5017     0.4010 H       
  22 H22           -2.4753    -3.3648     1.6146 H       
  23 H23           -0.6384    -1.7403     1.4300 H       
@<TRIPOS>BOND
   1    1    2 2
   2    1    5 1
   3    1   16 1
   4    2    3 1
   5    2   17 1
   6    3    4 2
   7    3    7 1
   8    4    5 1
   9    4    6 1
  10    6   18 1
  11    6   19 1
  12    7    8 1
  13    7    9 2
  14    8   10 ar
  15    8   14 ar
  16   10   11 ar
  17   10   20 1
  18   11   12 ar
  19   11   15 1
  20   12   13 ar
  21   12   21 1
  22   13   14 ar
  23   13   22 1
  24   14   23 1

#	End of record

