#	Name: ASD01190142
#	Creating user name:	WinNT
#	Creation time:	15. 06. 2019 19:07

#	Modifying user name:	WinNT
#	Modification time:	15. 06. 2019 19:07

#	Program:	/corina/corina34_cracker 3.40 0067  02.08.2006

@<TRIPOS>MOLECULE
ASD01190142
  47   50    0    0    0
SMALL
NO_CHARGES


@<TRIPOS>ATOM
   1 N1             3.4371     4.3652     0.1988 N.pl3   
   2 N2             2.8042     4.0592     1.2741 N.2     
   3 C3             2.7356     2.7490     1.4014 C.2     
   4 C4             3.3986     2.1903     0.2827 C.2     
   5 C5             3.8253     3.2462    -0.4493 C.2     
   6 C6             2.1101     2.0281     2.4690 C.1     
   7 N7             1.6139     1.4562     3.3159 N.1     
   8 C8             3.5898     0.7281    -0.0279 C.3     
   9 C9             2.2311     0.0858    -0.3146 C.3     
  10 O10            4.4329     0.5907    -1.1734 O.3     
  11 N11            6.1958    -1.6786     4.3340 N.pl3   
  12 N12            7.4103    -0.9879     4.2676 N.2     
  13 C13            7.3907    -0.1421     3.2766 C.2     
  14 C14            6.0918    -0.2528     2.6204 C.ar    
  15 C15            5.4981     0.3840     1.5249 C.ar    
  16 C16            4.2301     0.0435     1.1521 C.ar    
  17 C17            3.5237    -0.9282     1.8505 C.ar    
  18 C18            4.0820    -1.5634     2.9236 C.ar    
  19 C19            5.3740    -1.2373     3.3268 C.ar    
  20 C20            5.8724    -2.6662     5.2734 C.ar    
  21 C21            6.8520    -3.5374     5.7316 C.ar    
  22 C22            6.5311    -4.5103     6.6577 C.ar    
  23 C23            5.2335    -4.6175     7.1295 C.ar    
  24 C24            4.2551    -3.7497     6.6738 C.ar    
  25 C25            4.5731    -2.7717     5.7521 C.ar    
  26 F26            4.9215    -5.5702     8.0351 F       
  27 F27            1.6367     0.7214    -1.4100 F       
  28 F28            2.4086    -1.2716    -0.6030 F       
  29 F29            1.4057     0.2202     0.8069 F       
  30 C30            3.6952     5.7320    -0.2612 C.3     
  31 C31            2.3927     6.4838    -0.3579 C.2     
  32 C32            2.2425     7.6184     0.2795 C.2     
  33 H33            4.3736     3.2017    -1.3787 H       
  34 H34            5.3128     0.9763    -1.0627 H       
  35 H35            8.1927     0.5227     2.9917 H       
  36 H36            6.0402     1.1408     0.9774 H       
  37 H37            2.5210    -1.1842     1.5415 H       
  38 H38            3.5221    -2.3166     3.4581 H       
  39 H39            7.8640    -3.4544     5.3637 H       
  40 H40            7.2925    -5.1883     7.0140 H       
  41 H41            3.2437    -3.8351     7.0427 H       
  42 H42            3.8109    -2.0920     5.4006 H       
  43 H43            4.3536     6.2354     0.4467 H       
  44 H44            4.1709     5.7017    -1.2415 H       
  45 H45            1.5832     6.0873    -0.9527 H       
  46 H46            1.3090     8.1572     0.2102 H       
  47 H47            3.0520     8.0149     0.8743 H       
@<TRIPOS>BOND
   1    1    2 1
   2    1    5 1
   3    1   30 1
   4    2    3 2
   5    3    4 1
   6    3    6 1
   7    4    5 2
   8    4    8 1
   9    5   33 1
  10    6    7 3
  11    8    9 1
  12    8   10 1
  13    8   16 1
  14    9   27 1
  15    9   28 1
  16    9   29 1
  17   10   34 1
  18   11   12 1
  19   11   19 1
  20   11   20 1
  21   12   13 2
  22   13   14 1
  23   13   35 1
  24   14   15 ar
  25   14   19 ar
  26   15   16 ar
  27   15   36 1
  28   16   17 ar
  29   17   18 ar
  30   17   37 1
  31   18   19 ar
  32   18   38 1
  33   20   21 ar
  34   20   25 ar
  35   21   22 ar
  36   21   39 1
  37   22   23 ar
  38   22   40 1
  39   23   24 ar
  40   23   26 1
  41   24   25 ar
  42   24   41 1
  43   25   42 1
  44   30   31 1
  45   30   43 1
  46   30   44 1
  47   31   32 2
  48   31   45 1
  49   32   46 1
  50   32   47 1

#	End of record

