#	Name: ASD02198068
#	Creating user name:	WinNT
#	Creation time:	15. 06. 2019 20:18

#	Modifying user name:	WinNT
#	Modification time:	15. 06. 2019 20:18

#	Program:	/corina/corina34_cracker 3.40 0067  02.08.2006

@<TRIPOS>MOLECULE
ASD02198068
  53   56    0    0    0
SMALL
NO_CHARGES


@<TRIPOS>ATOM
   1 C1            -0.0166     1.3753     0.0096 C.2     
   2 C2             0.0021    -0.0041     0.0020 C.2     
   3 C3            -1.1878    -0.8008     0.0083 C.1     
   4 S4             1.5675     2.0054    -0.0021 S.3     
   5 C5             2.2772     0.3990    -0.0175 C.2     
   6 C6             1.2824    -0.5520    -0.0131 C.2     
   7 C7             3.6579     0.1249    -0.0326 C.2     
   8 C8             4.6308     1.2351    -0.0359 C.2     
   9 O9             4.0505    -1.0301    -0.0430 O.2     
  10 N10            1.5294    -1.9154    -0.0219 N.pl3   
  11 N11           -1.1593     2.1393     0.0193 N.pl3   
  12 N12           -2.1317    -1.4328     0.0134 N.1     
  13 O13            4.3523     2.5520    -0.0253 O.3     
  14 N14            5.3581     3.2224    -0.0315 N.2     
  15 C15            6.4372     2.4802    -0.0468 C.2     
  16 C16            5.9936     1.1303    -0.0443 C.2     
  17 C17           -1.0630     3.6011     0.0268 C.3     
  18 C18           -2.4689     4.2047     0.0369 C.3     
  19 N19           -2.3723     5.6705     0.0444 N.3     
  20 C20           -3.6861     6.2856    -0.1839 C.3     
  21 C21           -1.3887     6.1382    -0.9405 C.3     
  22 C22           -1.2086     7.6518    -0.8045 C.3     
  23 C23           -2.5555     8.3437    -1.0324 C.3     
  24 C24           -3.5746     7.8037    -0.0253 C.3     
  25 C25            7.8438     2.9548    -0.0589 C.ar    
  26 C26            8.1210     4.3201    -0.0539 C.ar    
  27 C27            9.4305     4.7560    -0.0653 C.ar    
  28 C28           10.4668     3.8399    -0.0821 C.ar    
  29 C29           10.1972     2.4832    -0.0872 C.ar    
  30 C30            8.8914     2.0365    -0.0697 C.ar    
  31 H31            2.4424    -2.2428    -0.0317 H       
  32 H32            0.7893    -2.5424    -0.0182 H       
  33 H33           -2.0294     1.7105     0.0212 H       
  34 H34            6.5928     0.2319    -0.0536 H       
  35 H35           -0.5221     3.9251     0.9159 H       
  36 H36           -0.5308     3.9347    -0.8640 H       
  37 H37           -3.0098     3.8808    -0.8522 H       
  38 H38           -3.0011     3.8711     0.9277 H       
  39 H39           -4.0272     6.0499    -1.1919 H       
  40 H40           -4.4004     5.8962     0.5415 H       
  41 H41           -0.4344     5.6417    -0.7647 H       
  42 H42           -1.7406     5.9031    -1.9450 H       
  43 H43           -0.8436     7.8865     0.1954 H       
  44 H44           -0.4901     8.0009    -1.5461 H       
  45 H45           -2.4408     9.4187    -0.8937 H       
  46 H46           -2.9022     8.1411    -2.0457 H       
  47 H47           -4.5465     8.2612    -0.2102 H       
  48 H48           -3.2468     8.0407     0.9869 H       
  49 H49            7.3126     5.0362    -0.0415 H       
  50 H50            9.6465     5.8141    -0.0614 H       
  51 H51           11.4901     4.1852    -0.0917 H       
  52 H52           11.0101     1.7722    -0.1004 H       
  53 H53            8.6820     0.9770    -0.0736 H       
@<TRIPOS>BOND
   1    1    2 2
   2    1    4 1
   3    1   11 1
   4    2    3 1
   5    2    6 1
   6    3   12 3
   7    4    5 1
   8    5    6 2
   9    5    7 1
  10    6   10 1
  11    7    8 1
  12    7    9 2
  13    8   13 1
  14    8   16 2
  15   10   31 1
  16   10   32 1
  17   11   17 1
  18   11   33 1
  19   13   14 1
  20   14   15 2
  21   15   16 1
  22   15   25 1
  23   16   34 1
  24   17   18 1
  25   17   35 1
  26   17   36 1
  27   18   19 1
  28   18   37 1
  29   18   38 1
  30   19   20 1
  31   19   21 1
  32   20   24 1
  33   20   39 1
  34   20   40 1
  35   21   22 1
  36   21   41 1
  37   21   42 1
  38   22   23 1
  39   22   43 1
  40   22   44 1
  41   23   24 1
  42   23   45 1
  43   23   46 1
  44   24   47 1
  45   24   48 1
  46   25   26 ar
  47   25   30 ar
  48   26   27 ar
  49   26   49 1
  50   27   28 ar
  51   27   50 1
  52   28   29 ar
  53   28   51 1
  54   29   30 ar
  55   29   52 1
  56   30   53 1

#	End of record

