#	Name: ASD01180030
#	Creating user name:	WinNT
#	Creation time:	15. 06. 2019 19:06

#	Modifying user name:	WinNT
#	Modification time:	15. 06. 2019 19:06

#	Program:	/corina/corina34_cracker 3.40 0067  02.08.2006

@<TRIPOS>MOLECULE
ASD01180030
  31   32    0    0    0
SMALL
NO_CHARGES


@<TRIPOS>ATOM
   1 N1             0.1341     1.1892     0.6831 N.ar    
   2 C2             0.1364    -0.0933     0.4114 C.ar    
   3 C3             1.2077    -0.6749    -0.2896 C.ar    
   4 N4             2.2281     0.0622    -0.6850 N.ar    
   5 C5             2.2415     1.3740    -0.4160 C.ar    
   6 C6             3.3138     2.1846    -0.8232 C.ar    
   7 C7             3.3016     3.5163    -0.5359 C.ar    
   8 C8             2.2364     4.0893     0.1599 C.ar    
   9 C9             1.1807     3.3324     0.5701 C.ar    
  10 C10            1.1596     1.9558     0.2907 C.ar    
  11 S11           -1.2152    -1.0978     0.9299 S.o2    
  12 O12           -0.6216    -2.3509     1.2406 O.2     
  13 O13           -1.8620    -0.3250     1.9317 O.2     
  14 C14           -2.2654    -1.2386    -0.5425 C.3     
  15 Cl15           2.2571     5.7900     0.5080 Cl      
  16 Cl16           4.6295     4.5137    -1.0416 Cl      
  17 N17            2.3701    -2.6825    -0.9592 N.am    
  18 N18            1.1918    -2.0338    -0.5671 N.pl3   
  19 C19            2.3546    -4.0029    -1.2289 C.2     
  20 C20            3.6220    -4.7007    -1.6507 C.3     
  21 O21            1.3207    -4.6295    -1.1322 O.2     
  22 H22            4.1449     1.7538    -1.3618 H       
  23 H23            0.3632     3.7888     1.1084 H       
  24 H24           -1.6991    -1.7034    -1.3496 H       
  25 H25           -3.1365    -1.8512    -0.3102 H       
  26 H26           -2.5916    -0.2458    -0.8524 H       
  27 H27            3.1969    -2.1813    -1.0366 H       
  28 H28            0.3649    -2.5349    -0.4898 H       
  29 H29            4.1430    -5.0724    -0.7684 H       
  30 H30            3.3760    -5.5361    -2.3062 H       
  31 H31            4.2638    -3.9983    -2.1825 H       
@<TRIPOS>BOND
   1    1    2 ar
   2    1   10 ar
   3    2    3 ar
   4    2   11 1
   5    3    4 ar
   6    3   18 1
   7    4    5 ar
   8    5    6 ar
   9    5   10 ar
  10    6    7 ar
  11    6   22 1
  12    7    8 ar
  13    7   16 1
  14    8    9 ar
  15    8   15 1
  16    9   10 ar
  17    9   23 1
  18   11   12 2
  19   11   13 2
  20   11   14 1
  21   14   24 1
  22   14   25 1
  23   14   26 1
  24   17   19 am
  25   17   18 1
  26   17   27 1
  27   18   28 1
  28   19   20 1
  29   19   21 2
  30   20   29 1
  31   20   30 1
  32   20   31 1

#	End of record

