#	Name: ASD01916192
#	Creating user name:	WinNT
#	Creation time:	15. 06. 2019 20:06

#	Modifying user name:	WinNT
#	Modification time:	15. 06. 2019 20:06

#	Program:	/corina/corina34_cracker 3.40 0067  02.08.2006

@<TRIPOS>MOLECULE
ASD01916192
  39   42    0    0    0
SMALL
NO_CHARGES


@<TRIPOS>ATOM
   1 C1             0.0225     1.8537    -2.1114 C.ar    
   2 C2             0.0520     0.6002    -2.6943 C.ar    
   3 C3             1.2613    -0.0280    -2.9278 C.ar    
   4 C4             2.4436     0.5958    -2.5795 C.ar    
   5 C5             2.4169     1.8537    -1.9949 C.ar    
   6 C6             1.2021     2.4817    -1.7612 C.ar    
   7 O7             3.5786     2.4693    -1.6509 O.3     
   8 C8             3.4749     3.7632    -1.0533 C.3     
   9 C9             4.8542     4.2848    -0.7424 C.2     
  10 N10            5.1331     5.4672    -0.1773 N.2     
  11 C11            6.4373     5.5934    -0.0545 C.2     
  12 N12            7.0275     4.4574    -0.5552 N.am    
  13 C13            6.0114     3.6371    -0.9811 C.2     
  14 C14            7.2947     6.6538     0.4820 C.2     
  15 C15            8.6293     6.4695     0.4616 C.2     
  16 N16            9.1540     5.3066    -0.0548 N.am    
  17 C17            8.3655     4.3356    -0.5463 C.2     
  18 O18            8.8739     3.3250    -0.9921 O.2     
  19 C19           10.5442     5.1308    -0.0685 C.ar    
  20 C20           11.1801     4.5337     1.0119 C.ar    
  21 C21           12.5502     4.3614     0.9965 C.ar    
  22 C22           13.2899     4.7836    -0.0955 C.ar    
  23 C23           12.6576     5.3794    -1.1740 C.ar    
  24 C24           11.2869     5.5483    -1.1649 C.ar    
  25 I25            6.4659     8.4132     1.2609 I       
  26 F26           14.6302     4.6146    -0.1085 F       
  27 H27           -0.9232     2.3440    -1.9338 H       
  28 H28           -0.8713     0.1109    -2.9674 H       
  29 H29            1.2816    -1.0073    -3.3826 H       
  30 H30            3.3880     0.1046    -2.7618 H       
  31 H31            1.1786     3.4610    -1.3065 H       
  32 H32            2.9763     4.4434    -1.7438 H       
  33 H33            2.8969     3.6926    -0.1319 H       
  34 H34            6.1198     2.6602    -1.4289 H       
  35 H35            9.2866     7.2335     0.8497 H       
  36 H36           10.6036     4.2046     1.8638 H       
  37 H37           13.0452     3.8974     1.8367 H       
  38 H38           13.2362     5.7080    -2.0246 H       
  39 H39           10.7942     6.0129    -2.0061 H       
@<TRIPOS>BOND
   1    1    2 ar
   2    1    6 ar
   3    1   27 1
   4    2    3 ar
   5    2   28 1
   6    3    4 ar
   7    3   29 1
   8    4    5 ar
   9    4   30 1
  10    5    6 ar
  11    5    7 1
  12    6   31 1
  13    7    8 1
  14    8    9 1
  15    8   32 1
  16    8   33 1
  17    9   10 1
  18    9   13 2
  19   10   11 2
  20   11   12 1
  21   11   14 1
  22   12   13 1
  23   12   17 am
  24   13   34 1
  25   14   15 2
  26   14   25 1
  27   15   16 1
  28   15   35 1
  29   16   17 am
  30   16   19 1
  31   17   18 2
  32   19   20 ar
  33   19   24 ar
  34   20   21 ar
  35   20   36 1
  36   21   22 ar
  37   21   37 1
  38   22   23 ar
  39   22   26 1
  40   23   24 ar
  41   23   38 1
  42   24   39 1

#	End of record

