#	Name: ASD01914159
#	Creating user name:	WinNT
#	Creation time:	15. 06. 2019 20:02

#	Modifying user name:	WinNT
#	Modification time:	15. 06. 2019 20:02

#	Program:	/corina/corina34_cracker 3.40 0067  02.08.2006

@<TRIPOS>MOLECULE
ASD01914159
  52   55    0    0    0
SMALL
NO_CHARGES


@<TRIPOS>ATOM
   1 C1            -1.0017     1.6517    -0.2130 C.2     
   2 C2            -0.8148     0.1950    -0.2056 C.2     
   3 N3            -1.7649    -0.7253    -0.1285 N.2     
   4 C4            -1.1257    -1.9040    -0.1556 C.2     
   5 N5             0.1489    -1.6605    -0.2454 N.2     
   6 O6             0.3530    -0.4655    -0.2816 O.3     
   7 C7            -1.7685    -3.2656    -0.0928 C.3     
   8 C8            -1.4208    -4.0534    -1.3578 C.3     
   9 C9            -2.0999    -5.4241    -1.3101 C.3     
  10 C10           -1.5825    -6.2039    -0.0973 C.3     
  11 N11           -1.7820    -5.3892     1.1091 N.am    
  12 C12           -1.2473    -4.0209     1.1338 C.3     
  13 C13           -2.4430    -5.8875     2.1726 C.2     
  14 C14           -2.5239    -5.1068     3.4242 C.ar    
  15 O15           -2.9726    -6.9795     2.1021 O.2     
  16 C16           -0.0113     2.5912    -0.2932 C.2     
  17 C17           -0.6276     3.8483    -0.2687 C.2     
  18 C18           -1.9635     3.6519    -0.1753 C.2     
  19 N19           -2.2042     2.3150    -0.1466 N.pl3   
  20 C20            0.0716     5.1817    -0.3340 C.3     
  21 C21           -1.4794    -3.6976     5.0671 C.ar    
  22 C22           -3.7914    -4.3200     5.3102 C.ar    
  23 C23           -3.7220    -5.0525     4.1395 C.ar    
  24 C24           -1.4012    -4.4258     3.8983 C.ar    
  25 C25           -0.0920    -6.4998    -0.2756 C.3     
  26 O26           -4.9560    -4.2651     6.0097 O.3     
  27 C27           -6.0675    -4.9880     5.4768 C.3     
  28 C28           -2.6695    -3.6395     5.7729 C.ar    
  29 F29           -2.7398    -2.9245     6.9170 F       
  30 H30           -2.8503    -3.1541    -0.0194 H       
  31 H31           -1.7689    -3.5060    -2.2338 H       
  32 H32           -0.3405    -4.1854    -1.4180 H       
  33 H33           -3.1786    -5.2928    -1.2250 H       
  34 H34           -1.8709    -5.9756    -2.2219 H       
  35 H35           -2.1339    -7.1392    -0.0018 H       
  36 H36           -0.1581    -4.0537     1.1072 H       
  37 H37           -1.5777    -3.5159     2.0416 H       
  38 H38            1.0493     2.3993    -0.3622 H       
  39 H39           -2.7132     4.4282    -0.1348 H       
  40 H40           -3.0779     1.8983    -0.0829 H       
  41 H41            0.1709     5.4892    -1.3750 H       
  42 H42           -0.5113     5.9247     0.2103 H       
  43 H43            1.0609     5.0956     0.1154 H       
  44 H44           -0.6114    -3.1675     5.4305 H       
  45 H45           -4.5923    -5.5809     3.7791 H       
  46 H46           -0.4716    -4.4695     3.3503 H       
  47 H47            0.4565    -5.5620    -0.3643 H       
  48 H48            0.2742    -7.0546     0.5883 H       
  49 H49            0.0552    -7.0935    -1.1777 H       
  50 H50           -6.3047    -4.6088     4.4828 H       
  51 H51           -5.8149    -6.0463     5.4112 H       
  52 H52           -6.9308    -4.8603     6.1299 H       
@<TRIPOS>BOND
   1    1    2 1
   2    1   16 2
   3    1   19 1
   4    2    3 2
   5    2    6 1
   6    3    4 1
   7    4    5 2
   8    4    7 1
   9    5    6 1
  10    7    8 1
  11    7   12 1
  12    7   30 1
  13    8    9 1
  14    8   31 1
  15    8   32 1
  16    9   10 1
  17    9   33 1
  18    9   34 1
  19   10   11 1
  20   10   25 1
  21   10   35 1
  22   11   12 1
  23   11   13 am
  24   12   36 1
  25   12   37 1
  26   13   14 1
  27   13   15 2
  28   14   24 ar
  29   14   23 ar
  30   16   17 1
  31   16   38 1
  32   17   18 2
  33   17   20 1
  34   18   19 1
  35   18   39 1
  36   19   40 1
  37   20   41 1
  38   20   42 1
  39   20   43 1
  40   21   28 ar
  41   21   24 ar
  42   21   44 1
  43   22   23 ar
  44   22   26 1
  45   22   28 ar
  46   23   45 1
  47   24   46 1
  48   25   47 1
  49   25   48 1
  50   25   49 1
  51   26   27 1
  52   27   50 1
  53   27   51 1
  54   27   52 1
  55   28   29 1

#	End of record

