#	Name: ASD01917630
#	Creating user name:	WinNT
#	Creation time:	15. 06. 2019 20:09

#	Modifying user name:	WinNT
#	Modification time:	15. 06. 2019 20:09

#	Program:	/corina/corina34_cracker 3.40 0067  02.08.2006

@<TRIPOS>MOLECULE
ASD01917630
  40   43    0    0    0
SMALL
NO_CHARGES


@<TRIPOS>ATOM
   1 C1             0.0690     1.5273    -0.2917 C.ar    
   2 C2             0.0926     0.1844    -0.6909 C.ar    
   3 C3             1.2867    -0.4305    -0.9209 C.ar    
   4 C4             2.4866     0.2586    -0.7640 C.ar    
   5 C5             2.5005     1.5654    -0.3765 C.ar    
   6 C6             1.2851     2.2333    -0.1309 C.ar    
   7 N7             1.2690     3.5147     0.2501 N.ar    
   8 C8             0.1467     4.1515     0.4843 C.ar    
   9 C9            -1.0905     3.5321     0.3506 C.ar    
  10 C10           -1.1529     2.2003    -0.0371 C.ar    
  11 C11           -2.4531     1.5069    -0.1850 C.ar    
  12 C12           -2.8512     0.5576     0.7564 C.ar    
  13 C13           -4.0634    -0.0852     0.6137 C.ar    
  14 C14           -4.8841     0.2100    -0.4618 C.ar    
  15 C15           -4.4939     1.1515    -1.3993 C.ar    
  16 C16           -3.2867     1.8049    -1.2631 C.ar    
  17 S17           -2.5708     4.4301     0.6773 S.o2    
  18 O18           -2.1701     5.7383     1.0613 O.2     
  19 O19           -3.4447     4.1737    -0.4135 O.2     
  20 C20           -3.3198     3.7026     2.0966 C.ar    
  21 C21           -2.8894     4.0558     3.3621 C.ar    
  22 C22           -3.4774     3.4852     4.4771 C.ar    
  23 C23           -4.4983     2.5591     4.3236 C.ar    
  24 C24           -4.9268     2.2077     3.0557 C.ar    
  25 C25           -4.3408     2.7836     1.9437 C.ar    
  26 Cl26          -6.4078    -0.6037    -0.6358 Cl      
  27 F27           -3.0571     3.8295     5.7141 F       
  28 F28           -5.0736     2.0004     5.4108 F       
  29 F29            3.6747     2.2172    -0.2296 F       
  30 H30           -0.8313    -0.3609    -0.8153 H       
  31 H31            1.3027    -1.4656    -1.2285 H       
  32 H32            3.4206    -0.2503    -0.9518 H       
  33 H33            0.1848     5.1866     0.7901 H       
  34 H34           -2.2115     0.3261     1.5952 H       
  35 H35           -4.3726    -0.8204     1.3419 H       
  36 H36           -5.1378     1.3777    -2.2363 H       
  37 H37           -2.9853     2.5423    -1.9923 H       
  38 H38           -2.0941     4.7768     3.4803 H       
  39 H39           -5.7214     1.4864     2.9348 H       
  40 H40           -4.6784     2.5120     0.9544 H       
@<TRIPOS>BOND
   1    1    2 ar
   2    1    6 ar
   3    1   10 ar
   4    2    3 ar
   5    2   30 1
   6    3    4 ar
   7    3   31 1
   8    4    5 ar
   9    4   32 1
  10    5    6 ar
  11    5   29 1
  12    6    7 ar
  13    7    8 ar
  14    8    9 ar
  15    8   33 1
  16    9   10 ar
  17    9   17 1
  18   10   11 1
  19   11   12 ar
  20   11   16 ar
  21   12   13 ar
  22   12   34 1
  23   13   14 ar
  24   13   35 1
  25   14   15 ar
  26   14   26 1
  27   15   16 ar
  28   15   36 1
  29   16   37 1
  30   17   18 2
  31   17   20 1
  32   17   19 2
  33   20   21 ar
  34   20   25 ar
  35   21   22 ar
  36   21   38 1
  37   22   23 ar
  38   22   27 1
  39   23   24 ar
  40   23   28 1
  41   24   25 ar
  42   24   39 1
  43   25   40 1

#	End of record

