#	Name: ASD01811794
#	Creating user name:	WinNT
#	Creation time:	15. 06. 2019 19:27

#	Modifying user name:	WinNT
#	Modification time:	15. 06. 2019 19:27

#	Program:	/corina/corina34_cracker 3.40 0067  02.08.2006

@<TRIPOS>MOLECULE
ASD01811794
  54   57    0    0    0
SMALL
NO_CHARGES


@<TRIPOS>ATOM
   1 C1            -0.0167     1.3805     0.0096 C.ar    
   2 C2             0.0021    -0.0041     0.0020 C.ar    
   3 C3            -1.1845    -0.7161     0.0090 C.ar    
   4 C4            -2.3942    -0.0535     0.0241 C.ar    
   5 C5            -2.4213     1.3425     0.0323 C.ar    
   6 C6            -1.2177     2.0512     0.0304 C.ar    
   7 C7             1.2777     2.1522     0.0014 C.3     
   8 C8             1.3184    -0.7376    -0.0144 C.3     
   9 C9            -1.1549    -2.2228    -0.0004 C.3     
  10 C10           -1.0078    -2.7311     1.4107 C.ar    
  11 C11           -2.1327    -2.9881     2.1725 C.ar    
  12 C12           -2.0004    -3.4541     3.4662 C.ar    
  13 C13           -0.7377    -3.6643     4.0009 C.ar    
  14 C14            0.3894    -3.4057     3.2345 C.ar    
  15 C15            0.2518    -2.9452     1.9393 C.ar    
  16 O16           -0.6050    -4.1223     5.2735 O.3     
  17 C17            0.7254    -4.3155     5.7581 C.3     
  18 C18           -3.5309     2.3149     0.0477 C.2     
  19 N19           -3.0504     3.5703     0.0501 N.am    
  20 C20           -1.5841     3.5142     0.0402 C.3     
  21 O21           -4.7107     2.0226     0.0563 O.2     
  22 C22           -3.8575     4.7928     0.0640 C.3     
  23 C23           -4.7392     4.8280     1.3246 C.3     
  24 C24           -6.2027     4.8624     0.8379 C.3     
  25 C25           -6.1454     4.2461    -0.5819 C.3     
  26 C26           -4.8159     4.8071    -1.1447 C.3     
  27 O27           -4.4506     5.9989     2.0913 O.3     
  28 H28           -3.3180    -0.6130     0.0291 H       
  29 H29            1.5800     2.3437    -1.0282 H       
  30 H30            1.1390     3.0999     0.5217 H       
  31 H31            2.0504     1.5710     0.5048 H       
  32 H32            1.6456    -0.9199     1.0092 H       
  33 H33            1.1977    -1.6891    -0.5323 H       
  34 H34            2.0641    -0.1342    -0.5322 H       
  35 H35           -2.0831    -2.6018    -0.4281 H       
  36 H36           -0.3118    -2.5659    -0.5999 H       
  37 H37           -3.1155    -2.8239     1.7559 H       
  38 H38           -2.8794    -3.6543     4.0610 H       
  39 H39            1.3735    -3.5686     3.6484 H       
  40 H40            1.1289    -2.7437     1.3422 H       
  41 H41            0.6888    -4.6825     6.7838 H       
  42 H42            1.2388    -5.0434     5.1298 H       
  43 H43            1.2634    -3.3679     5.7302 H       
  44 H44           -1.1849     3.9949     0.9333 H       
  45 H45           -1.1966     4.0028    -0.8538 H       
  46 H46           -3.2095     5.6689     0.0371 H       
  47 H47           -4.5666     3.9354     1.9260 H       
  48 H48           -6.8358     4.2605     1.4899 H       
  49 H49           -6.5660     5.8892     0.7938 H       
  50 H50           -6.1141     3.1578    -0.5296 H       
  51 H51           -6.9911     4.5808    -1.1827 H       
  52 H52           -4.9552     5.8249    -1.5091 H       
  53 H53           -4.4370     4.1649    -1.9396 H       
  54 H54           -4.9751     6.0787     2.8999 H       
@<TRIPOS>BOND
   1    1    2 ar
   2    1    7 1
   3    1    6 ar
   4    2    3 ar
   5    2    8 1
   6    3    4 ar
   7    3    9 1
   8    4    5 ar
   9    4   28 1
  10    5    6 ar
  11    5   18 1
  12    6   20 1
  13    7   29 1
  14    7   30 1
  15    7   31 1
  16    8   32 1
  17    8   33 1
  18    8   34 1
  19    9   10 1
  20    9   35 1
  21    9   36 1
  22   10   11 ar
  23   10   15 ar
  24   11   12 ar
  25   11   37 1
  26   12   13 ar
  27   12   38 1
  28   13   14 ar
  29   13   16 1
  30   14   15 ar
  31   14   39 1
  32   15   40 1
  33   16   17 1
  34   17   41 1
  35   17   42 1
  36   17   43 1
  37   18   19 am
  38   18   21 2
  39   19   20 1
  40   19   22 1
  41   20   44 1
  42   20   45 1
  43   22   23 1
  44   22   26 1
  45   22   46 1
  46   23   24 1
  47   23   27 1
  48   23   47 1
  49   24   25 1
  50   24   48 1
  51   24   49 1
  52   25   26 1
  53   25   50 1
  54   25   51 1
  55   26   52 1
  56   26   53 1
  57   27   54 1

#	End of record

