#	Name: ASD01200236
#	Creating user name:	WinNT
#	Creation time:	15. 06. 2019 19:08

#	Modifying user name:	WinNT
#	Modification time:	15. 06. 2019 19:08

#	Program:	/corina/corina34_cracker 3.40 0067  02.08.2006

@<TRIPOS>MOLECULE
ASD01200236
  50   52    0    0    0
SMALL
NO_CHARGES


@<TRIPOS>ATOM
   1 C1             0.5597     1.0345    -0.0270 C.ar    
   2 C2             0.3587    -0.3336    -0.0066 C.ar    
   3 C3            -0.9263    -0.8436    -0.0109 C.ar    
   4 C4            -2.0107     0.0132    -0.0357 C.ar    
   5 C5            -1.8115     1.3811    -0.0562 C.ar    
   6 C6            -0.5268     1.8931    -0.0461 C.ar    
   7 C7            -1.1449    -2.3345     0.0108 C.3     
   8 C8            -1.9446    -2.7146     1.2586 C.3     
   9 C9            -1.9086    -2.7483    -1.2207 C.2     
  10 N10           -2.0913    -4.0556    -1.4927 N.am    
  11 O11           -2.3587    -1.9050    -1.9668 O.2     
  12 C12           -1.1089    -2.4265     2.5074 C.3     
  13 C13           -2.7085    -4.4374    -2.6708 C.2     
  14 C14           -1.9479    -2.6775     3.7726 C.3     
  15 C15           -1.2288    -3.7888     4.5650 C.3     
  16 C16            0.2414    -3.7074     4.0844 C.3     
  17 C17            0.0908    -3.3940     2.5750 C.3     
  18 Cl18           2.1731     1.6755    -0.0215 Cl      
  19 Cl19          -0.2761     3.6107    -0.0718 Cl      
  20 S20           -3.0011    -6.0556    -3.1370 S.3     
  21 C21           -3.7515    -5.5026    -4.6322 C.2     
  22 C22           -3.7101    -4.1349    -4.6387 C.2     
  23 N23           -3.1523    -3.6144    -3.5761 N.2     
  24 C24           -4.8606    -8.4639    -6.6051 C.3     
  25 C25           -4.7404    -9.9534    -6.2768 C.3     
  26 C26           -4.3162    -6.3524    -5.6783 C.2     
  27 O27           -4.8092    -5.8496    -6.6704 O.2     
  28 O28           -4.2908    -7.6948    -5.5440 O.3     
  29 H29            1.2055    -1.0037     0.0124 H       
  30 H30           -3.0141    -0.3863    -0.0395 H       
  31 H31           -2.6593     2.0499    -0.0759 H       
  32 H32           -0.1808    -2.8429     0.0284 H       
  33 H33           -2.8635    -2.1293     1.2934 H       
  34 H34           -2.1909    -3.7758     1.2230 H       
  35 H35           -1.7902    -4.7288    -0.8627 H       
  36 H36           -0.7571    -1.3950     2.4912 H       
  37 H37           -2.0026    -1.7680     4.3708 H       
  38 H38           -2.9505    -3.0045     3.4970 H       
  39 H39           -1.2914    -3.5953     5.6358 H       
  40 H40           -1.6545    -4.7636     4.3269 H       
  41 H41            0.7707    -2.9028     4.5950 H       
  42 H42            0.7495    -4.6603     4.2323 H       
  43 H43           -0.1218    -4.3051     2.0157 H       
  44 H44            0.9912    -2.9125     2.1937 H       
  45 H45           -4.1061    -3.5383    -5.4472 H       
  46 H46           -4.3293    -8.2523    -7.5330 H       
  47 H47           -5.9121    -8.2009    -6.7204 H       
  48 H48           -3.6889   -10.2164    -6.1615 H       
  49 H49           -5.2717   -10.1650    -5.3489 H       
  50 H50           -5.1750   -10.5401    -7.0862 H       
@<TRIPOS>BOND
   1    1    2 ar
   2    1   18 1
   3    1    6 ar
   4    2    3 ar
   5    2   29 1
   6    3    4 ar
   7    3    7 1
   8    4    5 ar
   9    4   30 1
  10    5    6 ar
  11    5   31 1
  12    6   19 1
  13    7    8 1
  14    7    9 1
  15    7   32 1
  16    8   12 1
  17    8   33 1
  18    8   34 1
  19    9   10 am
  20    9   11 2
  21   10   13 1
  22   10   35 1
  23   12   14 1
  24   12   17 1
  25   12   36 1
  26   13   20 1
  27   13   23 2
  28   14   15 1
  29   14   37 1
  30   14   38 1
  31   15   16 1
  32   15   39 1
  33   15   40 1
  34   16   17 1
  35   16   41 1
  36   16   42 1
  37   17   43 1
  38   17   44 1
  39   20   21 1
  40   21   22 2
  41   21   26 1
  42   22   23 1
  43   22   45 1
  44   24   25 1
  45   24   28 1
  46   24   46 1
  47   24   47 1
  48   25   48 1
  49   25   49 1
  50   25   50 1
  51   26   27 2
  52   26   28 1

#	End of record

