#	Name: ASD01812864
#	Creating user name:	WinNT
#	Creation time:	15. 06. 2019 19:29

#	Modifying user name:	WinNT
#	Modification time:	15. 06. 2019 19:29

#	Program:	/corina/corina34_cracker 3.40 0067  02.08.2006

@<TRIPOS>MOLECULE
ASD01812864
  50   54    0    0    0
SMALL
NO_CHARGES


@<TRIPOS>ATOM
   1 N1             0.0027     1.3185    -0.2224 N.ar    
   2 C2             0.0319     0.0058    -0.3460 C.ar    
   3 C3             1.2340    -0.6843    -0.3682 C.ar    
   4 C4             2.4113     0.0205    -0.2593 C.ar    
   5 C5             2.3615     1.4132    -0.1292 C.ar    
   6 C6             1.1073     2.0395    -0.1145 C.ar    
   7 C7             3.8682    -0.3580    -0.2436 C.3     
   8 N8             4.6152     0.8976    -0.0984 N.am    
   9 C9             3.7395     1.9163    -0.0329 C.2     
  10 C10            6.0737     1.0205    -0.0353 C.3     
  11 C11            6.6237     1.1964    -1.4272 C.ar    
  12 C12            6.7702     2.4666    -1.9549 C.ar    
  13 C13            7.2739     2.6334    -3.2291 C.ar    
  14 C14            7.6349     1.5197    -3.9839 C.ar    
  15 C15            7.4853     0.2427    -3.4477 C.ar    
  16 C16            6.9855     0.0875    -2.1704 C.ar    
  17 O17            1.0259     3.3855     0.0100 O.3     
  18 O18            4.0443     3.0872     0.0883 O.2     
  19 C19           -0.2023     3.9618    -0.0803 C.ar    
  20 C20           -1.0085     4.0614     1.0467 C.ar    
  21 C21           -2.2574     4.6486     0.9517 C.ar    
  22 C22           -2.7026     5.1356    -0.2644 C.ar    
  23 C23           -1.9002     5.0367    -1.3873 C.ar    
  24 C24           -0.6498     4.4561    -1.2962 C.ar    
  25 Cl25          -4.2707     5.8712    -0.3817 Cl      
  26 F26           -0.5736     3.5850     2.2337 F       
  27 C27            8.5678     0.6952    -6.1997 C.2     
  28 C28            8.1768     1.6930    -5.3553 C.2     
  29 C29            8.3807     2.9173    -6.0211 C.2     
  30 N30            8.8697     2.6590    -7.2050 N.2     
  31 N31            8.9964     1.2713    -7.3410 N.pl3   
  32 C32            9.5069     0.5668    -8.5196 C.3     
  33 H33           -0.8958    -0.5406    -0.4310 H       
  34 H34            1.2466    -1.7595    -0.4692 H       
  35 H35            4.0752    -1.0171     0.5995 H       
  36 H36            4.1381    -0.8488    -1.1787 H       
  37 H37            6.3394     1.8855     0.5724 H       
  38 H38            6.4952     0.1198     0.4108 H       
  39 H39            6.4897     3.3294    -1.3689 H       
  40 H40            7.3876     3.6255    -3.6403 H       
  41 H41            7.7637    -0.6240    -4.0287 H       
  42 H42            6.8730    -0.9019    -1.7522 H       
  43 H43           -2.8852     4.7267     1.8270 H       
  44 H44           -2.2503     5.4173    -2.3355 H       
  45 H45           -0.0228     4.3833    -2.1726 H       
  46 H46            8.5429    -0.3640    -5.9902 H       
  47 H47            8.1694     3.8986    -5.6226 H       
  48 H48            8.6811     0.3423    -9.1947 H       
  49 H49           10.2344     1.1961    -9.0322 H       
  50 H50            9.9850    -0.3622    -8.2089 H       
@<TRIPOS>BOND
   1    1    2 ar
   2    1    6 ar
   3    2    3 ar
   4    2   33 1
   5    3    4 ar
   6    3   34 1
   7    4    7 1
   8    4    5 ar
   9    5    6 ar
  10    5    9 1
  11    6   17 1
  12    7    8 1
  13    7   35 1
  14    7   36 1
  15    8    9 am
  16    8   10 1
  17    9   18 2
  18   10   11 1
  19   10   37 1
  20   10   38 1
  21   11   12 ar
  22   11   16 ar
  23   12   13 ar
  24   12   39 1
  25   13   14 ar
  26   13   40 1
  27   14   15 ar
  28   14   28 1
  29   15   16 ar
  30   15   41 1
  31   16   42 1
  32   17   19 1
  33   19   20 ar
  34   19   24 ar
  35   20   21 ar
  36   20   26 1
  37   21   22 ar
  38   21   43 1
  39   22   23 ar
  40   22   25 1
  41   23   24 ar
  42   23   44 1
  43   24   45 1
  44   27   28 2
  45   27   31 1
  46   27   46 1
  47   28   29 1
  48   29   30 2
  49   29   47 1
  50   30   31 1
  51   31   32 1
  52   32   48 1
  53   32   49 1
  54   32   50 1

#	End of record

