#	Name: ASD03091910
#	Creating user name:	WinNT
#	Creation time:	15. 06. 2019 20:31

#	Modifying user name:	WinNT
#	Modification time:	15. 06. 2019 20:31

#	Program:	/corina/corina34_cracker 3.40 0067  02.08.2006

@<TRIPOS>MOLECULE
ASD03091910
  29   30    0    0    0
SMALL
NO_CHARGES


@<TRIPOS>ATOM
   1 O1             0.0021    -0.0041     0.0020 O.2     
   2 C2            -0.0144     1.2086     0.0087 C.2     
   3 C3             1.2138     2.0919     0.0017 C.3     
   4 C4             0.6854     3.4795     0.4332 C.3     
   5 C5             1.4028     4.5985    -0.3246 C.3     
   6 C6             0.9451     5.9549     0.2154 C.3     
   7 C7             1.6517     7.0570    -0.5310 C.ar    
   8 C8             1.0906     7.5845    -1.6789 C.ar    
   9 C9             1.7387     8.5954    -2.3636 C.ar    
  10 C10            2.9479     9.0792    -1.9001 C.ar    
  11 C11            3.5086     8.5524    -0.7516 C.ar    
  12 C12            2.8583     7.5444    -0.0646 C.ar    
  13 C13           -0.7999     3.3942     0.0173 C.3     
  14 N14           -1.1266     1.9634     0.0175 N.am    
  15 H15            1.9512     1.7255     0.7159 H       
  16 H16            1.6425     2.1413    -0.9992 H       
  17 H17           -2.0291     1.6081     0.0254 H       
  18 H18            0.7823     3.6162     1.5103 H       
  19 H19            2.4795     4.4975    -0.1879 H       
  20 H20            1.1633     4.5302    -1.3857 H       
  21 H21           -1.4238     3.9263     0.7355 H       
  22 H22           -0.9363     3.8084    -0.9816 H       
  23 H23           -0.1316     6.0558     0.0787 H       
  24 H24            1.1847     6.0231     1.2765 H       
  25 H25            0.1459     7.2065    -2.0411 H       
  26 H26            3.2946     7.1353     0.8347 H       
  27 H27            1.3006     9.0070    -3.2608 H       
  28 H28            3.4546     9.8685    -2.4354 H       
  29 H29            4.4534     8.9301    -0.3897 H       
@<TRIPOS>BOND
   1    1    2 2
   2    2    3 1
   3    2   14 am
   4    3    4 1
   5    3   15 1
   6    3   16 1
   7    4    5 1
   8    4   13 1
   9    4   18 1
  10    5    6 1
  11    5   19 1
  12    5   20 1
  13    6    7 1
  14    6   23 1
  15    6   24 1
  16    7    8 ar
  17    7   12 ar
  18    8    9 ar
  19    8   25 1
  20    9   10 ar
  21    9   27 1
  22   10   11 ar
  23   10   28 1
  24   11   12 ar
  25   11   29 1
  26   12   26 1
  27   13   14 1
  28   13   21 1
  29   13   22 1
  30   14   17 1

#	End of record

