#	Name: ASD01140500
#	Creating user name:	WinNT
#	Creation time:	15. 06. 2019 19:01

#	Modifying user name:	WinNT
#	Modification time:	15. 06. 2019 19:01

#	Program:	/corina/corina34_cracker 3.40 0067  02.08.2006

@<TRIPOS>MOLECULE
ASD01140500
  52   55    0    0    0
SMALL
NO_CHARGES


@<TRIPOS>ATOM
   1 C1             0.5227     0.9811     1.4692 C.ar    
   2 C2             0.1072    -0.0491     0.6457 C.ar    
   3 C3             0.8381    -0.3744    -0.4823 C.ar    
   4 C4             1.9858     0.3297    -0.7900 C.ar    
   5 C5             2.4054     1.3652     0.0347 C.ar    
   6 C6             1.6694     1.6891     1.1669 C.ar    
   7 N7             3.5688     2.0807    -0.2742 N.am    
   8 C8             3.4848     3.4302    -0.6382 C.ar    
   9 C9             2.8577     3.7937    -1.8227 C.ar    
  10 C10            2.7761     5.1256    -2.1786 C.ar    
  11 C11            3.3185     6.0968    -1.3571 C.ar    
  12 C12            3.9441     5.7380    -0.1772 C.ar    
  13 C13            4.0235     4.4083     0.1874 C.ar    
  14 C14            4.7693     1.4704    -0.2213 C.2     
  15 N15            4.8616     0.2026     0.2267 N.am    
  16 O16            5.7689     2.0635    -0.5776 O.2     
  17 C17            6.1100    -0.3903     0.3838 C.ar    
  18 C18            6.2417    -1.7944     0.4854 C.ar    
  19 C19            7.5342    -2.3559     0.6448 C.ar    
  20 N20            8.6055    -1.5638     0.6977 N.ar    
  21 C21            8.5013    -0.2505     0.6050 C.ar    
  22 C22            7.2619     0.3765     0.4398 C.ar    
  23 C23            5.1211    -2.6358     0.4319 C.ar    
  24 C24            5.2847    -3.9840     0.5334 C.ar    
  25 C25            6.5540    -4.5409     0.6902 C.ar    
  26 C26            7.6637    -3.7540     0.7457 C.ar    
  27 Cl27           6.7214    -6.2642     0.8164 Cl      
  28 C28            9.7280     0.5786     0.6710 C.2     
  29 O29           10.9302    -0.0086     0.8238 O.3     
  30 C30           12.0883     0.8654     0.8804 C.3     
  31 C31           13.3541     0.0240     1.0554 C.3     
  32 O32            9.6490     1.7873     0.5873 O.2     
  33 H33           -0.0525     1.2354     2.3471 H       
  34 H34           -0.7899    -0.6012     0.8842 H       
  35 H35            0.5114    -1.1800    -1.1230 H       
  36 H36            2.5564     0.0750    -1.6709 H       
  37 H37            1.9931     2.4941     1.8101 H       
  38 H38            2.4345     3.0356    -2.4651 H       
  39 H39            2.2886     5.4090    -3.0997 H       
  40 H40            3.2538     7.1377    -1.6378 H       
  41 H41            4.3670     6.4988     0.4621 H       
  42 H42            4.5122     4.1287     1.1091 H       
  43 H43            4.0574    -0.2963     0.4395 H       
  44 H44            7.2026     1.4524     0.3661 H       
  45 H45            4.1331    -2.2167     0.3111 H       
  46 H46            4.4205    -4.6304     0.4923 H       
  47 H47            8.6395    -4.2007     0.8671 H       
  48 H48           12.1573     1.4375    -0.0448 H       
  49 H49           11.9869     1.5488     1.7234 H       
  50 H50           13.2851    -0.5481     1.9806 H       
  51 H51           13.4556    -0.6595     0.2123 H       
  52 H52           14.2235     0.6801     1.0978 H       
@<TRIPOS>BOND
   1    1    2 ar
   2    1    6 ar
   3    1   33 1
   4    2    3 ar
   5    2   34 1
   6    3    4 ar
   7    3   35 1
   8    4    5 ar
   9    4   36 1
  10    5    6 ar
  11    5    7 1
  12    6   37 1
  13    7    8 1
  14    7   14 am
  15    8    9 ar
  16    8   13 ar
  17    9   10 ar
  18    9   38 1
  19   10   11 ar
  20   10   39 1
  21   11   12 ar
  22   11   40 1
  23   12   13 ar
  24   12   41 1
  25   13   42 1
  26   14   15 am
  27   14   16 2
  28   15   17 1
  29   15   43 1
  30   17   18 ar
  31   17   22 ar
  32   18   19 ar
  33   18   23 ar
  34   19   20 ar
  35   19   26 ar
  36   20   21 ar
  37   21   22 ar
  38   21   28 1
  39   22   44 1
  40   23   24 ar
  41   23   45 1
  42   24   25 ar
  43   24   46 1
  44   25   26 ar
  45   25   27 1
  46   26   47 1
  47   28   29 1
  48   28   32 2
  49   29   30 1
  50   30   31 1
  51   30   48 1
  52   30   49 1
  53   31   50 1
  54   31   51 1
  55   31   52 1

#	End of record

