#	Name: ASD03082249
#	Creating user name:	WinNT
#	Creation time:	15. 06. 2019 20:27

#	Modifying user name:	WinNT
#	Modification time:	15. 06. 2019 20:27

#	Program:	/corina/corina34_cracker 3.40 0067  02.08.2006

@<TRIPOS>MOLECULE
ASD03082249
  55   58    0    0    0
SMALL
NO_CHARGES


@<TRIPOS>ATOM
   1 N1            -0.0351     1.1480    -0.2879 N.pl3   
   2 N2            -0.0418    -0.2550    -0.2297 N.2     
   3 C3             1.1943    -0.6349    -0.0033 C.2     
   4 N4             1.9729     0.4454     0.0835 N.2     
   5 C5             1.2456     1.5320    -0.0863 C.2     
   6 N6             1.6249    -1.9567     0.1267 N.pl3   
   7 C7             2.9882    -2.2378     0.2634 C.ar    
   8 C8             3.6688    -1.8416     1.4078 C.ar    
   9 C9             5.0147    -2.1202     1.5407 C.ar    
  10 C10            5.6861    -2.7941     0.5341 C.ar    
  11 C11            5.0099    -3.1900    -0.6073 C.ar    
  12 C12            3.6622    -2.9185    -0.7420 C.ar    
  13 C13            5.7537    -1.6902     2.7816 C.3     
  14 F14            4.8713    -1.0329     3.6456 F       
  15 F15            6.2826    -2.8155     3.4229 F       
  16 F16            6.7932    -0.8231     2.4285 F       
  17 C17            1.3235     5.2767     0.1874 C.ar    
  18 C18            0.8575     3.9795     0.1651 C.ar    
  19 C19            1.7428     2.9245    -0.0606 C.ar    
  20 C20            3.0981     3.1871    -0.2615 C.ar    
  21 C21            3.5606     4.4914    -0.2362 C.ar    
  22 C22            2.6725     5.5393    -0.0136 C.ar    
  23 C23           -1.1863     2.0222    -0.5263 C.3     
  24 F24            7.0030    -3.0653     0.6660 F       
  25 C25           -1.8594     2.3352     0.7852 C.2     
  26 N26           -2.9489     3.1282     0.8111 N.am    
  27 O27           -1.4207     1.8736     1.8174 O.2     
  28 C28           -3.6032     3.4325     2.0861 C.3     
  29 C29           -3.4788     3.6858    -0.4357 C.3     
  30 O30            4.8872     4.7313    -0.4258 O.3     
  31 C31            5.2570     6.0722    -0.7646 C.3     
  32 C32            4.5160     7.0284     0.1796 C.3     
  33 O33            3.1090     6.8281     0.0067 O.3     
  34 C34            0.6488    -3.0491     0.1197 C.3     
  35 H35            3.1457    -1.3158     2.1928 H       
  36 H36            5.5355    -3.7151    -1.3911 H       
  37 H37            3.1340    -3.2318    -1.6304 H       
  38 H38            0.6362     6.0922     0.3574 H       
  39 H39           -0.1921     3.7797     0.3226 H       
  40 H40            3.7861     2.3732    -0.4364 H       
  41 H41           -0.8491     2.9483    -0.9917 H       
  42 H42           -1.8932     1.5200    -1.1867 H       
  43 H43           -3.1627     4.3326     2.5148 H       
  44 H44           -4.6682     3.5936     1.9185 H       
  45 H45           -3.4657     2.5978     2.7734 H       
  46 H46           -4.2131     2.9995    -0.8574 H       
  47 H47           -3.9537     4.6455    -0.2316 H       
  48 H48           -2.6640     3.8274    -1.1456 H       
  49 H49            6.3331     6.1981    -0.6449 H       
  50 H50            4.9743     6.2819    -1.7962 H       
  51 H51            4.7937     6.8144     1.2117 H       
  52 H52            4.7732     8.0590    -0.0647 H       
  53 H53            0.4944    -3.3919    -0.9034 H       
  54 H54            1.0222    -3.8738     0.7267 H       
  55 H55           -0.2964    -2.6944     0.5306 H       
@<TRIPOS>BOND
   1    1    2 1
   2    1    5 1
   3    1   23 1
   4    2    3 2
   5    3    4 1
   6    3    6 1
   7    4    5 2
   8    5   19 1
   9    6    7 1
  10    6   34 1
  11    7    8 ar
  12    7   12 ar
  13    8    9 ar
  14    8   35 1
  15    9   10 ar
  16    9   13 1
  17   10   11 ar
  18   10   24 1
  19   11   12 ar
  20   11   36 1
  21   12   37 1
  22   13   14 1
  23   13   15 1
  24   13   16 1
  25   17   18 ar
  26   17   22 ar
  27   17   38 1
  28   18   19 ar
  29   18   39 1
  30   19   20 ar
  31   20   21 ar
  32   20   40 1
  33   21   22 ar
  34   21   30 1
  35   22   33 1
  36   23   25 1
  37   23   41 1
  38   23   42 1
  39   25   26 am
  40   25   27 2
  41   26   28 1
  42   26   29 1
  43   28   43 1
  44   28   44 1
  45   28   45 1
  46   29   46 1
  47   29   47 1
  48   29   48 1
  49   30   31 1
  50   31   32 1
  51   31   49 1
  52   31   50 1
  53   32   33 1
  54   32   51 1
  55   32   52 1
  56   34   53 1
  57   34   54 1
  58   34   55 1

#	End of record

