#	Name: ASD01200112
#	Creating user name:	WinNT
#	Creation time:	15. 06. 2019 19:08

#	Modifying user name:	WinNT
#	Modification time:	15. 06. 2019 19:08

#	Program:	/corina/corina34_cracker 3.40 0067  02.08.2006

@<TRIPOS>MOLECULE
ASD01200112
  26   28    0    0    0
SMALL
NO_CHARGES


@<TRIPOS>ATOM
   1 C1            -0.0167     1.3776     0.0096 C.ar    
   2 C2             0.0021    -0.0041     0.0020 C.ar    
   3 C3             1.2066    -0.6906    -0.0127 C.ar    
   4 C4             2.3989     0.0146    -0.0203 C.ar    
   5 C5             2.3798     1.4243    -0.0130 C.ar    
   6 C6             1.1688     2.0968     0.0022 C.ar    
   7 C7             3.8260    -0.3703    -0.0355 C.2     
   8 N8             4.5720     0.7492    -0.0368 N.am    
   9 C9             3.7959     1.8479    -0.0241 C.2     
  10 O10            4.1925     2.9958    -0.0216 O.2     
  11 O11            4.2535    -1.5070    -0.0446 O.2     
  12 C12            6.0368     0.7691    -0.0497 C.3     
  13 C13            6.5265     0.7826    -1.4748 C.2     
  14 C14            6.7616     1.8793    -2.1967 C.2     
  15 C15            7.2081     1.6445    -3.4858 C.2     
  16 C16            7.3355     0.3570    -3.8107 C.2     
  17 S17            6.8828    -0.6452    -2.4381 S.3     
  18 H18           -0.9613     1.9011     0.0169 H       
  19 H19           -0.9280    -0.5530     0.0079 H       
  20 H20            1.2153    -1.7705    -0.0179 H       
  21 H21            1.1481     3.1765     0.0074 H       
  22 H22            6.3925     1.6615     0.4652 H       
  23 H23            6.4167    -0.1183     0.4567 H       
  24 H24            6.6145     2.8751    -1.8053 H       
  25 H25            7.4356     2.4431    -4.1763 H       
  26 H26            7.6691    -0.0132    -4.7688 H       
@<TRIPOS>BOND
   1    1    2 ar
   2    1    6 ar
   3    1   18 1
   4    2    3 ar
   5    2   19 1
   6    3    4 ar
   7    3   20 1
   8    4    5 ar
   9    4    7 1
  10    5    6 ar
  11    5    9 1
  12    6   21 1
  13    7    8 am
  14    7   11 2
  15    8    9 am
  16    8   12 1
  17    9   10 2
  18   12   13 1
  19   12   22 1
  20   12   23 1
  21   13   14 2
  22   13   17 1
  23   14   15 1
  24   14   24 1
  25   15   16 2
  26   15   25 1
  27   16   17 1
  28   16   26 1

#	End of record

