#	Name: ASD02198759
#	Creating user name:	WinNT
#	Creation time:	15. 06. 2019 20:20

#	Modifying user name:	WinNT
#	Modification time:	15. 06. 2019 20:20

#	Program:	/corina/corina34_cracker 3.40 0067  02.08.2006

@<TRIPOS>MOLECULE
ASD02198759
  47   51    0    0    0
SMALL
NO_CHARGES


@<TRIPOS>ATOM
   1 F1             2.8936    -1.4727     2.6061 F       
   2 C2             0.1445     1.5538     0.2450 C.2     
   3 C3             0.1531     0.2380     0.5762 C.2     
   4 N4             1.3049    -0.4699     0.5734 N.pl3   
   5 N5             2.4417     0.0365     0.2664 N.2     
   6 C6             2.5747     1.3007    -0.0741 C.2     
   7 C7             1.3776     2.1560    -0.1018 C.2     
   8 C8             1.2535    -1.8238     0.9238 C.ar    
   9 C9             2.0600    -2.3085     1.9491 C.ar    
  10 C10            2.0079    -3.6457     2.2944 C.ar    
  11 C11            1.1508    -4.5043     1.6179 C.ar    
  12 C12            0.3458    -4.0191     0.5940 C.ar    
  13 C13            0.3931    -2.6832     0.2520 C.ar    
  14 C14            3.9007     1.8509    -0.4214 C.2     
  15 N15            4.2359     2.4906    -1.5816 N.pl3   
  16 N16            5.5874     2.8475    -1.4969 N.2     
  17 C17            6.0571     2.4467    -0.3424 C.2     
  18 C18            5.0310     1.8211     0.3657 C.2     
  19 C19            3.3809     2.7438    -2.6618 C.ar    
  20 C20            3.4135     3.9763    -3.3008 C.ar    
  21 C21            2.5692     4.2229    -4.3656 C.ar    
  22 C22            1.6921     3.2441    -4.7955 C.ar    
  23 C23            1.6569     2.0159    -4.1610 C.ar    
  24 C24            2.5030     1.7610    -3.0996 C.ar    
  25 O25            1.4453     3.3365    -0.4109 O.2     
  26 N26            1.0983    -5.8560     1.9664 N.3     
  27 C27            1.2579    -6.0332     3.4218 C.3     
  28 C28            0.1545    -7.0985     3.3569 C.3     
  29 C29           -0.2969    -6.3082     2.1207 C.3     
  30 F30            0.6188    -8.3877     3.0746 F       
  31 H31           -0.7740     2.1219     0.2417 H       
  32 H32           -0.7719    -0.2500     0.8459 H       
  33 H33            2.6336    -4.0230     3.0897 H       
  34 H34           -0.3203    -4.6874     0.0685 H       
  35 H35           -0.2331    -2.3071    -0.5435 H       
  36 H36            7.0706     2.5812     0.0056 H       
  37 H37            5.1101     1.3860     1.3511 H       
  38 H38            4.0980     4.7413    -2.9653 H       
  39 H39            2.5937     5.1814    -4.8628 H       
  40 H40            1.0328     3.4394    -5.6284 H       
  41 H41            0.9703     1.2538    -4.4987 H       
  42 H42            2.4751     0.8016    -2.6044 H       
  43 H43            2.2312    -6.4329     3.7064 H       
  44 H44            0.9777    -5.1525     3.9997 H       
  45 H45           -0.5482    -7.0645     4.1895 H       
  46 H46           -0.9920    -5.5009     2.3515 H       
  47 H47           -0.6413    -6.9410     1.3027 H       
@<TRIPOS>BOND
   1    1    9 1
   2    2    3 2
   3    2    7 1
   4    2   31 1
   5    3    4 1
   6    3   32 1
   7    4    5 1
   8    4    8 1
   9    5    6 2
  10    6    7 1
  11    6   14 1
  12    7   25 2
  13    8    9 ar
  14    8   13 ar
  15    9   10 ar
  16   10   11 ar
  17   10   33 1
  18   11   12 ar
  19   11   26 1
  20   12   13 ar
  21   12   34 1
  22   13   35 1
  23   14   15 1
  24   14   18 2
  25   15   16 1
  26   15   19 1
  27   16   17 2
  28   17   18 1
  29   17   36 1
  30   18   37 1
  31   19   20 ar
  32   19   24 ar
  33   20   21 ar
  34   20   38 1
  35   21   22 ar
  36   21   39 1
  37   22   23 ar
  38   22   40 1
  39   23   24 ar
  40   23   41 1
  41   24   42 1
  42   26   27 1
  43   26   29 1
  44   27   28 1
  45   27   43 1
  46   27   44 1
  47   28   29 1
  48   28   30 1
  49   28   45 1
  50   29   46 1
  51   29   47 1

#	End of record

