#	Name: ASD03490055
#	Creating user name:	WinNT
#	Creation time:	15. 06. 2019 20:42

#	Modifying user name:	WinNT
#	Modification time:	15. 06. 2019 20:42

#	Program:	/corina/corina34_cracker 3.40 0067  02.08.2006

@<TRIPOS>MOLECULE
ASD03490055
  56   57    0    0    0
SMALL
NO_CHARGES


@<TRIPOS>ATOM
   1 O1            -0.5646     1.7477     0.8290 O.3     
   2 C2            -0.3449     0.4237     0.8090 C.2     
   3 C3            -1.4830    -0.5249     0.5332 C.3     
   4 O4             0.7653    -0.0076     1.0123 O.2     
   5 O5            -1.0273    -1.8713     0.6798 O.3     
   6 C6            -2.6199    -0.2600     1.5236 C.3     
   7 O7            -1.9577    -0.3248    -0.7998 O.3     
   8 C8            -3.0261    -1.1962    -1.1756 C.3     
   9 C9            -4.2251    -0.9581    -0.2540 C.3     
  10 C10           -3.7958    -1.1863     1.1988 C.3     
  11 C11           -3.4310    -0.9121    -2.6234 C.3     
  12 C12           -2.2875    -1.3076    -3.5598 C.3     
  13 C13           -2.7372    -1.1409    -5.0127 C.3     
  14 O14           -1.7126    -1.6195    -5.8863 O.3     
  15 O15           -1.1572    -0.4691    -3.3119 O.3     
  16 C16           -4.7207     0.4797    -0.4210 C.3     
  17 O17           -5.7650     0.7359     0.5202 O.3     
  18 O18           -3.3941    -2.5469     1.3705 O.3     
  19 S19           -2.0547    -1.5015    -7.3647 S.o2    
  20 C20           -1.8942     0.1975    -7.8032 C.ar    
  21 O21           -1.0345    -2.1959    -8.0693 O.2     
  22 O22           -3.4349    -1.8180    -7.4837 O.2     
  23 C23           -0.6816     0.6829    -8.2557 C.ar    
  24 C24           -0.5557     2.0159    -8.5998 C.ar    
  25 C25           -1.6425     2.8632    -8.4917 C.ar    
  26 C26           -2.8554     2.3775    -8.0401 C.ar    
  27 C27           -2.9825     1.0437    -7.7002 C.ar    
  28 N28           -5.2328     0.6649    -1.7810 N.am    
  29 O29           -4.3320     2.6877    -1.9175 O.2     
  30 C30           -4.9818     1.8103    -2.4455 C.2     
  31 C31           -5.5086     2.0007    -3.8445 C.3     
  32 H32            0.1963     2.3163     1.0102 H       
  33 H33           -0.3059    -2.1097     0.0816 H       
  34 H34           -2.2721    -0.4549     2.5381 H       
  35 H35           -2.9406     0.7785     1.4408 H       
  36 H36           -2.6989    -2.2321    -1.0861 H       
  37 H37           -5.0253    -1.6523    -0.5106 H       
  38 H38           -4.6297    -0.9642     1.8647 H       
  39 H39           -4.3208    -1.4906    -2.8720 H       
  40 H40           -3.6444     0.1505    -2.7391 H       
  41 H41           -2.0146    -2.3476    -3.3809 H       
  42 H42           -3.6512    -1.7114    -5.1778 H       
  43 H43           -2.9251    -0.0867    -5.2162 H       
  44 H44           -1.3277     0.4724    -3.4516 H       
  45 H45           -3.8963     1.1709    -0.2460 H       
  46 H46           -6.5630     0.2092     0.3754 H       
  47 H47           -3.1090    -2.7625     2.2690 H       
  48 H48            0.1675     0.0209    -8.3402 H       
  49 H49            0.3919     2.3953    -8.9526 H       
  50 H50           -1.5440     3.9048    -8.7598 H       
  51 H51           -3.7044     3.0396    -7.9553 H       
  52 H52           -3.9300     0.6642    -7.3473 H       
  53 H53           -5.7526    -0.0369    -2.2033 H       
  54 H54           -6.0640     1.1132    -4.1476 H       
  55 H55           -6.1682     2.8682    -3.8694 H       
  56 H56           -4.6747     2.1586    -4.5284 H       
@<TRIPOS>BOND
   1    1    2 1
   2    1   32 1
   3    2    3 1
   4    2    4 2
   5    3    5 1
   6    3    6 1
   7    3    7 1
   8    5   33 1
   9    6   10 1
  10    6   34 1
  11    6   35 1
  12    7    8 1
  13    8    9 1
  14    8   11 1
  15    8   36 1
  16    9   10 1
  17    9   16 1
  18    9   37 1
  19   10   18 1
  20   10   38 1
  21   11   12 1
  22   11   39 1
  23   11   40 1
  24   12   13 1
  25   12   15 1
  26   12   41 1
  27   13   14 1
  28   13   42 1
  29   13   43 1
  30   14   19 1
  31   15   44 1
  32   16   17 1
  33   16   28 1
  34   16   45 1
  35   17   46 1
  36   18   47 1
  37   19   20 1
  38   19   21 2
  39   19   22 2
  40   20   23 ar
  41   20   27 ar
  42   23   24 ar
  43   23   48 1
  44   24   25 ar
  45   24   49 1
  46   25   26 ar
  47   25   50 1
  48   26   27 ar
  49   26   51 1
  50   27   52 1
  51   28   30 am
  52   28   53 1
  53   29   30 2
  54   30   31 1
  55   31   54 1
  56   31   55 1
  57   31   56 1

#	End of record

