#	Name: ASD01410073
#	Creating user name:	WinNT
#	Creation time:	15. 06. 2019 19:16

#	Modifying user name:	WinNT
#	Modification time:	15. 06. 2019 19:16

#	Program:	/corina/corina34_cracker 3.40 0067  02.08.2006

@<TRIPOS>MOLECULE
ASD01410073
  70   74    0    0    0
SMALL
NO_CHARGES


@<TRIPOS>ATOM
   1 C1            -0.0169     1.3986     0.0097 C.ar    
   2 C2             0.0021    -0.0041     0.0020 C.ar    
   3 C3            -1.1621    -0.7093     0.0098 C.ar    
   4 C4            -2.3912    -0.0347     0.0256 C.ar    
   5 C5            -2.4204     1.3752     0.0335 C.ar    
   6 C6            -1.2306     2.0850     0.0308 C.ar    
   7 C7            -3.7374    -0.4721     0.0371 C.2     
   8 C8            -4.5318     0.6284     0.0511 C.2     
   9 N9            -3.7466     1.7567     0.0491 N.pl3   
  10 C10           -6.0102     0.6156     0.0653 C.ar    
  11 C11           -6.7099     1.4581     0.9306 C.ar    
  12 C12           -8.0891     1.4421     0.9389 C.ar    
  13 C13           -8.7795     0.5923     0.0911 C.ar    
  14 C14           -8.0908    -0.2458    -0.7696 C.ar    
  15 C15           -6.7117    -0.2349    -0.7907 C.ar    
  16 C16           -4.2053    -1.9046     0.0342 C.3     
  17 C17           -3.6904    -2.6068    -1.2239 C.3     
  18 C18           -4.1655    -4.0612    -1.2268 C.3     
  19 C19           -3.6260    -4.7764     0.0134 C.3     
  20 C20           -4.1409    -4.0743     1.2715 C.3     
  21 C21           -3.6658    -2.6199     1.2744 C.3     
  22 C22            1.2512     2.1499     0.0017 C.2     
  23 O23            2.4257     1.4892    -0.0131 O.3     
  24 C24           -4.2369     3.1372     0.0616 C.3     
  25 C25           -4.3905     3.6029     1.4866 C.2     
  26 N26           -4.8315     4.8502     1.7441 N.am    
  27 O27            1.2376     3.3650     0.0083 O.2     
  28 O28           -4.1172     2.8553     2.4016 O.2     
  29 C29           -4.9861     5.3179     3.1287 C.3     
  30 C30           -4.1758     6.6083     3.3034 C.3     
  31 N31           -4.5102     7.5252     2.2046 N.am    
  32 C32           -4.3556     7.0575     0.8200 C.3     
  33 C33           -5.1605     5.7689     0.6452 C.3     
  34 S34           -5.0520     9.0577     2.5210 S.o2    
  35 O35           -5.8246     9.3992     1.3784 O.2     
  36 O36           -5.6493     8.9598     3.8067 O.2     
  37 C37           -3.5448    10.0645     2.5944 C.3     
  38 Cl38         -10.5154     0.5773     0.1076 Cl      
  39 H39            0.9465    -0.5278    -0.0105 H       
  40 H40           -1.1391    -1.7891     0.0034 H       
  41 H41           -1.2431     3.1650     0.0368 H       
  42 H42           -6.1724     2.1210     1.5925 H       
  43 H43           -8.6316     2.0933     1.6083 H       
  44 H44           -8.6346    -0.9064    -1.4286 H       
  45 H45           -6.1756    -0.8890    -1.4624 H       
  46 H46           -5.2950    -1.9310     0.0448 H       
  47 H47           -4.0748    -2.0973    -2.1075 H       
  48 H48           -2.6008    -2.5805    -1.2345 H       
  49 H49           -5.2551    -4.0875    -1.2163 H       
  50 H50           -3.7987    -4.5614    -2.1231 H       
  51 H51           -3.9644    -5.8126     0.0113 H       
  52 H52           -2.5363    -4.7501     0.0028 H       
  53 H53           -5.2305    -4.1006     1.2821 H       
  54 H54           -3.7565    -4.5838     2.1551 H       
  55 H55           -2.5762    -2.5936     1.2638 H       
  56 H56           -4.0326    -2.1197     2.1707 H       
  57 H57            3.2307     2.0250    -0.0179 H       
  58 H58           -3.5252     3.7803    -0.4561 H       
  59 H59           -5.2024     3.1844    -0.4421 H       
  60 H60           -6.0383     5.5162     3.3325 H       
  61 H61           -4.6149     4.5571     3.8154 H       
  62 H62           -4.4282     7.0725     4.2568 H       
  63 H63           -3.1108     6.3780     3.2765 H       
  64 H64           -4.7267     7.8183     0.1333 H       
  65 H65           -3.3033     6.8592     0.6162 H       
  66 H66           -4.9072     5.3059    -0.3085 H       
  67 H67           -6.2261     5.9967     0.6725 H       
  68 H68           -3.0224    10.0067     1.6395 H       
  69 H69           -3.8102    11.1013     2.8011 H       
  70 H70           -2.8963     9.6906     3.3866 H       
@<TRIPOS>BOND
   1    1    2 ar
   2    1   22 1
   3    1    6 ar
   4    2    3 ar
   5    2   39 1
   6    3    4 ar
   7    3   40 1
   8    4    5 ar
   9    4    7 1
  10    5    6 ar
  11    5    9 1
  12    6   41 1
  13    7    8 2
  14    7   16 1
  15    8    9 1
  16    8   10 1
  17    9   24 1
  18   10   11 ar
  19   10   15 ar
  20   11   12 ar
  21   11   42 1
  22   12   13 ar
  23   12   43 1
  24   13   14 ar
  25   13   38 1
  26   14   15 ar
  27   14   44 1
  28   15   45 1
  29   16   17 1
  30   16   21 1
  31   16   46 1
  32   17   18 1
  33   17   47 1
  34   17   48 1
  35   18   19 1
  36   18   49 1
  37   18   50 1
  38   19   20 1
  39   19   51 1
  40   19   52 1
  41   20   21 1
  42   20   53 1
  43   20   54 1
  44   21   55 1
  45   21   56 1
  46   22   23 1
  47   22   27 2
  48   23   57 1
  49   24   25 1
  50   24   58 1
  51   24   59 1
  52   25   26 am
  53   25   28 2
  54   26   29 1
  55   26   33 1
  56   29   30 1
  57   29   60 1
  58   29   61 1
  59   30   31 1
  60   30   62 1
  61   30   63 1
  62   31   32 1
  63   31   34 am
  64   32   33 1
  65   32   64 1
  66   32   65 1
  67   33   66 1
  68   33   67 1
  69   34   35 2
  70   34   36 2
  71   34   37 1
  72   37   68 1
  73   37   69 1
  74   37   70 1

#	End of record

