#	Name: ASD01140511
#	Creating user name:	WinNT
#	Creation time:	15. 06. 2019 19:01

#	Modifying user name:	WinNT
#	Modification time:	15. 06. 2019 19:01

#	Program:	/corina/corina34_cracker 3.40 0067  02.08.2006

@<TRIPOS>MOLECULE
ASD01140511
  52   53    0    0    0
SMALL
NO_CHARGES


@<TRIPOS>ATOM
   1 C1             0.0028     1.3640     0.0144 C.ar    
   2 C2             0.0203    -0.0164     0.0180 C.ar    
   3 C3             1.2243    -0.6977     0.0236 C.ar    
   4 C4             2.4192    -0.0025     0.0257 C.ar    
   5 C5             2.4162     1.3827     0.0222 C.ar    
   6 C6             1.2007     2.0742     0.0165 C.ar    
   7 C7             1.1875     3.5574     0.0122 C.ar    
   8 C8             0.4089     4.2456    -0.9169 C.ar    
   9 C9             0.3960     5.6257    -0.9208 C.ar    
  10 C10            1.1571     6.3316    -0.0019 C.ar    
  11 C11            1.9378     5.6493     0.9297 C.ar    
  12 C12            1.9489     4.2644     0.9405 C.ar    
  13 O13            3.5898     2.0670     0.0243 O.3     
  14 O14            1.1424     7.6911    -0.0097 O.3     
  15 C15           -1.2766    -0.7838     0.0162 C.3     
  16 C16           -1.7114    -1.0472    -1.4269 C.3     
  17 C17           -3.0282    -1.8263    -1.4287 C.3     
  18 C18           -0.4468     6.3669    -1.9265 C.3     
  19 C19            0.4112     6.7348    -3.1386 C.3     
  20 C20           -0.4445     7.4873    -4.1596 C.3     
  21 C21            4.7916     1.2938     0.0302 C.3     
  22 N22            2.7067     6.3640     1.8580 N.am    
  23 C23            2.8895     5.8748     3.1005 C.2     
  24 C24            3.8183     6.5766     4.0575 C.3     
  25 O25            2.3065     4.8696     3.4483 O.2     
  26 H26           -0.9390     1.8926     0.0055 H       
  27 H27            1.2307    -1.7777     0.0267 H       
  28 H28            3.3560    -0.5399     0.0305 H       
  29 H29           -0.1846     3.6985    -1.6344 H       
  30 H30            2.5496     3.7337     1.6643 H       
  31 H31            0.4593     8.0802     0.5535 H       
  32 H32           -1.1376    -1.7335     0.5328 H       
  33 H33           -2.0440    -0.2016     0.5263 H       
  34 H34           -1.8504    -0.0975    -1.9435 H       
  35 H35           -0.9440    -1.6294    -1.9370 H       
  36 H36           -2.8892    -2.7760    -0.9120 H       
  37 H37           -3.7955    -1.2441    -0.9185 H       
  38 H38           -3.3379    -2.0139    -2.4568 H       
  39 H39           -1.2736     5.7323    -2.2457 H       
  40 H40           -0.8409     7.2754    -1.4711 H       
  41 H41            1.2380     7.3694    -2.8194 H       
  42 H42            0.8053     5.8263    -3.5941 H       
  43 H43           -1.2712     6.8528    -4.4789 H       
  44 H44           -0.8386     8.3958    -3.7042 H       
  45 H45            0.1668     7.7495    -5.0232 H       
  46 H46            4.8162     0.6673     0.9218 H       
  47 H47            4.8220     0.6628    -0.8581 H       
  48 H48            5.6532     1.9614     0.0313 H       
  49 H49            3.1073     7.2108     1.6064 H       
  50 H50            4.2469     7.4528     3.5711 H       
  51 H51            3.2618     6.8876     4.9416 H       
  52 H52            4.6179     5.8969     4.3520 H       
@<TRIPOS>BOND
   1    1    2 ar
   2    1    6 ar
   3    1   26 1
   4    2    3 ar
   5    2   15 1
   6    3    4 ar
   7    3   27 1
   8    4    5 ar
   9    4   28 1
  10    5    6 ar
  11    5   13 1
  12    6    7 1
  13    7    8 ar
  14    7   12 ar
  15    8    9 ar
  16    8   29 1
  17    9   10 ar
  18    9   18 1
  19   10   11 ar
  20   10   14 1
  21   11   12 ar
  22   11   22 1
  23   12   30 1
  24   13   21 1
  25   14   31 1
  26   15   16 1
  27   15   32 1
  28   15   33 1
  29   16   17 1
  30   16   34 1
  31   16   35 1
  32   17   36 1
  33   17   37 1
  34   17   38 1
  35   18   19 1
  36   18   39 1
  37   18   40 1
  38   19   20 1
  39   19   41 1
  40   19   42 1
  41   20   43 1
  42   20   44 1
  43   20   45 1
  44   21   46 1
  45   21   47 1
  46   21   48 1
  47   22   23 am
  48   22   49 1
  49   23   24 1
  50   23   25 2
  51   24   50 1
  52   24   51 1
  53   24   52 1

#	End of record

