#	Name: ASD01903248
#	Creating user name:	WinNT
#	Creation time:	15. 06. 2019 19:54

#	Modifying user name:	WinNT
#	Modification time:	15. 06. 2019 19:54

#	Program:	/corina/corina34_cracker 3.40 0067  02.08.2006

@<TRIPOS>MOLECULE
ASD01903248
  32   34    0    0    0
SMALL
NO_CHARGES


@<TRIPOS>ATOM
   1 S1            -0.0211     1.7049     0.0114 S.3     
   2 C2             0.0021    -0.0041     0.0020 C.2     
   3 N3             1.2221    -0.4387    -0.0120 N.2     
   4 C4             2.1845     0.4751    -0.0162 C.2     
   5 C5             1.7399     1.7439    -0.0052 C.2     
   6 N6            -1.1265    -0.8116     0.0089 N.pl3   
   7 C7            -2.3885    -0.2388     0.0239 C.ar    
   8 C8             3.6284     0.1262    -0.0314 C.2     
   9 C9             4.1700    -1.1735    -0.0436 C.2     
  10 N10            5.4730    -1.0711    -0.0550 N.2     
  11 N11            5.8122     0.2874    -0.0506 N.pl3   
  12 C12            4.6699     1.0066    -0.0421 C.2     
  13 N13           -3.4552    -1.0244     0.0303 N.ar    
  14 C14           -4.6737    -0.5101     0.0451 C.ar    
  15 C15           -4.8260     0.8677     0.0540 C.ar    
  16 C16           -3.6886     1.6600     0.0469 C.ar    
  17 N17           -2.4993     1.0814     0.0371 N.ar    
  18 C18            3.3839    -2.4592    -0.0430 C.3     
  19 O19            3.1226    -2.8583    -1.3900 O.3     
  20 C20            2.3784    -4.0731    -1.5023 C.3     
  21 H21            2.3548     2.6317    -0.0066 H       
  22 H22           -1.0321    -1.7770     0.0031 H       
  23 H23            6.7122     0.6491    -0.0566 H       
  24 H24            4.5944     2.0839    -0.0370 H       
  25 H25           -5.5395    -1.1557     0.0499 H       
  26 H26           -5.8093     1.3140     0.0657 H       
  27 H27           -3.7726     2.7367     0.0535 H       
  28 H28            3.9585    -3.2362     0.4612 H       
  29 H29            2.4400    -2.3077     0.4806 H       
  30 H30            2.9321    -4.8836    -1.0284 H       
  31 H31            1.4136    -3.9551    -1.0089 H       
  32 H32            2.2218    -4.3072    -2.5553 H       
@<TRIPOS>BOND
   1    1    2 1
   2    1    5 1
   3    2    3 2
   4    2    6 1
   5    3    4 1
   6    4    5 2
   7    4    8 1
   8    5   21 1
   9    6    7 1
  10    6   22 1
  11    7   13 ar
  12    7   17 ar
  13    8    9 1
  14    8   12 2
  15    9   10 2
  16    9   18 1
  17   10   11 1
  18   11   12 1
  19   11   23 1
  20   12   24 1
  21   13   14 ar
  22   14   15 ar
  23   14   25 1
  24   15   16 ar
  25   15   26 1
  26   16   17 ar
  27   16   27 1
  28   18   19 1
  29   18   28 1
  30   18   29 1
  31   19   20 1
  32   20   30 1
  33   20   31 1
  34   20   32 1

#	End of record

