#	Name: ASD01910063
#	Creating user name:	WinNT
#	Creation time:	15. 06. 2019 19:55

#	Modifying user name:	WinNT
#	Modification time:	15. 06. 2019 19:55

#	Program:	/corina/corina34_cracker 3.40 0067  02.08.2006

@<TRIPOS>MOLECULE
ASD01910063
  46   49    0    0    0
SMALL
NO_CHARGES


@<TRIPOS>ATOM
   1 C1            -0.0158     1.3124     0.0093 C.2     
   2 N2             0.0021    -0.0041     0.0020 N.2     
   3 N3            -1.3214    -0.4624     0.0127 N.pl3   
   4 C4            -2.1427     0.6240     0.0267 C.2     
   5 C5            -1.3588     1.7338     0.0305 C.2     
   6 C6             1.1743     2.1988     0.0027 C.ar    
   7 C7             2.4549     1.6499    -0.0130 C.ar    
   8 C8             3.5583     2.4790    -0.0191 C.ar    
   9 C9             3.3945     3.8525    -0.0091 C.ar    
  10 C10            2.1256     4.4028     0.0065 C.ar    
  11 C11            1.0151     3.5831     0.0064 C.ar    
  12 C12           -1.7288    -1.8026     0.0089 C.ar    
  13 N13           -3.5370     0.6013     0.0397 N.am    
  14 C14           -4.2296     1.7574     0.0529 C.2     
  15 C15           -5.7364     1.7329     0.0669 C.3     
  16 O16           -3.6403     2.8175     0.0534 O.2     
  17 C17           -0.9960    -2.7506    -0.6931 C.ar    
  18 C18           -1.4003    -4.0712    -0.6950 C.ar    
  19 C19           -2.5335    -4.4499     0.0012 C.ar    
  20 C20           -3.2653    -3.5083     0.7012 C.ar    
  21 C21           -2.8631    -2.1871     0.7117 C.ar    
  22 C22           -6.2868     3.1698     0.0804 C.3     
  23 C23           -7.1319     3.3300    -1.2003 C.3     
  24 C24           -7.5381     1.8820    -1.5709 C.3     
  25 C25           -6.2662     1.0701    -1.2214 C.3     
  26 H26           -1.7045     2.7569     0.0412 H       
  27 H27            2.5839     0.5777    -0.0201 H       
  28 H28            4.5513     2.0547    -0.0312 H       
  29 H29            4.2607     4.4976    -0.0132 H       
  30 H30            2.0034     5.4758     0.0146 H       
  31 H31            0.0248     4.0138     0.0181 H       
  32 H32           -4.0083    -0.2465     0.0393 H       
  33 H33           -6.0925     1.1885     0.9415 H       
  34 H34           -0.1111    -2.4554    -1.2374 H       
  35 H35           -0.8310    -4.8088    -1.2411 H       
  36 H36           -2.8478    -5.4831    -0.0021 H       
  37 H37           -4.1501    -3.8071     1.2437 H       
  38 H38           -3.4350    -1.4522     1.2586 H       
  39 H39           -6.9108     3.3224     0.9610 H       
  40 H40           -5.4641     3.8848     0.0767 H       
  41 H41           -8.0162     3.9351    -1.0005 H       
  42 H42           -6.5361     3.7750    -1.9972 H       
  43 H43           -8.3846     1.5521    -0.9686 H       
  44 H44           -7.7656     1.8048    -2.6341 H       
  45 H45           -5.5306     1.1501    -2.0218 H       
  46 H46           -6.5188     0.0259    -1.0371 H       
@<TRIPOS>BOND
   1    1    2 2
   2    1    6 1
   3    1    5 1
   4    2    3 1
   5    3    4 1
   6    3   12 1
   7    4    5 2
   8    4   13 1
   9    5   26 1
  10    6    7 ar
  11    6   11 ar
  12    7    8 ar
  13    7   27 1
  14    8    9 ar
  15    8   28 1
  16    9   10 ar
  17    9   29 1
  18   10   11 ar
  19   10   30 1
  20   11   31 1
  21   12   17 ar
  22   12   21 ar
  23   13   14 am
  24   13   32 1
  25   14   15 1
  26   14   16 2
  27   15   22 1
  28   15   25 1
  29   15   33 1
  30   17   18 ar
  31   17   34 1
  32   18   19 ar
  33   18   35 1
  34   19   20 ar
  35   19   36 1
  36   20   21 ar
  37   20   37 1
  38   21   38 1
  39   22   23 1
  40   22   39 1
  41   22   40 1
  42   23   24 1
  43   23   41 1
  44   23   42 1
  45   24   25 1
  46   24   43 1
  47   24   44 1
  48   25   45 1
  49   25   46 1

#	End of record

