#	Name: ASD01916256
#	Creating user name:	WinNT
#	Creation time:	15. 06. 2019 20:07

#	Modifying user name:	WinNT
#	Modification time:	15. 06. 2019 20:07

#	Program:	/corina/corina34_cracker 3.40 0067  02.08.2006

@<TRIPOS>MOLECULE
ASD01916256
  37   39    0    0    0
SMALL
NO_CHARGES


@<TRIPOS>ATOM
   1 C1            -0.0545     1.3262    -0.2458 C.ar    
   2 C2             0.0314    -0.0536    -0.1705 C.ar    
   3 C3             1.2267    -0.6574     0.1727 C.ar    
   4 C4             2.3500     0.1253     0.4435 C.ar    
   5 C5             2.2608     1.5157     0.3665 C.ar    
   6 C6             1.0588     2.1112     0.0224 C.ar    
   7 O7             0.9692     3.4650    -0.0538 O.3     
   8 C8             1.4646     4.0759    -1.1621 C.ar    
   9 C9             1.3992     5.4582    -1.3044 C.ar    
  10 N10            1.8931     6.0150    -2.3980 N.ar    
  11 C11            2.4408     5.2786    -3.3438 C.ar    
  12 N12            2.5211     3.9668    -3.2462 N.ar    
  13 C13            2.0554     3.3355    -2.1810 C.ar    
  14 F14           -1.0557    -0.8117    -0.4327 F       
  15 C15            3.6298    -0.5164     0.8113 C.2     
  16 N16            3.7134    -1.8596     0.8855 N.am    
  17 O17            4.6069     0.1672     1.0468 O.2     
  18 C18            4.9427    -2.4687     1.1277 C.ar    
  19 C19            5.0444    -3.8546     1.0873 C.ar    
  20 C20            6.2716    -4.4468     1.3294 C.ar    
  21 C21            7.3588    -3.6289     1.6046 C.ar    
  22 C22            7.1853    -2.2589     1.6286 C.ar    
  23 N23            6.0044    -1.7223     1.3889 N.ar    
  24 C24            8.3617    -1.3653     1.9267 C.3     
  25 F25            7.9137    -0.1995     2.5571 F       
  26 F26            9.2556    -2.0364     2.7680 F       
  27 H27           -0.9894     1.7932    -0.5183 H       
  28 H28            1.2912    -1.7339     0.2314 H       
  29 H29            3.1270     2.1260     0.5755 H       
  30 H30            0.9515     6.0678    -0.5335 H       
  31 H31            2.8348     5.7641    -4.2244 H       
  32 H32            2.1249     2.2603    -2.1075 H       
  33 H33            2.9176    -2.4021     0.7702 H       
  34 H34            4.1774    -4.4610     0.8703 H       
  35 H35            6.3808    -5.5210     1.3051 H       
  36 H36            8.3302    -4.0593     1.7983 H       
  37 H37            8.8650    -1.1045     0.9957 H       
@<TRIPOS>BOND
   1    1    2 ar
   2    1    6 ar
   3    1   27 1
   4    2    3 ar
   5    2   14 1
   6    3    4 ar
   7    3   28 1
   8    4    5 ar
   9    4   15 1
  10    5    6 ar
  11    5   29 1
  12    6    7 1
  13    7    8 1
  14    8    9 ar
  15    8   13 ar
  16    9   10 ar
  17    9   30 1
  18   10   11 ar
  19   11   12 ar
  20   11   31 1
  21   12   13 ar
  22   13   32 1
  23   15   16 am
  24   15   17 2
  25   16   18 1
  26   16   33 1
  27   18   19 ar
  28   18   23 ar
  29   19   20 ar
  30   19   34 1
  31   20   21 ar
  32   20   35 1
  33   21   22 ar
  34   21   36 1
  35   22   23 ar
  36   22   24 1
  37   24   25 1
  38   24   26 1
  39   24   37 1

#	End of record

