#	Name: ASD03331450
#	Creating user name:	WinNT
#	Creation time:	15. 06. 2019 20:39

#	Modifying user name:	WinNT
#	Modification time:	15. 06. 2019 20:39

#	Program:	/corina/corina34_cracker 3.40 0067  02.08.2006

@<TRIPOS>MOLECULE
ASD03331450
  71   75    0    0    0
SMALL
NO_CHARGES


@<TRIPOS>ATOM
   1 N1            -0.5848     1.8545    -1.1432 N.am    
   2 C2            -0.3487     0.4249    -1.3869 C.3     
   3 C3            -0.7948     0.0876    -2.8131 C.3     
   4 C4            -0.0855     1.0188    -3.7989 C.3     
   5 C5            -0.4728     2.4693    -3.5020 C.3     
   6 C6            -0.0230     2.8336    -2.0836 C.3     
   7 C7             1.4062     0.8582    -3.6566 C.2     
   8 O8             2.1048     1.8301    -3.4608 O.2     
   9 N9             1.9639    -0.3654    -3.7469 N.am    
  10 C10           -0.4960     0.6674    -5.2057 C.ar    
  11 C11           -0.0513     1.4337    -6.2668 C.ar    
  12 C12           -0.4268     1.1122    -7.5573 C.ar    
  13 C13           -1.2487     0.0219    -7.7873 C.ar    
  14 C14           -1.6935    -0.7449    -6.7237 C.ar    
  15 C15           -1.3125    -0.4245    -5.4345 C.ar    
  16 F16           -1.6168    -0.2931    -9.0484 F       
  17 C17           -1.3077     2.2597    -0.0804 C.2     
  18 O18           -1.8517     1.4390     0.6337 O.2     
  19 N19           -2.2966     5.6695     0.7400 N.pl3   
  20 C20           -2.6006     4.3632     0.5426 C.2     
  21 C21           -1.4390     3.6964     0.2165 C.2     
  22 C22           -0.3936     4.6561     0.2209 C.2     
  23 C23           -0.9478     5.8524     0.5442 C.2     
  24 C24           -3.9708     3.7468     0.6593 C.3     
  25 C25           -4.6736     3.8051    -0.6985 C.3     
  26 C26           -6.0648     3.1794    -0.5801 C.3     
  27 O27           -6.7211     3.2338    -1.8482 O.3     
  28 C28           -0.2232     7.1358     0.6658 C.ar    
  29 C29            0.9387     7.2147     1.4371 C.ar    
  30 C30            1.6106     8.4157     1.5460 C.ar    
  31 C31            1.1346     9.5399     0.8927 C.ar    
  32 C32           -0.0169     9.4672     0.1273 C.ar    
  33 C33           -0.6941     8.2712     0.0060 C.ar    
  34 Cl34           1.9847    11.0468     1.0343 Cl      
  35 Cl35           1.5360     5.8060     2.2571 Cl      
  36 C36           -3.2117     6.6740     1.0831 C.ar    
  37 C37           -3.1575     7.2649     2.3383 C.ar    
  38 C38           -4.0600     8.2550     2.6738 C.ar    
  39 C39           -5.0179     8.6582     1.7600 C.ar    
  40 C40           -5.0742     8.0705     0.5084 C.ar    
  41 C41           -4.1703     7.0840     0.1661 C.ar    
  42 Cl42          -6.1510     9.9030     2.1847 Cl      
  43 H43            0.7131     0.2056    -1.2746 H       
  44 H44           -0.9235    -0.1670    -0.6746 H       
  45 H45           -0.5369    -0.9469    -3.0398 H       
  46 H46           -1.8733     0.2212    -2.8981 H       
  47 H47            0.0144     3.1300    -4.2191 H       
  48 H48           -1.5543     2.5804    -3.5806 H       
  49 H49           -0.3829     3.8310    -1.8311 H       
  50 H50            1.0653     2.8107    -2.0282 H       
  51 H51            1.4156    -1.1328    -3.9733 H       
  52 H52            2.9137    -0.4786    -3.5855 H       
  53 H53            0.5895     2.2843    -6.0871 H       
  54 H54           -0.0795     1.7112    -8.3861 H       
  55 H55           -2.3347    -1.5955    -6.9019 H       
  56 H56           -1.6560    -1.0250    -4.6051 H       
  57 H57            0.6484     4.4696     0.0067 H       
  58 H58           -3.8762     2.7079     0.9751 H       
  59 H59           -4.5559     4.2985     1.3951 H       
  60 H60           -4.7682     4.8441    -1.0144 H       
  61 H61           -4.0886     3.2535    -1.4344 H       
  62 H62           -5.9702     2.1404    -0.2642 H       
  63 H63           -6.6498     3.7310     0.1558 H       
  64 H64           -7.6103     2.8537    -1.8475 H       
  65 H65            2.5089     8.4786     2.1422 H       
  66 H66           -0.3833    10.3477    -0.3795 H       
  67 H67           -1.5895     8.2151    -0.5953 H       
  68 H68           -2.4103     6.9503     3.0519 H       
  69 H69           -4.0185     8.7146     3.6502 H       
  70 H70           -5.8229     8.3867    -0.2029 H       
  71 H71           -4.2116     6.6291    -0.8125 H       
@<TRIPOS>BOND
   1    1    2 1
   2    1    6 1
   3    1   17 am
   4    2    3 1
   5    2   43 1
   6    2   44 1
   7    3    4 1
   8    3   45 1
   9    3   46 1
  10    4    5 1
  11    4    7 1
  12    4   10 1
  13    5    6 1
  14    5   47 1
  15    5   48 1
  16    6   49 1
  17    6   50 1
  18    7    8 2
  19    7    9 am
  20    9   51 1
  21    9   52 1
  22   10   11 ar
  23   10   15 ar
  24   11   12 ar
  25   11   53 1
  26   12   13 ar
  27   12   54 1
  28   13   14 ar
  29   13   16 1
  30   14   15 ar
  31   14   55 1
  32   15   56 1
  33   17   18 2
  34   17   21 1
  35   19   20 1
  36   19   23 1
  37   19   36 1
  38   20   21 2
  39   20   24 1
  40   21   22 1
  41   22   23 2
  42   22   57 1
  43   23   28 1
  44   24   25 1
  45   24   58 1
  46   24   59 1
  47   25   26 1
  48   25   60 1
  49   25   61 1
  50   26   27 1
  51   26   62 1
  52   26   63 1
  53   27   64 1
  54   28   29 ar
  55   28   33 ar
  56   29   30 ar
  57   29   35 1
  58   30   31 ar
  59   30   65 1
  60   31   32 ar
  61   31   34 1
  62   32   33 ar
  63   32   66 1
  64   33   67 1
  65   36   37 ar
  66   36   41 ar
  67   37   38 ar
  68   37   68 1
  69   38   39 ar
  70   38   69 1
  71   39   40 ar
  72   39   42 1
  73   40   41 ar
  74   40   70 1
  75   41   71 1

#	End of record

