#	Name: ASD01410902
#	Creating user name:	WinNT
#	Creation time:	15. 06. 2019 19:18

#	Modifying user name:	WinNT
#	Modification time:	15. 06. 2019 19:18

#	Program:	/corina/corina34_cracker 3.40 0067  02.08.2006

@<TRIPOS>MOLECULE
ASD01410902
  59   60    0    0    0
SMALL
NO_CHARGES


@<TRIPOS>ATOM
   1 S1             1.4847     1.8788    -1.0625 S.3     
   2 C2             2.4188     0.3894    -1.0464 C.2     
   3 C3             1.7021    -0.5988    -0.4126 C.2     
   4 C4             0.4679    -0.2025     0.0427 C.2     
   5 C5             0.1584     1.1029    -0.2089 C.2     
   6 C6            -1.0650     1.7451     0.1672 C.1     
   7 C7            -2.0680     2.2716     0.4756 C.1     
   8 C8            -3.3256     2.9317     0.8622 C.3     
   9 C9            -4.2264     1.9290     1.5861 C.3     
  10 C10           -3.0196     4.1068     1.7930 C.3     
  11 C11            3.7098     0.2315    -1.6008 C.2     
  12 N12            2.1880    -1.8965    -0.2465 N.am    
  13 O13            4.2839     1.2501    -2.2755 O.3     
  14 O14            4.3036    -0.8230    -1.4698 O.2     
  15 C15            3.0564    -2.2136     0.8900 C.3     
  16 C16            1.8583    -2.8580    -1.1315 C.2     
  17 C17            2.3057    -4.2787    -0.9023 C.3     
  18 O18            1.2016    -2.5798    -2.1125 O.2     
  19 C19            2.2100    -2.5370     2.0941 C.2     
  20 C20            2.3534    -5.0204    -2.2396 C.3     
  21 C21            2.8076    -6.4628    -2.0068 C.3     
  22 C22            1.8213    -7.1632    -1.0700 C.3     
  23 C23            1.7736    -6.4214     0.2673 C.3     
  24 C24            1.3194    -4.9790     0.0345 C.3     
  25 C25            2.2755    -8.6055    -0.8372 C.3     
  26 N26            2.7910    -2.9775     3.2276 N.am    
  27 O27            1.0059    -2.4009     2.0432 O.2     
  28 C28            1.9681    -3.2919     4.3982 C.3     
  29 C29           -4.0380     3.4455    -0.3905 C.3     
  30 H30           -0.2048    -0.8714     0.5587 H       
  31 H31           -3.7189     1.5629     2.4786 H       
  32 H32           -5.1576     2.4178     1.8724 H       
  33 H33           -4.4444     1.0918     0.9230 H       
  34 H34           -2.3778     4.8212     1.2773 H       
  35 H35           -3.9508     4.5957     2.0793 H       
  36 H36           -2.5120     3.7408     2.6855 H       
  37 H37            5.1657     1.0481    -2.6172 H       
  38 H38            3.6795    -3.0730     0.6424 H       
  39 H39            3.6917    -1.3562     1.1121 H       
  40 H40            3.2979    -4.2788    -0.4511 H       
  41 H41            1.3611    -5.0203    -2.6907 H       
  42 H42            3.0560    -4.5215    -2.9069 H       
  43 H43            2.8416    -6.9913    -2.9595 H       
  44 H44            3.7998    -6.4629    -1.5556 H       
  45 H45            0.8290    -7.1630    -1.5212 H       
  46 H46            1.0709    -6.9204     0.9347 H       
  47 H47            2.7658    -6.4216     0.7185 H       
  48 H48            1.2854    -4.4506     0.9873 H       
  49 H49            0.3271    -4.9789    -0.4166 H       
  50 H50            3.2677    -8.6057    -0.3861 H       
  51 H51            1.5728    -9.1045    -0.1698 H       
  52 H52            2.3094    -9.1340    -1.7900 H       
  53 H53            3.7540    -3.0864     3.2684 H       
  54 H54            1.4245    -2.4002     4.7103 H       
  55 H55            1.2587    -4.0791     4.1428 H       
  56 H56            2.6089    -3.6304     5.2124 H       
  57 H57           -4.2560     2.6083    -1.0536 H       
  58 H58           -4.9692     3.9343    -0.1042 H       
  59 H59           -3.3963     4.1599    -0.9062 H       
@<TRIPOS>BOND
   1    1    2 1
   2    1    5 1
   3    2    3 2
   4    2   11 1
   5    3    4 1
   6    3   12 1
   7    4    5 2
   8    4   30 1
   9    5    6 1
  10    6    7 3
  11    7    8 1
  12    8    9 1
  13    8   10 1
  14    8   29 1
  15    9   31 1
  16    9   32 1
  17    9   33 1
  18   10   34 1
  19   10   35 1
  20   10   36 1
  21   11   13 1
  22   11   14 2
  23   12   15 1
  24   12   16 am
  25   13   37 1
  26   15   19 1
  27   15   38 1
  28   15   39 1
  29   16   18 2
  30   16   17 1
  31   17   20 1
  32   17   24 1
  33   17   40 1
  34   19   26 am
  35   19   27 2
  36   20   21 1
  37   20   41 1
  38   20   42 1
  39   21   22 1
  40   21   43 1
  41   21   44 1
  42   22   23 1
  43   22   25 1
  44   22   45 1
  45   23   24 1
  46   23   46 1
  47   23   47 1
  48   24   48 1
  49   24   49 1
  50   25   50 1
  51   25   51 1
  52   25   52 1
  53   26   28 1
  54   26   53 1
  55   28   54 1
  56   28   55 1
  57   28   56 1
  58   29   57 1
  59   29   58 1
  60   29   59 1

#	End of record

