#	Name: ASD07300206
#	Creating user name:	WinNT
#	Creation time:	15. 06. 2019 21:09

#	Modifying user name:	WinNT
#	Modification time:	15. 06. 2019 21:09

#	Program:	/corina/corina34_cracker 3.40 0067  02.08.2006

@<TRIPOS>MOLECULE
ASD07300206
  50   55    0    0    0
SMALL
NO_CHARGES


@<TRIPOS>ATOM
   1 C1            -0.0173     1.3942    -0.0101 C.ar    
   2 C2             0.0017    -0.0040    -0.0201 C.ar    
   3 C3             1.2194    -0.6672    -0.0402 C.ar    
   4 C4             2.3803     0.0925    -0.0498 C.ar    
   5 C5             2.2874     1.4714    -0.0390 C.ar    
   6 N6             1.1157     2.0769    -0.0198 N.ar    
   7 C7            -2.1142     0.6623     0.0204 C.2     
   8 N8            -1.3545     1.7734     0.0152 N.am    
   9 N9            -1.3238    -0.4278    -0.0061 N.am    
  10 O10           -3.3306     0.6454     0.0410 O.2     
  11 C11           -1.7805    -1.8198    -0.0100 C.3     
  12 C12           -1.9211    -2.3144     1.4310 C.3     
  13 N13           -3.4561     6.9324     0.0898 N.pl3   
  14 C14           -4.9041     6.7095     0.1128 C.3     
  15 C15           -5.0773     5.1820     0.1037 C.3     
  16 C16           -3.6662     4.6387     0.0754 C.ar    
  17 C17           -3.1974     3.3395     0.0576 C.ar    
  18 C18           -1.8319     3.0926     0.0328 C.ar    
  19 C19           -0.9405     4.1572     0.0259 C.ar    
  20 C20           -1.4092     5.4525     0.0437 C.ar    
  21 C21           -2.7825     5.7062     0.0687 C.ar    
  22 C22           -2.8462     8.1702     0.0839 C.2     
  23 N23           -1.5545     8.3730     0.1607 N.2     
  24 C24           -1.2992     9.7072     0.1275 C.ar    
  25 C25           -2.5375    10.3626     0.0221 C.ar    
  26 N26           -3.4992     9.3662    -0.0089 N.pl3   
  27 C27           -0.1243    10.4611     0.1757 C.ar    
  28 C28           -0.1908    11.8355     0.1196 C.ar    
  29 C29           -1.4156    12.4772     0.0156 C.ar    
  30 C30           -2.5855    11.7469    -0.0331 C.ar    
  31 H31            1.2630    -1.7463    -0.0479 H       
  32 H32            3.3470    -0.3889    -0.0651 H       
  33 H33            3.1904     2.0639    -0.0460 H       
  34 H34           -2.7459    -1.8841    -0.5120 H       
  35 H35           -1.0548    -2.4388    -0.5374 H       
  36 H36           -2.2609    -3.3501     1.4282 H       
  37 H37           -0.9557    -2.2501     1.9331 H       
  38 H38           -2.6469    -1.6954     1.9585 H       
  39 H39           -5.3376     7.1338     1.0184 H       
  40 H40           -5.3682     7.1478    -0.7707 H       
  41 H41           -5.5934     4.8525     1.0055 H       
  42 H42           -5.6240     4.8666    -0.7849 H       
  43 H43           -3.8944     2.5146     0.0634 H       
  44 H44            0.1229     3.9693     0.0070 H       
  45 H45           -0.7109     6.2764     0.0386 H       
  46 H46           -4.4581     9.4941    -0.0808 H       
  47 H47            0.8330     9.9678     0.2570 H       
  48 H48            0.7179    12.4180     0.1573 H       
  49 H49           -1.4543    13.5557    -0.0275 H       
  50 H50           -3.5363    12.2526    -0.1145 H       
@<TRIPOS>BOND
   1    1    2 ar
   2    1    6 ar
   3    1    8 1
   4    2    3 ar
   5    2    9 1
   6    3    4 ar
   7    3   31 1
   8    4    5 ar
   9    4   32 1
  10    5    6 ar
  11    5   33 1
  12    7    8 am
  13    7    9 am
  14    7   10 2
  15    8   18 1
  16    9   11 1
  17   11   12 1
  18   11   34 1
  19   11   35 1
  20   12   36 1
  21   12   37 1
  22   12   38 1
  23   13   14 1
  24   13   21 1
  25   13   22 1
  26   14   15 1
  27   14   39 1
  28   14   40 1
  29   15   16 1
  30   15   41 1
  31   15   42 1
  32   16   17 ar
  33   16   21 ar
  34   17   18 ar
  35   17   43 1
  36   18   19 ar
  37   19   20 ar
  38   19   44 1
  39   20   21 ar
  40   20   45 1
  41   22   23 2
  42   22   26 1
  43   23   24 1
  44   24   25 ar
  45   24   27 ar
  46   25   26 1
  47   25   30 ar
  48   26   46 1
  49   27   28 ar
  50   27   47 1
  51   28   29 ar
  52   28   48 1
  53   29   30 ar
  54   29   49 1
  55   30   50 1

#	End of record

