#	Name: ASD01914907
#	Creating user name:	WinNT
#	Creation time:	15. 06. 2019 20:04

#	Modifying user name:	WinNT
#	Modification time:	15. 06. 2019 20:04

#	Program:	/corina/corina34_cracker 3.40 0067  02.08.2006

@<TRIPOS>MOLECULE
ASD01914907
  57   61    0    0    0
SMALL
NO_CHARGES


@<TRIPOS>ATOM
   1 C1            -0.0033     1.3310    -0.0213 C.2     
   2 N2             0.0139     0.0589     0.3179 N.2     
   3 C3             1.3081     1.7201    -0.3419 C.2     
   4 C4             2.1160     0.6325    -0.1826 C.2     
   5 N5             1.3319    -0.4058     0.2258 N.pl3   
   6 C6            -1.2037     2.2031    -0.0639 C.ar    
   7 C7            -2.4536     1.6891     0.2746 C.ar    
   8 C8            -3.5665     2.5044     0.2333 C.ar    
   9 C9            -3.4426     3.8294    -0.1438 C.ar    
  10 C10           -2.2041     4.3448    -0.4809 C.ar    
  11 C11           -1.0837     3.5400    -0.4370 C.ar    
  12 C12            3.5775     0.5877    -0.4112 C.ar    
  13 C13            4.1836     1.5202    -1.2532 C.ar    
  14 C14            5.5466     1.4730    -1.4624 C.ar    
  15 C15            6.3119     0.5037    -0.8391 C.ar    
  16 C16            5.7166    -0.4242    -0.0032 C.ar    
  17 C17            4.3554    -0.3837     0.2189 C.ar    
  18 C18            1.7879    -1.7672     0.5172 C.3     
  19 C19            2.0660    -1.8988     1.9925 C.2     
  20 N20            2.4995    -3.0721     2.4945 N.am    
  21 C21            2.7803    -3.2338     3.9308 C.3     
  22 C22            1.7932    -4.2573     4.4896 C.3     
  23 C23            1.7258    -5.4754     3.6062 C.ar    
  24 C24            2.1380    -5.4689     2.2922 C.ar    
  25 C25            2.7050    -4.2414     1.6331 C.3     
  26 C26            1.2208    -6.6456     4.1616 C.ar    
  27 C27            1.1232    -7.7958     3.4090 C.ar    
  28 C28            1.5315    -7.7881     2.0828 C.ar    
  29 C29            2.0372    -6.6239     1.5299 C.ar    
  30 O30            1.4356    -8.9163     1.3313 O.3     
  31 C31            0.9040   -10.0785     1.9708 C.3     
  32 O32            1.8996    -0.9490     2.7280 O.2     
  33 H33            1.6207     2.7042    -0.6584 H       
  34 H34           -2.5515     0.6545     0.5685 H       
  35 H35           -4.5359     2.1070     0.4955 H       
  36 H36           -4.3161     4.4637    -0.1755 H       
  37 H37           -2.1129     5.3801    -0.7746 H       
  38 H38           -0.1171     3.9435    -0.7001 H       
  39 H39            3.5871     2.2772    -1.7407 H       
  40 H40            6.0170     2.1942    -2.1144 H       
  41 H41            7.3784     0.4709    -1.0060 H       
  42 H42            6.3193    -1.1790     0.4800 H       
  43 H43            3.8919    -1.1084     0.8719 H       
  44 H44            1.0147    -2.4790     0.2283 H       
  45 H45            2.6993    -1.9731    -0.0441 H       
  46 H46            3.8006    -3.5917     4.0691 H       
  47 H47            2.6510    -2.2796     4.4416 H       
  48 H48            2.1131    -4.5558     5.4879 H       
  49 H49            0.8038    -3.8043     4.5516 H       
  50 H50            2.2093    -4.0822     0.6754 H       
  51 H51            3.7738    -4.3786     1.4692 H       
  52 H52            0.9020    -6.6534     5.1935 H       
  53 H53            0.7307    -8.7003     3.8498 H       
  54 H54            2.3550    -6.6145     0.4977 H       
  55 H55            0.8822   -10.9057     1.2613 H       
  56 H56            1.5324   -10.3451     2.8205 H       
  57 H57           -0.1081    -9.8711     2.3182 H       
@<TRIPOS>BOND
   1    1    2 2
   2    1    3 1
   3    1    6 1
   4    2    5 1
   5    3    4 2
   6    3   33 1
   7    4    5 1
   8    4   12 1
   9    5   18 1
  10    6    7 ar
  11    6   11 ar
  12    7    8 ar
  13    7   34 1
  14    8    9 ar
  15    8   35 1
  16    9   10 ar
  17    9   36 1
  18   10   11 ar
  19   10   37 1
  20   11   38 1
  21   12   13 ar
  22   12   17 ar
  23   13   14 ar
  24   13   39 1
  25   14   15 ar
  26   14   40 1
  27   15   16 ar
  28   15   41 1
  29   16   17 ar
  30   16   42 1
  31   17   43 1
  32   18   19 1
  33   18   44 1
  34   18   45 1
  35   19   20 am
  36   19   32 2
  37   20   21 1
  38   20   25 1
  39   21   22 1
  40   21   46 1
  41   21   47 1
  42   22   23 1
  43   22   48 1
  44   22   49 1
  45   23   24 ar
  46   23   26 ar
  47   24   25 1
  48   24   29 ar
  49   25   50 1
  50   25   51 1
  51   26   27 ar
  52   26   52 1
  53   27   28 ar
  54   27   53 1
  55   28   29 ar
  56   28   30 1
  57   29   54 1
  58   30   31 1
  59   31   55 1
  60   31   56 1
  61   31   57 1

#	End of record

