#	Name: ASD02562038
#	Creating user name:	WinNT
#	Creation time:	15. 06. 2019 20:25

#	Modifying user name:	WinNT
#	Modification time:	15. 06. 2019 20:25

#	Program:	/corina/corina34_cracker 3.40 0067  02.08.2006

@<TRIPOS>MOLECULE
ASD02562038
  40   43    0    0    0
SMALL
NO_CHARGES


@<TRIPOS>ATOM
   1 C1             0.1358     1.3887     1.1077 C.2     
   2 C2             0.1567    -0.0175     1.0944 C.2     
   3 C3             1.2852    -0.6792     0.7691 C.2     
   4 N4             2.4254     0.0057     0.4474 N.pl3   
   5 C5             2.4347     1.3816     0.4515 C.2     
   6 C6             1.2601     2.0841     0.7902 C.2     
   7 C7             3.6808    -0.4021     0.0869 C.2     
   8 C8             4.4200     0.7171    -0.1189 C.2     
   9 N9             3.6472     1.7856     0.1071 N.2     
  10 N10            4.1201    -1.7252    -0.0446 N.3     
  11 C11            5.8688     0.7508    -0.5321 C.3     
  12 C12            2.9997    -2.6669     0.0813 C.3     
  13 C13            6.2118     1.4502    -1.8489 C.3     
  14 C14            6.5766     2.1071    -0.5162 C.3     
  15 C15            3.3441    -3.9692    -0.6442 C.3     
  16 C16            2.1772    -4.9500    -0.5130 C.3     
  17 C17            1.9210    -5.2429     0.9667 C.3     
  18 C18            1.5766    -3.9406     1.6922 C.3     
  19 C19            2.7435    -2.9598     1.5610 C.3     
  20 H20           -0.7718     1.9145     1.3650 H       
  21 H21           -0.7362    -0.5702     1.3466 H       
  22 H22            1.2896    -1.7592     0.7626 H       
  23 H23            1.2534     3.1641     0.7970 H       
  24 H24            4.6086    -1.8590    -0.9173 H       
  25 H25            6.4556    -0.1267    -0.2606 H       
  26 H26            2.1056    -2.2292    -0.3626 H       
  27 H27            7.0245     1.0331    -2.4436 H       
  28 H28            5.3894     1.8860    -2.4164 H       
  29 H29            5.9943     2.9751    -0.2068 H       
  30 H30            7.6293     2.1222    -0.2340 H       
  31 H31            3.5266    -3.7605    -1.6984 H       
  32 H32            4.2383    -4.4069    -0.2003 H       
  33 H33            1.2830    -4.5123    -0.9569 H       
  34 H34            2.4225    -5.8778    -1.0299 H       
  35 H35            1.0897    -5.9417     1.0601 H       
  36 H36            2.8152    -5.6806     1.4105 H       
  37 H37            0.6825    -3.5029     1.2483 H       
  38 H38            1.3941    -4.1493     2.7463 H       
  39 H39            3.6377    -3.3975     2.0048 H       
  40 H40            2.4982    -2.0320     2.0778 H       
@<TRIPOS>BOND
   1    1    2 1
   2    1    6 2
   3    1   20 1
   4    2    3 2
   5    2   21 1
   6    3    4 1
   7    3   22 1
   8    4    5 1
   9    4    7 1
  10    5    6 1
  11    5    9 2
  12    6   23 1
  13    7    8 2
  14    7   10 1
  15    8    9 1
  16    8   11 1
  17   10   12 1
  18   10   24 1
  19   11   13 1
  20   11   14 1
  21   11   25 1
  22   12   15 1
  23   12   19 1
  24   12   26 1
  25   13   14 1
  26   13   27 1
  27   13   28 1
  28   14   29 1
  29   14   30 1
  30   15   16 1
  31   15   31 1
  32   15   32 1
  33   16   17 1
  34   16   33 1
  35   16   34 1
  36   17   18 1
  37   17   35 1
  38   17   36 1
  39   18   19 1
  40   18   37 1
  41   18   38 1
  42   19   39 1
  43   19   40 1

#	End of record

