#	Name: ASD01912880
#	Creating user name:	WinNT
#	Creation time:	15. 06. 2019 20:00

#	Modifying user name:	WinNT
#	Modification time:	15. 06. 2019 20:00

#	Program:	/corina/corina34_cracker 3.40 0067  02.08.2006

@<TRIPOS>MOLECULE
ASD01912880
  40   43    0    0    0
SMALL
NO_CHARGES


@<TRIPOS>ATOM
   1 C1            -0.0165     1.3670     0.0096 C.2     
   2 N2             0.0021    -0.0041     0.0020 N.pl3   
   3 C3            -1.2017    -0.6915     0.0098 C.2     
   4 C4            -2.3629    -0.0485     0.0244 C.2     
   5 N5            -2.4354     1.3306     0.0320 N.am    
   6 C6            -1.3015     2.0666     0.0309 C.2     
   7 C7             1.3019     1.7837    -0.0008 C.2     
   8 C8             2.0551     0.6112    -0.0143 C.2     
   9 N9             1.2243    -0.4045    -0.0118 N.2     
  10 O10           -1.3485     3.2840     0.0376 O.2     
  11 C11           -3.6806     1.9650     0.0469 C.2     
  12 C12            3.5596     0.5249    -0.0291 C.3     
  13 O13            4.1123     1.8427    -0.0273 O.3     
  14 C14            5.4675     1.9433    -0.0397 C.ar    
  15 C15            6.0716     3.1922    -0.0388 C.ar    
  16 C16            7.4494     3.2919    -0.0514 C.ar    
  17 C17            8.2263     2.1482    -0.0650 C.ar    
  18 C18            7.6267     0.9023    -0.0664 C.ar    
  19 C19            6.2493     0.7973    -0.0476 C.ar    
  20 C20           -4.8654     1.3397     0.0548 C.2     
  21 C21           -5.9668     2.1815     0.0699 C.2     
  22 C22           -5.6756     3.4878     0.0742 C.2     
  23 S23           -3.9306     3.7057     0.0657 S.3     
  24 O24           -6.5901     4.4936     0.0879 O.3     
  25 C25           -6.0844     5.8302     0.0904 C.3     
  26 H26           -1.1947    -1.7715     0.0036 H       
  27 H27           -3.2785    -0.6212     0.0300 H       
  28 H28            1.6691     2.7994     0.0008 H       
  29 H29            3.9014    -0.0136     0.8548 H       
  30 H30            3.8844    -0.0041    -0.9251 H       
  31 H31            5.4652     4.0859    -0.0285 H       
  32 H32            7.9201     4.2639    -0.0511 H       
  33 H33            9.3033     2.2282    -0.0749 H       
  34 H34            8.2357     0.0105    -0.0778 H       
  35 H35            5.7815    -0.1761    -0.0487 H       
  36 H36           -4.9555     0.2635     0.0495 H       
  37 H37           -6.9814     1.8117     0.0772 H       
  38 H38           -6.9170     6.5336     0.1018 H       
  39 H39           -5.4671     5.9835     0.9756 H       
  40 H40           -5.4835     5.9929    -0.8043 H       
@<TRIPOS>BOND
   1    1    2 1
   2    1    7 2
   3    1    6 1
   4    2    3 1
   5    2    9 1
   6    3    4 2
   7    3   26 1
   8    4    5 1
   9    4   27 1
  10    5    6 am
  11    5   11 1
  12    6   10 2
  13    7    8 1
  14    7   28 1
  15    8    9 2
  16    8   12 1
  17   11   20 2
  18   11   23 1
  19   12   13 1
  20   12   29 1
  21   12   30 1
  22   13   14 1
  23   14   15 ar
  24   14   19 ar
  25   15   16 ar
  26   15   31 1
  27   16   17 ar
  28   16   32 1
  29   17   18 ar
  30   17   33 1
  31   18   19 ar
  32   18   34 1
  33   19   35 1
  34   20   21 1
  35   20   36 1
  36   21   22 2
  37   21   37 1
  38   22   23 1
  39   22   24 1
  40   24   25 1
  41   25   38 1
  42   25   39 1
  43   25   40 1

#	End of record

