#	Name: ASD03731636
#	Creating user name:	WinNT
#	Creation time:	15. 06. 2019 20:46

#	Modifying user name:	WinNT
#	Modification time:	15. 06. 2019 20:46

#	Program:	/corina/corina34_cracker 3.40 0067  02.08.2006

@<TRIPOS>MOLECULE
ASD03731636
  33   34    0    0    0
SMALL
NO_CHARGES


@<TRIPOS>ATOM
   1 C1            -0.1364     1.4672     0.0334 C.2     
   2 C2            -0.0853    -0.0063     0.0192 C.ar    
   3 C3             1.1399    -0.6648    -0.1384 C.ar    
   4 C4             1.1826    -2.0445    -0.1506 C.ar    
   5 C5             0.0129    -2.7784    -0.0068 C.ar    
   6 C6            -1.2080    -2.1271     0.1502 C.ar    
   7 C7            -1.2597    -0.7502     0.1689 C.ar    
   8 O8             0.8867     2.1123    -0.0919 O.2     
   9 N9            -1.3179     2.0991     0.1797 N.am    
  10 O10            0.0593    -4.1349    -0.0197 O.3     
  11 C11           -0.1525    -4.7694    -1.2030 C.ar    
  12 C12           -0.0464    -6.1523    -1.2793 C.ar    
  13 C13           -0.2626    -6.7965    -2.4860 C.ar    
  14 C14           -0.5837    -6.0622    -3.6154 C.ar    
  15 C15           -0.6891    -4.6841    -3.5401 C.ar    
  16 C16           -0.4803    -4.0374    -2.3343 C.ar    
  17 F17           -1.0017    -3.9699    -4.6435 F       
  18 F18           -0.1597    -8.1414    -2.5616 F       
  19 F19            0.2678    -6.8681    -0.1775 F       
  20 S20           -1.3753     3.7540     0.1956 S.o2    
  21 O21           -2.7505     4.0551     0.3895 O.2     
  22 O22           -0.4003     4.1292     1.1589 O.2     
  23 C23           -0.8456     4.2414    -1.4695 C.3     
  24 F24           -2.3430    -2.8465     0.2897 F       
  25 F25            2.2785     0.0487    -0.2788 F       
  26 H26            2.1272    -2.5537    -0.2724 H       
  27 H27           -2.2066    -0.2464     0.2952 H       
  28 H28           -2.1345     1.5845     0.2756 H       
  29 H29           -0.7518    -6.5654    -4.5561 H       
  30 H30           -0.5678    -2.9626    -2.2755 H       
  31 H31           -1.5278     3.8176    -2.2064 H       
  32 H32           -0.8536     5.3284    -1.5497 H       
  33 H33            0.1630     3.8710    -1.6528 H       
@<TRIPOS>BOND
   1    1    2 1
   2    1    8 2
   3    1    9 am
   4    2    3 ar
   5    2    7 ar
   6    3    4 ar
   7    3   25 1
   8    4    5 ar
   9    4   26 1
  10    5    6 ar
  11    5   10 1
  12    6    7 ar
  13    6   24 1
  14    7   27 1
  15    9   20 am
  16    9   28 1
  17   10   11 1
  18   11   12 ar
  19   11   16 ar
  20   12   13 ar
  21   12   19 1
  22   13   14 ar
  23   13   18 1
  24   14   15 ar
  25   14   29 1
  26   15   16 ar
  27   15   17 1
  28   16   30 1
  29   20   21 2
  30   20   22 2
  31   20   23 1
  32   23   31 1
  33   23   32 1
  34   23   33 1

#	End of record

