#	Name: ASD08170046
#	Creating user name:	WinNT
#	Creation time:	15. 06. 2019 21:17

#	Modifying user name:	WinNT
#	Modification time:	15. 06. 2019 21:17

#	Program:	/corina/corina34_cracker 3.40 0067  02.08.2006

@<TRIPOS>MOLECULE
ASD08170046
  64   69    0    0    0
SMALL
NO_CHARGES


@<TRIPOS>ATOM
   1 C1            -0.0187     1.5268     0.0104 C.3     
   2 C2             0.0021    -0.0041     0.0020 C.3     
   3 C3             0.7367    -0.5262     1.2013 C.2     
   4 C4             0.6343     0.1531     2.3883 C.2     
   5 C5            -0.0691     1.3583     2.4791 C.2     
   6 C6            -0.7471     1.9725     1.2829 C.3     
   7 C7             1.5346    -1.6872     1.1428 C.ar    
   8 C8             1.7698    -2.4098     2.3274 C.ar    
   9 N9             1.2869    -1.8837     3.5180 N.pl3   
  10 C10            1.2619    -0.4188     3.6387 C.3     
  11 C11            2.1873    -2.1630    -0.0815 C.ar    
  12 C12            2.8265    -3.4869    -0.0501 C.ar    
  13 C13            2.9269    -4.1775     1.1785 C.ar    
  14 C14            2.4354    -3.6346     2.3177 C.ar    
  15 C15            2.6683     0.1010     3.7900 C.ar    
  16 C16            2.9310     1.1331     4.6718 C.ar    
  17 C17            4.2196     1.6121     4.8129 C.ar    
  18 C18            5.2515     1.0547     4.0675 C.ar    
  19 C19            4.9835     0.0178     3.1832 C.ar    
  20 C20            3.6941    -0.4592     3.0508 C.ar    
  21 C21            1.4037     2.0832    -0.0002 C.3     
  22 C22           -0.7811     2.0341    -1.2170 C.3     
  23 O23           -0.1410     1.9280     3.5545 O.2     
  24 N24            6.5556     1.5366     4.2070 N.3     
  25 C25            7.4637     0.4745     4.6602 C.3     
  26 C26            7.0319     2.1371     2.9538 C.3     
  27 Br27           4.5781     3.0245     6.0181 Br      
  28 C28            3.3476    -4.0487    -1.2123 C.ar    
  29 C29            3.3200    -3.3214    -2.4028 C.ar    
  30 C30            3.8017    -3.8672    -3.6102 C.ar    
  31 C31            3.7881    -3.1121    -4.7386 C.ar    
  32 C32            2.2722    -1.4007    -1.2332 C.ar    
  33 C33            2.7978    -1.9531    -2.4040 C.ar    
  34 C34            2.8307    -1.2184    -3.6087 C.ar    
  35 C35            3.3137    -1.8010    -4.7357 C.ar    
  36 H36           -1.0451    -0.3495     0.0703 H       
  37 H37            0.3994    -0.3781    -0.9263 H       
  38 H38           -0.7095     3.0596     1.3615 H       
  39 H39           -1.7856     1.6444     1.2427 H       
  40 H40            0.9818    -2.4542     4.2356 H       
  41 H41            0.6717    -0.1385     4.5095 H       
  42 H42            3.4016    -5.1465     1.2081 H       
  43 H43            2.5680    -4.1657     3.2486 H       
  44 H44            2.1284     1.5656     5.2506 H       
  45 H45            5.7831    -0.4174     2.6021 H       
  46 H46            3.4854    -1.2657     2.3635 H       
  47 H47            1.9207     1.7418    -0.8970 H       
  48 H48            1.3678     3.1725     0.0060 H       
  49 H49            1.9377     1.7322     0.8829 H       
  50 H50           -1.8034     1.6568    -1.1913 H       
  51 H51           -0.7958     3.1240    -1.2109 H       
  52 H52           -0.2868     1.6825    -2.1227 H       
  53 H53            7.4667    -0.3363     3.9317 H       
  54 H54            8.4718     0.8766     4.7605 H       
  55 H55            7.1262     0.0950     5.6247 H       
  56 H56            6.3805     2.9664     2.6778 H       
  57 H57            8.0492     2.5040     3.0903 H       
  58 H58            7.0193     1.3866     2.1635 H       
  59 H59            3.7731    -5.0408    -1.1931 H       
  60 H60            4.1815    -4.8780    -3.6374 H       
  61 H61            4.1470    -3.5395    -5.6641 H       
  62 H62            1.9969    -0.3573    -1.2314 H       
  63 H63            2.4718    -0.2005    -3.6340 H       
  64 H64            3.3289    -1.2342    -5.6554 H       
@<TRIPOS>BOND
   1    1    2 1
   2    1   21 1
   3    1   22 1
   4    1    6 1
   5    2    3 1
   6    2   36 1
   7    2   37 1
   8    3    4 2
   9    3    7 1
  10    4    5 1
  11    4   10 1
  12    5    6 1
  13    5   23 2
  14    6   38 1
  15    6   39 1
  16    7    8 ar
  17    7   11 ar
  18    8    9 1
  19    8   14 ar
  20    9   10 1
  21    9   40 1
  22   10   15 1
  23   10   41 1
  24   11   12 ar
  25   11   32 ar
  26   12   13 ar
  27   12   28 ar
  28   13   14 ar
  29   13   42 1
  30   14   43 1
  31   15   16 ar
  32   15   20 ar
  33   16   17 ar
  34   16   44 1
  35   17   18 ar
  36   17   27 1
  37   18   19 ar
  38   18   24 1
  39   19   20 ar
  40   19   45 1
  41   20   46 1
  42   21   47 1
  43   21   48 1
  44   21   49 1
  45   22   50 1
  46   22   51 1
  47   22   52 1
  48   24   25 1
  49   24   26 1
  50   25   53 1
  51   25   54 1
  52   25   55 1
  53   26   56 1
  54   26   57 1
  55   26   58 1
  56   28   29 ar
  57   28   59 1
  58   29   30 ar
  59   29   33 ar
  60   30   31 ar
  61   30   60 1
  62   31   35 ar
  63   31   61 1
  64   32   33 ar
  65   32   62 1
  66   33   34 ar
  67   34   35 ar
  68   34   63 1
  69   35   64 1

#	End of record

