#	Name: ASD01814584
#	Creating user name:	WinNT
#	Creation time:	15. 06. 2019 19:32

#	Modifying user name:	WinNT
#	Modification time:	15. 06. 2019 19:32

#	Program:	/corina/corina34_cracker 3.40 0067  02.08.2006

@<TRIPOS>MOLECULE
ASD01814584
  55   58    0    0    0
SMALL
NO_CHARGES


@<TRIPOS>ATOM
   1 C1            -0.0169     1.3972     0.0097 C.2     
   2 C2             0.0021    -0.0041     0.0020 C.2     
   3 C3             1.1986    -0.6593    -0.0129 C.2     
   4 C4             2.3918     0.0821    -0.0204 C.2     
   5 N5             2.3437     1.4497    -0.0122 N.am    
   6 C6             1.1421     2.0937     0.0024 C.2     
   7 C7             3.6227    -0.5889    -0.0356 C.2     
   8 C8             4.7877     0.1218    -0.0425 C.2     
   9 C9             4.7345     1.5280    -0.0346 C.2     
  10 C10            3.4812     2.1736    -0.0189 C.2     
  11 O11            3.4258     3.3917    -0.0123 O.2     
  12 C12            5.9703     2.3140    -0.0413 C.2     
  13 O13            5.9124     3.6618    -0.0337 O.3     
  14 O14            7.0487     1.7516    -0.0537 O.2     
  15 C15            3.6593    -2.0954    -0.0439 C.3     
  16 N16            3.7787    -2.5747    -1.4274 N.3     
  17 C17            4.0544    -4.0144    -1.4628 C.3     
  18 C18            4.0758    -4.5125    -2.8841 C.ar    
  19 C19            3.5243    -3.7859    -3.9180 C.ar    
  20 C20            2.8734    -2.4467    -3.6846 C.3     
  21 C21            2.5627    -2.2697    -2.1980 C.3     
  22 C22            4.6697    -5.7383    -3.1453 C.ar    
  23 C23            4.7097    -6.2345    -4.4330 C.ar    
  24 C24            4.1542    -5.5069    -5.4686 C.ar    
  25 C25            3.5635    -4.2859    -5.2105 C.ar    
  26 C26            5.3923    -4.2806    -0.8223 C.2     
  27 O27            6.0450    -3.3635    -0.3833 O.2     
  28 O28            5.8588    -5.5365    -0.7395 O.3     
  29 C29            7.1545    -5.7182    -0.1100 C.3     
  30 C30            6.9655    -5.9369     1.3924 C.3     
  31 C31            7.8510    -6.9368    -0.7191 C.3     
  32 H32           -0.9605     1.9226     0.0170 H       
  33 H33           -0.9233    -0.5609     0.0082 H       
  34 H34            1.2282    -1.7389    -0.0187 H       
  35 H35            1.1156     3.1733     0.0087 H       
  36 H36            5.7393    -0.3889    -0.0536 H       
  37 H37            6.7544     4.1373    -0.0385 H       
  38 H38            4.5153    -2.4412     0.5356 H       
  39 H39            2.7412    -2.4836     0.3971 H       
  40 H40            3.2791    -4.5429    -0.9080 H       
  41 H41            3.5480    -1.6549    -4.0101 H       
  42 H42            1.9477    -2.3896    -4.2572 H       
  43 H43            1.7639    -2.9518    -1.9071 H       
  44 H44            2.2570    -1.2408    -2.0078 H       
  45 H45            5.1038    -6.3078    -2.3368 H       
  46 H46            5.1744    -7.1891    -4.6308 H       
  47 H47            4.1825    -5.8922    -6.4771 H       
  48 H48            3.1293    -3.7174    -6.0197 H       
  49 H49            7.7658    -4.8308    -0.2739 H       
  50 H50            7.9382    -6.0733     1.8650 H       
  51 H51            6.4693    -5.0688     1.8263 H       
  52 H52            6.3542    -6.8244     1.5563 H       
  53 H53            7.9857    -6.7810    -1.7894 H       
  54 H54            8.8237    -7.0732    -0.2465 H       
  55 H55            7.2398    -7.8243    -0.5552 H       
@<TRIPOS>BOND
   1    1    2 1
   2    1    6 2
   3    1   32 1
   4    2    3 2
   5    2   33 1
   6    3    4 1
   7    3   34 1
   8    4    5 1
   9    4    7 2
  10    5    6 1
  11    5   10 am
  12    6   35 1
  13    7    8 1
  14    7   15 1
  15    8    9 2
  16    8   36 1
  17    9   10 1
  18    9   12 1
  19   10   11 2
  20   12   13 1
  21   12   14 2
  22   13   37 1
  23   15   16 1
  24   15   38 1
  25   15   39 1
  26   16   17 1
  27   16   21 1
  28   17   18 1
  29   17   26 1
  30   17   40 1
  31   18   19 ar
  32   18   22 ar
  33   19   20 1
  34   19   25 ar
  35   20   21 1
  36   20   41 1
  37   20   42 1
  38   21   43 1
  39   21   44 1
  40   22   23 ar
  41   22   45 1
  42   23   24 ar
  43   23   46 1
  44   24   25 ar
  45   24   47 1
  46   25   48 1
  47   26   27 2
  48   26   28 1
  49   28   29 1
  50   29   30 1
  51   29   31 1
  52   29   49 1
  53   30   50 1
  54   30   51 1
  55   30   52 1
  56   31   53 1
  57   31   54 1
  58   31   55 1

#	End of record

