#	Name: ASD06660224
#	Creating user name:	WinNT
#	Creation time:	15. 06. 2019 21:08

#	Modifying user name:	WinNT
#	Modification time:	15. 06. 2019 21:08

#	Program:	/corina/corina34_cracker 3.40 0067  02.08.2006

@<TRIPOS>MOLECULE
ASD06660224
  69   72    0    0    0
SMALL
NO_CHARGES


@<TRIPOS>ATOM
   1 C1            -2.0468     1.5791    -1.1714 C.2     
   2 C2            -2.0842     0.0964    -0.9045 C.3     
   3 C3            -0.7241    -0.5171    -1.2431 C.3     
   4 O4            -2.2522     2.3601    -0.2726 O.2     
   5 O5            -1.7800     2.0322    -2.4064 O.3     
   6 N6            -0.4917    -4.7084    -1.9401 N.am    
   7 C7            -1.8469    -4.1427    -1.8922 C.3     
   8 C8            -1.7560    -2.6271    -2.0954 C.3     
   9 C9            -0.7910    -2.0353    -1.0655 C.3     
  10 C10            0.6029    -2.6341    -1.2668 C.3     
  11 C11            0.5387    -4.1499    -1.0542 C.3     
  12 C12           -0.2009    -5.7242    -2.7769 C.2     
  13 O13           -1.0616    -6.1799    -3.4996 O.2     
  14 C14            1.1939    -6.2937    -2.8144 C.3     
  15 N15            0.4094    -8.4182    -3.7324 N.ar    
  16 C16            1.2537    -7.4100    -3.8250 C.ar    
  17 C17            2.1918    -7.3643    -4.8370 C.ar    
  18 C18            2.2385    -8.3948    -5.7650 C.ar    
  19 C19            1.3376    -9.4405    -5.6424 C.ar    
  20 C20            1.3747   -10.5613    -6.6455 C.3     
  21 C21            0.6929   -11.8072    -6.0792 C.3     
  22 C22           -0.6890   -11.4131    -5.5415 C.3     
  23 N23           -0.4899   -10.4642    -4.4382 N.pl3   
  24 C24            0.4234    -9.4240    -4.5982 C.ar    
  25 N25           -2.3871    -0.1377     0.5096 N.am    
  26 C26           -3.6675    -0.1607     0.9296 C.2     
  27 C27           -3.9730    -0.3968     2.3555 C.ar    
  28 C28           -4.1644    -1.6981     2.8250 C.ar    
  29 C29           -4.4492    -1.9127     4.1565 C.ar    
  30 C30           -4.5462    -0.8395     5.0290 C.ar    
  31 C31           -4.3575     0.4545     4.5681 C.ar    
  32 C32           -4.0657     0.6799     3.2399 C.ar    
  33 O33           -4.5711     0.0129     0.1351 O.2     
  34 C34           -3.8542     2.0864     2.7417 C.3     
  35 C35           -4.0602    -2.8654     1.8776 C.3     
  36 F36           -4.8261    -1.0554     6.3330 F       
  37 H37           -2.8547    -0.3647    -1.5223 H       
  38 H38           -0.4670    -0.2832    -2.2762 H       
  39 H39            0.0355    -0.1066    -0.5778 H       
  40 H40           -1.7670     2.9914    -2.5289 H       
  41 H41           -2.4543    -4.5818    -2.6837 H       
  42 H42           -2.2974    -4.3550    -0.9226 H       
  43 H43           -1.3899    -2.4161    -3.1002 H       
  44 H44           -2.7430    -2.1829    -1.9666 H       
  45 H45           -1.1444    -2.2682    -0.0610 H       
  46 H46            0.9467    -2.4230    -2.2794 H       
  47 H47            1.2948    -2.1949    -0.5482 H       
  48 H48            0.2828    -4.3627    -0.0163 H       
  49 H49            1.5053    -4.5936    -1.2927 H       
  50 H50            1.8985    -5.5109    -3.0955 H       
  51 H51            1.4549    -6.6808    -1.8295 H       
  52 H52            2.8812    -6.5358    -4.9058 H       
  53 H53            2.9620    -8.3820    -6.5668 H       
  54 H54            0.8589   -10.2495    -7.5537 H       
  55 H55            2.4117   -10.7958    -6.8858 H       
  56 H56            0.5796   -12.5517    -6.8672 H       
  57 H57            1.2963   -12.2179    -5.2697 H       
  58 H58           -1.2719   -10.9417    -6.3328 H       
  59 H59           -1.2092   -12.2988    -5.1769 H       
  60 H60           -0.9866   -10.5603    -3.6106 H       
  61 H61           -1.6661    -0.2762     1.1435 H       
  62 H62           -4.5974    -2.9186     4.5206 H       
  63 H63           -4.4349     1.2869     5.2518 H       
  64 H64           -4.8076     2.5049     2.4195 H       
  65 H65           -3.4415     2.6979     3.5441 H       
  66 H66           -3.1604     2.0736     1.9011 H       
  67 H67           -3.0304    -3.2215     1.8517 H       
  68 H68           -4.7140    -3.6686     2.2174 H       
  69 H69           -4.3609    -2.5503     0.8784 H       
@<TRIPOS>BOND
   1    1    2 1
   2    1    4 2
   3    1    5 1
   4    2    3 1
   5    2   25 1
   6    2   37 1
   7    3    9 1
   8    3   38 1
   9    3   39 1
  10    5   40 1
  11    6    7 1
  12    6   11 1
  13    6   12 am
  14    7    8 1
  15    7   41 1
  16    7   42 1
  17    8    9 1
  18    8   43 1
  19    8   44 1
  20    9   10 1
  21    9   45 1
  22   10   11 1
  23   10   46 1
  24   10   47 1
  25   11   48 1
  26   11   49 1
  27   12   13 2
  28   12   14 1
  29   14   16 1
  30   14   50 1
  31   14   51 1
  32   15   16 ar
  33   15   24 ar
  34   16   17 ar
  35   17   18 ar
  36   17   52 1
  37   18   19 ar
  38   18   53 1
  39   19   20 1
  40   19   24 ar
  41   20   21 1
  42   20   54 1
  43   20   55 1
  44   21   22 1
  45   21   56 1
  46   21   57 1
  47   22   23 1
  48   22   58 1
  49   22   59 1
  50   23   24 1
  51   23   60 1
  52   25   26 am
  53   25   61 1
  54   26   27 1
  55   26   33 2
  56   27   28 ar
  57   27   32 ar
  58   28   29 ar
  59   28   35 1
  60   29   30 ar
  61   29   62 1
  62   30   31 ar
  63   30   36 1
  64   31   32 ar
  65   31   63 1
  66   32   34 1
  67   34   64 1
  68   34   65 1
  69   34   66 1
  70   35   67 1
  71   35   68 1
  72   35   69 1

#	End of record

