#	Name: ASD04591058
#	Creating user name:	WinNT
#	Creation time:	15. 06. 2019 20:52

#	Modifying user name:	WinNT
#	Modification time:	15. 06. 2019 20:52

#	Program:	/corina/corina34_cracker 3.40 0067  02.08.2006

@<TRIPOS>MOLECULE
ASD04591058
  53   58    0    0    0
SMALL
NO_CHARGES


@<TRIPOS>ATOM
   1 N1            -0.0171     1.3232    -0.0119 N.ar    
   2 C2             0.0017    -0.0035    -0.0051 C.ar    
   3 N3             1.1298    -0.6949    -0.0118 N.ar    
   4 C4             2.3050    -0.0728    -0.0262 C.ar    
   5 C5             2.3189     1.3366    -0.0341 C.ar    
   6 C6             1.1072     2.0202    -0.0262 C.ar    
   7 N7             3.6031    -0.5195    -0.0358 N.pl3   
   8 C8             4.4823     0.5495    -0.0499 C.ar    
   9 C9             3.7312     1.7385    -0.0495 C.ar    
  10 C10            5.8680     0.6418    -0.0633 C.ar    
  11 N11            6.4613     1.8181    -0.0753 N.ar    
  12 C12            5.7850     2.9533    -0.0753 C.ar    
  13 C13            4.4063     2.9585    -0.0629 C.ar    
  14 N14           -1.2019    -0.6887     0.0098 N.pl3   
  15 C15           -2.4019     0.0120     0.1303 C.ar    
  16 N16           -2.3783     1.3196     0.3309 N.ar    
  17 C17           -3.4885     2.0229     0.4509 C.ar    
  18 C18           -4.7291     1.4087     0.3703 C.ar    
  19 C19           -4.7935     0.0321     0.1596 C.ar    
  20 C20           -3.6094    -0.6709     0.0326 C.ar    
  21 N21           -5.9023     2.1615     0.4995 N.3     
  22 C22            4.0018    -1.9292    -0.0312 C.3     
  23 C23           -6.6983     1.7073     1.6596 C.3     
  24 C24            3.5025    -2.7066     1.1981 C.3     
  25 C25            3.2168    -3.8779     0.2434 C.3     
  26 C26            3.0860    -2.8311    -0.8756 C.3     
  27 C27           -6.7353     2.0538    -0.7124 C.3     
  28 C28           -8.1185     1.5305    -0.2714 C.3     
  29 C29           -8.1731     1.9108     1.2317 C.3     
  30 O30           -9.0407     1.0320     1.9508 O.3     
  31 H31            1.0848     3.1000    -0.0316 H       
  32 H32            6.4645    -0.2585    -0.0635 H       
  33 H33            6.3203     3.8912    -0.0851 H       
  34 H34            3.8596     3.8899    -0.0633 H       
  35 H35           -1.2103    -1.6559    -0.0635 H       
  36 H36           -3.4301     3.0889     0.6140 H       
  37 H37           -5.7459    -0.4729     0.0926 H       
  38 H38           -3.6221    -1.7382    -0.1317 H       
  39 H39            5.0633    -2.0695    -0.2350 H       
  40 H40           -6.5043     0.6543     1.8641 H       
  41 H41           -6.4706     2.3132     2.5366 H       
  42 H42            4.2841    -2.9187     1.9276 H       
  43 H43            2.6055    -2.2818     1.6486 H       
  44 H44            4.0634    -4.5521     0.1138 H       
  45 H45            2.2864    -4.4021     0.4617 H       
  46 H46            2.0752    -2.4403    -0.9919 H       
  47 H47            3.5314    -3.1436    -1.8201 H       
  48 H48           -6.8407     3.0337    -1.1781 H       
  49 H49           -6.2806     1.3544    -1.4139 H       
  50 H50           -8.9138     2.0302    -0.8245 H       
  51 H51           -8.1799     0.4497    -0.3980 H       
  52 H52           -8.4774     2.9494     1.3609 H       
  53 H53           -9.9596     1.0539     1.6505 H       
@<TRIPOS>BOND
   1    1    2 ar
   2    1    6 ar
   3    2    3 ar
   4    2   14 1
   5    3    4 ar
   6    4    5 ar
   7    4    7 1
   8    5    6 ar
   9    5    9 1
  10    6   31 1
  11    7    8 1
  12    7   22 1
  13    8    9 ar
  14    8   10 ar
  15    9   13 ar
  16   10   11 ar
  17   10   32 1
  18   11   12 ar
  19   12   13 ar
  20   12   33 1
  21   13   34 1
  22   14   15 1
  23   14   35 1
  24   15   16 ar
  25   15   20 ar
  26   16   17 ar
  27   17   18 ar
  28   17   36 1
  29   18   19 ar
  30   18   21 1
  31   19   20 ar
  32   19   37 1
  33   20   38 1
  34   21   27 1
  35   21   23 1
  36   22   24 1
  37   22   26 1
  38   22   39 1
  39   23   29 1
  40   23   40 1
  41   23   41 1
  42   24   25 1
  43   24   42 1
  44   24   43 1
  45   25   26 1
  46   25   44 1
  47   25   45 1
  48   26   46 1
  49   26   47 1
  50   27   28 1
  51   27   48 1
  52   27   49 1
  53   28   29 1
  54   28   50 1
  55   28   51 1
  56   29   30 1
  57   29   52 1
  58   30   53 1

#	End of record

