#	Name: ASD00990121
#	Creating user name:	WinNT
#	Creation time:	15. 06. 2019 18:54

#	Modifying user name:	WinNT
#	Modification time:	15. 06. 2019 18:54

#	Program:	/corina/corina34_cracker 3.40 0067  02.08.2006

@<TRIPOS>MOLECULE
ASD00990121
  47   49    0    0    0
SMALL
NO_CHARGES


@<TRIPOS>ATOM
   1 C1            -0.0187     1.5298     0.0105 C.3     
   2 C2             0.0021    -0.0041     0.0020 C.3     
   3 C3             0.9681    -0.4756     1.0532 C.2     
   4 C4             1.8965     0.2605     1.6640 C.2     
   5 C5             2.0867     1.7379     1.3445 C.3     
   6 C6             1.4248     2.0421    -0.0006 C.3     
   7 N7             2.6521    -0.4167     2.5896 N.am    
   8 C8             3.7113     0.2631     3.3394 C.3     
   9 C9             3.1386     0.8368     4.6098 C.2     
  10 N10            3.9344     1.5107     5.4637 N.am    
  11 C11            3.3776     2.0684     6.6987 C.3     
  12 O12            1.9616     0.6921     4.8639 O.2     
  13 C13            5.3562     1.6854     5.1568 C.3     
  14 C14            3.4826     1.0479     7.8026 C.2     
  15 N15            4.4963     0.9799     8.7073 N.pl3   
  16 C16            4.2269    -0.0838     9.5469 C.ar    
  17 C17            3.0156    -0.6348     9.0972 C.ar    
  18 N18            2.6140     0.1071     8.0330 N.2     
  19 C19            4.8783    -0.6390    10.6398 C.ar    
  20 C20            4.3334    -1.7312    11.2816 C.ar    
  21 C21            3.1344    -2.2812    10.8404 C.ar    
  22 C22            2.4754    -1.7422     9.7575 C.ar    
  23 S23            1.0989    -2.1048     1.7210 S.3     
  24 C24            2.3941    -1.7156     2.7872 C.2     
  25 O25            2.9594    -2.4673     3.5615 O.2     
  26 F26            2.6124    -3.3516    11.4785 F       
  27 Cl27           5.1492    -2.4244    12.6482 Cl      
  28 H28           -0.5422     1.8931    -0.8739 H       
  29 H29           -0.5252     1.8835     0.9085 H       
  30 H30           -0.9949    -0.3849     0.2239 H       
  31 H31            0.3234    -0.3604    -0.9767 H       
  32 H32            1.6243     2.3426     2.1247 H       
  33 H33            3.1512     1.9649     1.2868 H       
  34 H34            1.9797     1.5482    -0.7982 H       
  35 H35            1.4262     3.1188    -0.1706 H       
  36 H36            4.4978    -0.4505     3.5852 H       
  37 H37            4.1272     1.0675     2.7327 H       
  38 H38            3.9346     2.9631     6.9767 H       
  39 H39            2.3305     2.3266     6.5409 H       
  40 H40            5.4949     2.6052     4.5885 H       
  41 H41            5.9239     1.7431     6.0855 H       
  42 H42            5.7077     0.8381     4.5681 H       
  43 H43            5.2657     1.5688     8.7540 H       
  44 H44            5.8099    -0.2167    10.9865 H       
  45 H45            1.5445    -2.1733     9.4200 H       
  46 Cl46          10.9239     8.1188    17.6482 Cl      
  47 H47           10.9239     9.4888    17.6482 H       
@<TRIPOS>BOND
   1    1    2 1
   2    1    6 1
   3    1   28 1
   4    1   29 1
   5    2    3 1
   6    2   30 1
   7    2   31 1
   8    3    4 2
   9    3   23 1
  10    4    5 1
  11    4    7 1
  12    5    6 1
  13    5   32 1
  14    5   33 1
  15    6   34 1
  16    6   35 1
  17    7    8 1
  18    7   24 am
  19    8    9 1
  20    8   36 1
  21    8   37 1
  22    9   10 am
  23    9   12 2
  24   10   11 1
  25   10   13 1
  26   11   14 1
  27   11   38 1
  28   11   39 1
  29   13   40 1
  30   13   41 1
  31   13   42 1
  32   14   15 1
  33   14   18 2
  34   15   16 1
  35   15   43 1
  36   16   17 ar
  37   16   19 ar
  38   17   18 1
  39   17   22 ar
  40   19   20 ar
  41   19   44 1
  42   20   21 ar
  43   20   27 1
  44   21   22 ar
  45   21   26 1
  46   22   45 1
  47   23   24 1
  48   24   25 2
  49   46   47 1

#	End of record

