#	Name: ASD02300002
#	Creating user name:	WinNT
#	Creation time:	15. 06. 2019 20:20

#	Modifying user name:	WinNT
#	Modification time:	15. 06. 2019 20:20

#	Program:	/corina/corina34_cracker 3.40 0067  02.08.2006

@<TRIPOS>MOLECULE
ASD02300002
  52   55    0    0    0
SMALL
NO_CHARGES


@<TRIPOS>ATOM
   1 C1            -1.3253     1.4876    -3.1590 C.ar    
   2 C2            -0.9656     1.1588    -1.8650 C.ar    
   3 C3            -1.8275     0.4266    -1.0720 C.ar    
   4 C4            -3.0562     0.0211    -1.5752 C.ar    
   5 C5            -3.4148     0.3532    -2.8746 C.ar    
   6 C6            -2.5507     1.0897    -3.6612 C.ar    
   7 C7            -0.3827     2.2866    -4.0216 C.3     
   8 N8            -3.9329    -0.7225    -0.7729 N.am    
   9 C9            -4.8229    -0.0694     0.0042 C.2     
  10 C10           -5.7552    -0.9072     0.8586 C.3     
  11 C11           -5.5915    -2.4116     0.7524 C.2     
  12 N12           -4.6404    -2.8783    -0.0842 N.am    
  13 C13           -3.8663    -2.0584    -0.8043 C.2     
  14 O14           -3.0351    -2.5637    -1.5321 O.2     
  15 C15           -4.4620    -4.2634    -0.2060 C.ar    
  16 C16           -3.6377    -4.9394     0.6832 C.ar    
  17 C17           -3.4639    -6.3042     0.5606 C.ar    
  18 C18           -4.1099    -6.9971    -0.4466 C.ar    
  19 C19           -4.9312    -6.3265    -1.3341 C.ar    
  20 C20           -5.1138    -4.9627    -1.2127 C.ar    
  21 C21           -3.9181    -8.4861    -0.5776 C.3     
  22 O22           -4.8748     1.1417     0.0189 O.2     
  23 O23           -6.2888    -3.1668     1.3954 O.2     
  24 C24           -5.5484    -0.5079     2.3211 C.3     
  25 C25           -6.5465    -1.2338     3.1859 C.ar    
  26 C26           -6.2294    -2.4690     3.7194 C.ar    
  27 C27           -7.1449    -3.1349     4.5127 C.ar    
  28 C28           -8.3773    -2.5654     4.7729 C.ar    
  29 C29           -8.6940    -1.3297     4.2402 C.ar    
  30 C30           -7.7769    -0.6619     3.4504 C.ar    
  31 H31           -0.0096     1.4745    -1.4740 H       
  32 H32           -1.5457     0.1695    -0.0616 H       
  33 H33           -4.3700     0.0392    -3.2687 H       
  34 H34           -2.8291     1.3483    -4.6721 H       
  35 H35            0.2715     1.6085    -4.5695 H       
  36 H36           -0.9566     2.8871    -4.7273 H       
  37 H37            0.2189     2.9421    -3.3918 H       
  38 H38           -6.7808    -0.6576     0.5865 H       
  39 H39           -3.1326    -4.3987     1.4699 H       
  40 H40           -2.8224    -6.8305     1.2519 H       
  41 H41           -5.4343    -6.8703    -2.1200 H       
  42 H42           -5.7557    -4.4395    -1.9060 H       
  43 H43           -4.6737    -9.0032     0.0139 H       
  44 H44           -4.0160    -8.7744    -1.6242 H       
  45 H45           -2.9259    -8.7578    -0.2172 H       
  46 H46           -4.5378    -0.7739     2.6309 H       
  47 H47           -5.6899     0.5676     2.4275 H       
  48 H48           -5.2666    -2.9140     3.5161 H       
  49 H49           -6.8975    -4.1003     4.9289 H       
  50 H50           -9.0929    -3.0859     5.3921 H       
  51 H51           -9.6570    -0.8849     4.4432 H       
  52 H52           -8.0243     0.3035     3.0342 H       
@<TRIPOS>BOND
   1    1    2 ar
   2    1    7 1
   3    1    6 ar
   4    2    3 ar
   5    2   31 1
   6    3    4 ar
   7    3   32 1
   8    4    5 ar
   9    4    8 1
  10    5    6 ar
  11    5   33 1
  12    6   34 1
  13    7   35 1
  14    7   36 1
  15    7   37 1
  16    8    9 am
  17    8   13 am
  18    9   10 1
  19    9   22 2
  20   10   11 1
  21   10   24 1
  22   10   38 1
  23   11   12 am
  24   11   23 2
  25   12   13 am
  26   12   15 1
  27   13   14 2
  28   15   16 ar
  29   15   20 ar
  30   16   17 ar
  31   16   39 1
  32   17   18 ar
  33   17   40 1
  34   18   19 ar
  35   18   21 1
  36   19   20 ar
  37   19   41 1
  38   20   42 1
  39   21   43 1
  40   21   44 1
  41   21   45 1
  42   24   25 1
  43   24   46 1
  44   24   47 1
  45   25   26 ar
  46   25   30 ar
  47   26   27 ar
  48   26   48 1
  49   27   28 ar
  50   27   49 1
  51   28   29 ar
  52   28   50 1
  53   29   30 ar
  54   29   51 1
  55   30   52 1

#	End of record

