#	Name: ASD07300841
#	Creating user name:	WinNT
#	Creation time:	15. 06. 2019 21:10

#	Modifying user name:	WinNT
#	Modification time:	15. 06. 2019 21:10

#	Program:	/corina/corina34_cracker 3.40 0067  02.08.2006

@<TRIPOS>MOLECULE
ASD07300841
  49   53    0    0    0
SMALL
NO_CHARGES


@<TRIPOS>ATOM
   1 N1             0.0804     1.3492     0.0298 N.am    
   2 C2             0.0483    -0.0035    -0.0713 C.2     
   3 N3             1.1192    -0.7314    -0.1949 N.2     
   4 C4             2.3458    -0.1872    -0.2317 C.2     
   5 C5             2.4793     1.2068    -0.1342 C.2     
   6 C6             1.2629     2.0076     0.0045 C.2     
   7 N7             3.6021    -0.6898    -0.3499 N.pl3   
   8 N8             4.5075     0.3785    -0.3264 N.2     
   9 C9             3.8541     1.5004    -0.1995 C.2     
  10 O10            1.3123     3.2217     0.0933 O.2     
  11 C11            3.9505    -2.1069    -0.4793 C.3     
  12 C12            4.5749    -2.3551    -1.8539 C.3     
  13 C13            4.9388    -3.8350    -1.9890 C.3     
  14 C14            5.9410    -4.2156    -0.8974 C.3     
  15 C15            5.3166    -3.9674     0.4771 C.3     
  16 C16            4.9527    -2.4874     0.6123 C.3     
  17 C17           -1.2904    -0.6948    -0.0386 C.3     
  18 C18           -1.2902    -2.0706    -0.7255 C.3     
  19 C19           -2.1888    -2.5571     0.4237 C.3     
  20 C20           -1.5670    -1.4397     1.2780 C.3     
  21 C21           -0.3173    -1.8616     2.0069 C.ar    
  22 C22            0.3003    -3.0513     1.6714 C.ar    
  23 C23            1.4497    -3.4304     2.3482 C.ar    
  24 C24            1.9366    -2.5946     3.3413 C.ar    
  25 C25            1.2648    -1.4196     3.6219 C.ar    
  26 N26            0.1772    -1.0885     2.9540 N.ar    
  27 F27            6.2737    -5.5688    -1.0210 F       
  28 F28            7.0956    -3.4373    -1.0326 F       
  29 H29           -0.7476     1.8469     0.1166 H       
  30 H30            4.2931     2.4861    -0.1526 H       
  31 H31            3.0509    -2.7133    -0.3740 H       
  32 H32            3.8609    -2.0840    -2.6316 H       
  33 H33            5.4745    -1.7487    -1.9592 H       
  34 H34            4.0392    -4.4415    -1.8838 H       
  35 H35            5.3836    -4.0119    -2.9683 H       
  36 H36            4.4170    -4.5738     0.5824 H       
  37 H37            6.0306    -4.2385     1.2548 H       
  38 H38            5.8523    -1.8810     0.5070 H       
  39 H39            4.5079    -2.3106     1.5916 H       
  40 H40           -2.1085    -0.0483    -0.3562 H       
  41 H41           -1.7841    -2.0736    -1.6972 H       
  42 H42           -0.3106    -2.5483    -0.7461 H       
  43 H43           -3.2533    -2.4203     0.2336 H       
  44 H44           -1.9457    -3.5605     0.7733 H       
  45 H45           -2.2844    -0.9334     1.9238 H       
  46 H46           -0.1072    -3.6782     0.8921 H       
  47 H47            1.9535    -4.3549     2.1075 H       
  48 H48            2.8292    -2.8584     3.8891 H       
  49 H49            1.6374    -0.7632     4.3944 H       
@<TRIPOS>BOND
   1    1    2 1
   2    1    6 am
   3    1   29 1
   4    2    3 2
   5    2   17 1
   6    3    4 1
   7    4    5 2
   8    4    7 1
   9    5    6 1
  10    5    9 1
  11    6   10 2
  12    7    8 1
  13    7   11 1
  14    8    9 2
  15    9   30 1
  16   11   12 1
  17   11   16 1
  18   11   31 1
  19   12   13 1
  20   12   32 1
  21   12   33 1
  22   13   14 1
  23   13   34 1
  24   13   35 1
  25   14   15 1
  26   14   27 1
  27   14   28 1
  28   15   16 1
  29   15   36 1
  30   15   37 1
  31   16   38 1
  32   16   39 1
  33   17   18 1
  34   17   20 1
  35   17   40 1
  36   18   19 1
  37   18   41 1
  38   18   42 1
  39   19   20 1
  40   19   43 1
  41   19   44 1
  42   20   21 1
  43   20   45 1
  44   21   22 ar
  45   21   26 ar
  46   22   23 ar
  47   22   46 1
  48   23   24 ar
  49   23   47 1
  50   24   25 ar
  51   24   48 1
  52   25   26 ar
  53   25   49 1

#	End of record

