#	Name: ASD01420065
#	Creating user name:	WinNT
#	Creation time:	15. 06. 2019 19:20

#	Modifying user name:	WinNT
#	Modification time:	15. 06. 2019 19:20

#	Program:	/corina/corina34_cracker 3.40 0067  02.08.2006

@<TRIPOS>MOLECULE
ASD01420065
 110  113    0    0    0
SMALL
NO_CHARGES


@<TRIPOS>ATOM
   1 C1            -1.9784     3.3180    -1.5814 C.ar    
   2 C2            -1.7001     1.9898    -1.8445 C.ar    
   3 C3            -0.4887     1.6360    -2.4086 C.ar    
   4 C4             0.4443     2.6105    -2.7100 C.ar    
   5 C5             0.1656     3.9389    -2.4477 C.ar    
   6 C6            -1.0453     4.2925    -1.8823 C.ar    
   7 C7            -3.3015     3.7043    -0.9722 C.3     
   8 C8            -3.1836     3.6922     0.5532 C.3     
   9 C9            -4.4661     4.1955     1.1640 C.2     
  10 O10           -5.2743     3.4170     1.6239 O.2     
  11 N11           -4.7069     5.5425     1.1934 N.am    
  12 N12           -2.9514     2.3181     1.0194 N.am    
  13 C13           -3.9551     1.4217     0.9436 C.2     
  14 C14           -5.9796     5.9129     1.8670 C.3     
  15 O15           -4.9970     1.7292     0.4043 O.2     
  16 C16           -3.7926     0.0406     1.5229 C.3     
  17 N17           -4.9690    -0.2495     2.3727 N.am    
  18 C18           -5.8739     7.3326     2.4276 C.3     
  19 C19           -6.2121     4.9369     2.9920 C.2     
  20 O20           -5.3009     4.2545     3.4103 O.2     
  21 N21           -7.4581     4.8298     3.5332 N.am    
  22 C22           -3.7080    -0.9862     0.3918 C.3     
  23 C23           -3.4414    -2.3729     0.9807 C.3     
  24 C24           -3.5033    -3.4204    -0.1327 C.3     
  25 C25           -2.0539    -2.3951     1.6253 C.3     
  26 C26           -5.0850     0.5044     3.5034 C.2     
  27 C27           -6.2699     0.2882     4.4074 C.3     
  28 O28           -4.2460     1.3363     3.7769 O.2     
  29 N29           -6.6500     1.5926     5.0072 N.am    
  30 C30           -7.1799     2.4892     4.1154 C.2     
  31 C31           -7.6048     3.8422     4.6244 C.3     
  32 C32           -6.7197     4.2471     5.8049 C.3     
  33 C33           -7.2310     5.5613     6.3985 C.3     
  34 C34           -6.3459     5.9662     7.5790 C.3     
  35 O35           -7.3034     2.2001     2.9441 O.2     
  36 C36           -7.4423    -0.2649     3.5948 C.3     
  37 C37           -7.2574    -1.7701     3.3923 C.3     
  38 C38           -8.7500    -0.0082     4.3464 C.3     
  39 C39           -5.7286     8.3118     1.2913 C.ar    
  40 C40           -6.8526     8.8718     0.7135 C.ar    
  41 C41           -6.7192     9.7700    -0.3288 C.ar    
  42 C42           -5.4619    10.1085    -0.7930 C.ar    
  43 C43           -4.3379     9.5491    -0.2146 C.ar    
  44 C44           -4.4711     8.6542     0.8306 C.ar    
  45 C45           -6.8572     7.2803     8.1727 C.3     
  46 C46           -5.9854     7.6791     9.3354 C.ar    
  47 C47           -4.0747     8.8403    10.1920 C.ar    
  48 C48           -4.3863     8.4113    11.4686 C.ar    
  49 C49           -5.4937     7.6108    11.6777 C.ar    
  50 C50           -6.2934     7.2450    10.6111 C.ar    
  51 C51           -4.8744     8.4745     9.1254 C.ar    
  52 C52           -3.5145     8.8101    12.6313 C.3     
  53 O53           -3.9994    10.0576    13.1943 O.3     
  54 C54           -3.3274    10.5539    14.2460 C.2     
  55 O55           -2.3628     9.9631    14.6827 O.2     
  56 Cl56          -3.8399    12.0412    14.9801 Cl      
  57 H57           -2.4290     1.2284    -1.6090 H       
  58 H58           -0.2710     0.5982    -2.6135 H       
  59 H59            1.3910     2.3341    -3.1500 H       
  60 H60            0.8948     4.7002    -2.6825 H       
  61 H61           -1.2627     5.3302    -1.6766 H       
  62 H62           -3.5778     4.7040    -1.3073 H       
  63 H63           -4.0663     2.9926    -1.2831 H       
  64 H64           -2.3560     4.3310     0.8615 H       
  65 H65           -4.1018     6.1965     0.8098 H       
  66 H66           -2.0874     2.0596     1.3765 H       
  67 H67           -6.8029     5.8584     1.1548 H       
  68 H68           -2.8853    -0.0005     2.1255 H       
  69 H69           -5.6170    -0.9327     2.1400 H       
  70 H70           -6.7740     7.5667     2.9960 H       
  71 H71           -5.0037     7.4017     3.0803 H       
  72 H72           -8.2027     5.3682     3.2223 H       
  73 H73           -4.6493    -0.9997    -0.1578 H       
  74 H74           -2.8965    -0.7163    -0.2840 H       
  75 H75           -4.1958    -2.5988     1.7344 H       
  76 H76           -2.8095    -3.1470    -0.9277 H       
  77 H77           -3.2285    -4.3953     0.2699 H       
  78 H78           -4.5159    -3.4651    -0.5336 H       
  79 H79           -2.0099    -1.6488     2.4185 H       
  80 H80           -1.8640    -3.3830     2.0448 H       
  81 H81           -1.2996    -2.1692     0.8716 H       
  82 H82           -6.0044    -0.4145     5.1973 H       
  83 H83           -6.5337     1.7929     5.9491 H       
  84 H84           -8.6464     3.8020     4.9432 H       
  85 H85           -6.7509     3.4679     6.5665 H       
  86 H86           -5.6936     4.3785     5.4614 H       
  87 H87           -7.1998     6.3404     5.6370 H       
  88 H88           -8.2571     5.4299     6.7421 H       
  89 H89           -6.3771     5.1870     8.3406 H       
  90 H90           -5.3198     6.0975     7.2355 H       
  91 H91           -7.4776     0.2305     2.6245 H       
  92 H92           -7.4815    -2.2921     4.3226 H       
  93 H93           -7.9319    -2.1170     2.6095 H       
  94 H94           -6.2270    -1.9737     3.1007 H       
  95 H95           -8.8506     1.0585     4.5465 H       
  96 H96           -9.5902    -0.3449     3.7391 H       
  97 H97           -8.7407    -0.5554     5.2890 H       
  98 H98           -7.8349     8.6074     1.0761 H       
  99 H99           -7.5974    10.2070    -0.7807 H       
 100 H100          -5.3578    10.8096    -1.6078 H       
 101 H101          -3.3556     9.8133    -0.5774 H       
 102 H102          -3.5929     8.2172     1.2825 H       
 103 H103          -6.8259     8.0595     7.4111 H       
 104 H104          -7.8833     7.1489     8.5162 H       
 105 H105          -3.2095     9.4657    10.0286 H       
 106 H106          -5.7371     7.2755    12.6750 H       
 107 H107          -7.1591     6.6202    10.7746 H       
 108 H108          -4.6310     8.8097     8.1280 H       
 109 H109          -3.5460     8.0311    13.3931 H       
 110 H110          -2.4883     8.9411    12.2879 H       
@<TRIPOS>BOND
   1    1    2 ar
   2    1    6 ar
   3    1    7 1
   4    2    3 ar
   5    2   57 1
   6    3    4 ar
   7    3   58 1
   8    4    5 ar
   9    4   59 1
  10    5    6 ar
  11    5   60 1
  12    6   61 1
  13    7    8 1
  14    7   62 1
  15    7   63 1
  16    8    9 1
  17    8   12 1
  18    8   64 1
  19    9   10 2
  20    9   11 am
  21   11   14 1
  22   11   65 1
  23   12   13 am
  24   12   66 1
  25   13   15 2
  26   13   16 1
  27   14   18 1
  28   14   19 1
  29   14   67 1
  30   16   17 1
  31   16   22 1
  32   16   68 1
  33   17   26 am
  34   17   69 1
  35   18   39 1
  36   18   70 1
  37   18   71 1
  38   19   20 2
  39   19   21 am
  40   21   31 1
  41   21   72 1
  42   22   23 1
  43   22   73 1
  44   22   74 1
  45   23   24 1
  46   23   25 1
  47   23   75 1
  48   24   76 1
  49   24   77 1
  50   24   78 1
  51   25   79 1
  52   25   80 1
  53   25   81 1
  54   26   27 1
  55   26   28 2
  56   27   29 1
  57   27   36 1
  58   27   82 1
  59   29   30 am
  60   29   83 1
  61   30   31 1
  62   30   35 2
  63   31   32 1
  64   31   84 1
  65   32   33 1
  66   32   85 1
  67   32   86 1
  68   33   34 1
  69   33   87 1
  70   33   88 1
  71   34   45 1
  72   34   89 1
  73   34   90 1
  74   36   37 1
  75   36   38 1
  76   36   91 1
  77   37   92 1
  78   37   93 1
  79   37   94 1
  80   38   95 1
  81   38   96 1
  82   38   97 1
  83   39   40 ar
  84   39   44 ar
  85   40   41 ar
  86   40   98 1
  87   41   42 ar
  88   41   99 1
  89   42   43 ar
  90   42  100 1
  91   43   44 ar
  92   43  101 1
  93   44  102 1
  94   45   46 1
  95   45  103 1
  96   45  104 1
  97   46   51 ar
  98   46   50 ar
  99   47   48 ar
 100   47   51 ar
 101   47  105 1
 102   48   49 ar
 103   48   52 1
 104   49   50 ar
 105   49  106 1
 106   50  107 1
 107   51  108 1
 108   52   53 1
 109   52  109 1
 110   52  110 1
 111   53   54 1
 112   54   55 2
 113   54   56 1

#	End of record

