#	Name: ASD07930761
#	Creating user name:	WinNT
#	Creation time:	15. 06. 2019 21:13

#	Modifying user name:	WinNT
#	Modification time:	15. 06. 2019 21:13

#	Program:	/corina/corina34_cracker 3.40 0067  02.08.2006

@<TRIPOS>MOLECULE
ASD07930761
  43   46    0    0    0
SMALL
NO_CHARGES


@<TRIPOS>ATOM
   1 C1            -0.0178     1.4608     0.0101 C.3     
   2 N2             0.8031    -0.4153    -2.1619 N.2     
   3 N3            -0.8796    -1.7833    -1.2911 N.pl3   
   4 C4            -0.9005    -2.8248    -0.2586 C.3     
   5 C5            -1.2102    -2.1834     1.1010 C.3     
   6 S6             0.0275    -0.8859     1.4156 S.o2    
   7 N7             0.0021    -0.0041     0.0020 N.am    
   8 C8             0.0002    -0.7257    -1.1832 C.2     
   9 C9             0.4646    -3.5132    -0.1997 C.3     
  10 O10           -0.4323     0.0192     2.4099 O.2     
  11 O11            1.3354    -1.4387     1.4687 O.2     
  12 C12           -1.9634    -3.8404    -0.5898 C.2     
  13 C13           -1.9977    -4.5832    -1.7013 C.2     
  14 S14           -3.3408    -4.2321     0.4309 S.3     
  15 C15           -3.9132    -5.4129    -0.7402 C.2     
  16 C16           -3.0669    -5.4495    -1.7926 C.2     
  17 Cl17          -0.7857    -4.4653    -2.9386 Cl      
  18 C18           -5.1244    -6.2370    -0.5943 C.2     
  19 N19           -5.5722    -7.1613    -1.5114 N.pl3   
  20 C20           -6.7327    -7.7480    -1.0536 C.ar    
  21 C21           -7.0308    -7.1751     0.1977 C.ar    
  22 C22           -5.9704    -6.2070     0.4695 C.2     
  23 C23           -7.5780    -8.7211    -1.5755 C.ar    
  24 C24           -8.6930    -9.1126    -0.8660 C.ar    
  25 C25           -8.9835    -8.5449     0.3672 C.ar    
  26 C26           -8.1674    -7.5876     0.8999 C.ar    
  27 H27            1.0048     1.8381     0.0023 H       
  28 H28           -0.5450     1.8219    -0.8730 H       
  29 H29           -0.5280     1.8123     0.9069 H       
  30 H30            0.7883    -0.9307    -2.9835 H       
  31 H31           -1.4804    -1.8399    -2.0505 H       
  32 H32           -2.2071    -1.7432     1.0811 H       
  33 H33           -1.1573    -2.9394     1.8845 H       
  34 H34            1.2322    -2.7780     0.0418 H       
  35 H35            0.4485    -4.2871     0.5677 H       
  36 H36            0.6857    -3.9650    -1.1667 H       
  37 H37           -3.2167    -6.1036    -2.6388 H       
  38 H38           -5.1366    -7.3686    -2.3530 H       
  39 H39           -5.8799    -5.5816     1.3454 H       
  40 H40           -7.3616    -9.1686    -2.5343 H       
  41 H41           -9.3476    -9.8685    -1.2738 H       
  42 H42           -9.8614    -8.8630     0.9098 H       
  43 H43           -8.3997    -7.1505     1.8598 H       
@<TRIPOS>BOND
   1    1    7 1
   2    1   27 1
   3    1   28 1
   4    1   29 1
   5    2    8 2
   6    2   30 1
   7    3    4 1
   8    3    8 1
   9    3   31 1
  10    4    5 1
  11    4    9 1
  12    4   12 1
  13    5    6 1
  14    5   32 1
  15    5   33 1
  16    6    7 am
  17    6   10 2
  18    6   11 2
  19    7    8 1
  20    9   34 1
  21    9   35 1
  22    9   36 1
  23   12   14 1
  24   12   13 2
  25   13   17 1
  26   13   16 1
  27   14   15 1
  28   15   16 2
  29   15   18 1
  30   16   37 1
  31   18   19 1
  32   18   22 2
  33   19   20 1
  34   19   38 1
  35   20   21 ar
  36   20   23 ar
  37   21   22 1
  38   21   26 ar
  39   22   39 1
  40   23   24 ar
  41   23   40 1
  42   24   25 ar
  43   24   41 1
  44   25   26 ar
  45   25   42 1
  46   26   43 1

#	End of record

