#	Name: ASD01911906
#	Creating user name:	WinNT
#	Creation time:	15. 06. 2019 19:58

#	Modifying user name:	WinNT
#	Modification time:	15. 06. 2019 19:58

#	Program:	/corina/corina34_cracker 3.40 0067  02.08.2006

@<TRIPOS>MOLECULE
ASD01911906
  34   36    0    0    0
SMALL
NO_CHARGES


@<TRIPOS>ATOM
   1 C1            -1.0486    -0.4837    -2.0507 C.ar    
   2 C2            -1.0617     0.0601    -0.7703 C.ar    
   3 C3            -1.0260     1.4449    -0.6418 C.ar    
   4 N4            -0.9812     2.1900    -1.7340 N.ar    
   5 C5            -0.9702     1.6369    -2.9301 C.ar    
   6 N6            -1.0029     0.3295    -3.0931 N.ar    
   7 O7            -1.1086    -0.7407     0.3267 O.3     
   8 C8            -1.1452    -2.0853     0.1339 C.ar    
   9 C9             0.0138    -2.7699    -0.2041 C.ar    
  10 C10           -0.0222    -4.1393    -0.4008 C.ar    
  11 C11           -1.2139    -4.8289    -0.2614 C.ar    
  12 C12           -2.3757    -4.1472     0.0768 C.ar    
  13 C13           -2.3391    -2.7744     0.2803 C.ar    
  14 N14           -3.5799    -4.8437     0.2177 N.am    
  15 C15           -3.5756    -6.1115     0.6750 C.2     
  16 C16           -4.8378    -6.8850     0.7252 C.ar    
  17 O17           -2.5361    -6.6200     1.0461 O.2     
  18 C18           -4.8265    -8.1945     1.1987 C.ar    
  19 C19           -6.0155    -8.9067     1.2401 C.ar    
  20 C20           -7.1745    -8.2842     0.8063 C.ar    
  21 C21           -7.1127    -6.9763     0.3465 C.ar    
  22 N22           -5.9712    -6.3220     0.3233 N.ar    
  23 Cl23          -8.5617    -6.1906    -0.1985 Cl      
  24 F24            1.1072    -4.8036    -0.7298 F       
  25 H25           -1.0708    -1.5542    -2.1915 H       
  26 H26           -1.0351     1.9049     0.3353 H       
  27 H27           -0.9336     2.2733    -3.8019 H       
  28 H28            0.9447    -2.2334    -0.3141 H       
  29 H29           -1.2406    -5.8975    -0.4159 H       
  30 H30           -3.2415    -2.2426     0.5437 H       
  31 H31           -4.4184    -4.4144    -0.0137 H       
  32 H32           -3.9042    -8.6493     1.5289 H       
  33 H33           -6.0375    -9.9240     1.6020 H       
  34 H34           -8.1168    -8.8116     0.8254 H       
@<TRIPOS>BOND
   1    1    2 ar
   2    1    6 ar
   3    1   25 1
   4    2    3 ar
   5    2    7 1
   6    3    4 ar
   7    3   26 1
   8    4    5 ar
   9    5    6 ar
  10    5   27 1
  11    7    8 1
  12    8    9 ar
  13    8   13 ar
  14    9   10 ar
  15    9   28 1
  16   10   11 ar
  17   10   24 1
  18   11   12 ar
  19   11   29 1
  20   12   13 ar
  21   12   14 1
  22   13   30 1
  23   14   15 am
  24   14   31 1
  25   15   16 1
  26   15   17 2
  27   16   18 ar
  28   16   22 ar
  29   18   19 ar
  30   18   32 1
  31   19   20 ar
  32   19   33 1
  33   20   21 ar
  34   20   34 1
  35   21   22 ar
  36   21   23 1

#	End of record

