#	Name: ASD01200177
#	Creating user name:	WinNT
#	Creation time:	15. 06. 2019 19:08

#	Modifying user name:	WinNT
#	Modification time:	15. 06. 2019 19:08

#	Program:	/corina/corina34_cracker 3.40 0067  02.08.2006

@<TRIPOS>MOLECULE
ASD01200177
  48   50    0    0    0
SMALL
NO_CHARGES


@<TRIPOS>ATOM
   1 C1            -0.0181     1.5035     0.0014 C.2     
   2 C2             0.0032    -0.0033    -0.0069 C.3     
   3 O3             1.0234     2.1248    -0.0132 O.2     
   4 N4            -1.1946     2.1607     0.0195 N.am    
   5 C5            -1.2152     3.5500     0.1323 C.ar    
   6 C6            -2.4236     4.2310     0.0365 C.ar    
   7 C7            -2.4299     5.6099     0.1503 C.ar    
   8 C8            -1.2222     6.2629     0.3569 C.ar    
   9 C9            -0.0596     5.5230     0.4421 C.ar    
  10 N10           -0.0851     4.2083     0.3352 N.ar    
  11 S11            1.7216    -0.5836    -0.0394 S.3     
  12 N12            2.8116    -3.0222    -0.4278 N.am    
  13 C13            1.5427    -2.3887    -0.0458 C.3     
  14 C14            1.2360    -2.8870     1.3473 C.2     
  15 C15            2.2252    -3.7040     1.6948 C.2     
  16 C16            3.2021    -3.7930     0.6046 C.2     
  17 O17            4.2156    -4.4647     0.6293 O.2     
  18 C18            2.3274    -4.4303     3.0113 C.3     
  19 C19            3.5184    -2.8518    -1.6996 C.3     
  20 C20            4.4745    -1.6920    -1.5915 C.ar    
  21 C21            5.7721    -1.9047    -1.1639 C.ar    
  22 C22            6.6504    -0.8432    -1.0640 C.ar    
  23 C23            6.2296     0.4371    -1.3931 C.ar    
  24 C24            4.9272     0.6480    -1.8219 C.ar    
  25 C25            4.0543    -0.4178    -1.9255 C.ar    
  26 O26            7.0917     1.4832    -1.2952 O.3     
  27 C27            6.5897     2.7730    -1.6505 C.3     
  28 H28           -0.4900    -0.3786     0.8898 H       
  29 H29           -0.5206    -0.3693    -0.8899 H       
  30 H30           -2.0270     1.6670    -0.0461 H       
  31 H31           -3.3449     3.6910    -0.1250 H       
  32 H32           -3.3532     6.1657     0.0796 H       
  33 H33           -1.1925     7.3385     0.4497 H       
  34 H34            0.8822     6.0266     0.6025 H       
  35 H35            0.7520    -2.6853    -0.7349 H       
  36 H36            0.3761    -2.6281     1.9473 H       
  37 H37            1.8358    -5.3998     2.9305 H       
  38 H38            3.3773    -4.5754     3.2657 H       
  39 H39            1.8430    -3.8410     3.7898 H       
  40 H40            4.0742    -3.7605    -1.9310 H       
  41 H41            2.7970    -2.6553    -2.4928 H       
  42 H42            6.0991    -2.9016    -0.9075 H       
  43 H43            7.6637    -1.0098    -0.7296 H       
  44 H44            4.5972     1.6438    -2.0786 H       
  45 H45            3.0417    -0.2549    -2.2638 H       
  46 H46            6.2604     2.7612    -2.6894 H       
  47 H47            5.7481     3.0257    -1.0054 H       
  48 H48            7.3776     3.5161    -1.5275 H       
@<TRIPOS>BOND
   1    1    2 1
   2    1    3 2
   3    1    4 am
   4    2   11 1
   5    2   28 1
   6    2   29 1
   7    4    5 1
   8    4   30 1
   9    5    6 ar
  10    5   10 ar
  11    6    7 ar
  12    6   31 1
  13    7    8 ar
  14    7   32 1
  15    8    9 ar
  16    8   33 1
  17    9   10 ar
  18    9   34 1
  19   11   13 1
  20   12   13 1
  21   12   16 am
  22   12   19 1
  23   13   14 1
  24   13   35 1
  25   14   15 2
  26   14   36 1
  27   15   16 1
  28   15   18 1
  29   16   17 2
  30   18   37 1
  31   18   38 1
  32   18   39 1
  33   19   20 1
  34   19   40 1
  35   19   41 1
  36   20   21 ar
  37   20   25 ar
  38   21   22 ar
  39   21   42 1
  40   22   23 ar
  41   22   43 1
  42   23   24 ar
  43   23   26 1
  44   24   25 ar
  45   24   44 1
  46   25   45 1
  47   26   27 1
  48   27   46 1
  49   27   47 1
  50   27   48 1

#	End of record

