#	Name: ASD02039444
#	Creating user name:	WinNT
#	Creation time:	15. 06. 2019 20:18

#	Modifying user name:	WinNT
#	Modification time:	15. 06. 2019 20:18

#	Program:	/corina/corina34_cracker 3.40 0067  02.08.2006

@<TRIPOS>MOLECULE
ASD02039444
  58   62    0    0    0
SMALL
NO_CHARGES


@<TRIPOS>ATOM
   1 C1             0.1389     1.8130    -0.0342 C.ar    
   2 C2             0.5816     0.5065    -0.1390 C.ar    
   3 C3             1.1337     2.9450    -0.0259 C.3     
   4 N4             1.4673     3.3120    -1.4044 N.am    
   5 C5             0.8298     4.3384    -2.0016 C.2     
   6 C6            -0.2782     5.0199    -1.3100 C.2     
   7 C7            -1.0708     6.0014    -1.8292 C.2     
   8 N8            -0.7003     4.7814    -0.0419 N.2     
   9 C9            -1.6994     5.5722     0.2248 C.2     
  10 N10           -1.9557     6.3437    -0.8635 N.pl3   
  11 O11            1.1692     4.7019    -3.1115 O.2     
  12 C12           -3.0017     7.3637    -0.9725 C.3     
  13 C13            2.4939     2.5634    -2.1337 C.3     
  14 C14           -0.3243    -0.5382    -0.1474 C.ar    
  15 C15           -2.1315     1.0362     0.0437 C.ar    
  16 C16           -1.2113     2.0829     0.0572 C.ar    
  17 C17           -3.5831     1.3199     0.1410 C.ar    
  18 C18           -4.1272     2.3768    -0.6064 C.ar    
  19 C19           -1.6794    -0.2818    -0.0508 C.ar    
  20 N20           -4.3354     0.5703     0.9236 N.ar    
  21 C21           -5.6478     0.7902     1.0409 C.ar    
  22 C22           -6.2560     1.8458     0.3162 C.ar    
  23 C23           -5.4604     2.6480    -0.5264 C.ar    
  24 C24           -6.4441    -0.0128     1.8765 C.ar    
  25 C25           -7.7792     0.2330     1.9772 C.ar    
  26 C26           -8.3744     1.2707     1.2636 C.ar    
  27 C27           -7.6354     2.0695     0.4443 C.ar    
  28 F28           -2.5643    -1.3026    -0.0589 F       
  29 C29            1.8970     2.0036    -3.4286 C.3     
  30 C30            2.9956     1.2906    -4.2213 C.3     
  31 O31            4.0607     2.2060    -4.4857 O.3     
  32 C32            4.6883     2.7257    -3.3118 C.3     
  33 C33            3.6576     3.4963    -2.4825 C.3     
  34 H34            1.6393     0.3017    -0.2150 H       
  35 H35            0.7008     3.8054     0.4845 H       
  36 H36            2.0378     2.6304     0.4953 H       
  37 H37           -1.0047     6.4247    -2.8206 H       
  38 H38           -2.2393     5.6071     1.1595 H       
  39 H39           -2.6051     8.3265    -0.6503 H       
  40 H40           -3.3328     7.4353    -2.0085 H       
  41 H41           -3.8453     7.0880    -0.3396 H       
  42 H42            2.8558     1.7427    -1.5144 H       
  43 H43            0.0273    -1.5561    -0.2298 H       
  44 H44           -1.5550     3.1042     0.1304 H       
  45 H45           -3.4907     2.9736    -1.2429 H       
  46 H46           -5.8954     3.4594    -1.0911 H       
  47 H47           -5.9983    -0.8218     2.4361 H       
  48 H48           -8.3866    -0.3865     2.6204 H       
  49 H49           -9.4360     1.4439     1.3609 H       
  50 H50           -8.1085     2.8708    -0.1038 H       
  51 H51            1.1038     1.2957    -3.1878 H       
  52 H52            1.4892     2.8201    -4.0245 H       
  53 H53            3.3749     0.4494    -3.6411 H       
  54 H54            2.5862     0.9272    -5.1639 H       
  55 H55            5.0897     1.9033    -2.7198 H       
  56 H56            5.4982     3.3962    -3.5992 H       
  57 H57            3.2855     4.3430    -3.0594 H       
  58 H58            4.1236     3.8561    -1.5652 H       
@<TRIPOS>BOND
   1    1    2 ar
   2    1    3 1
   3    1   16 ar
   4    2   14 ar
   5    2   34 1
   6    3    4 1
   7    3   35 1
   8    3   36 1
   9    4    5 am
  10    4   13 1
  11    5    6 1
  12    5   11 2
  13    6    7 2
  14    6    8 1
  15    7   10 1
  16    7   37 1
  17    8    9 2
  18    9   10 1
  19    9   38 1
  20   10   12 1
  21   12   39 1
  22   12   40 1
  23   12   41 1
  24   13   29 1
  25   13   33 1
  26   13   42 1
  27   14   19 ar
  28   14   43 1
  29   15   16 ar
  30   15   17 1
  31   15   19 ar
  32   16   44 1
  33   17   20 ar
  34   17   18 ar
  35   18   23 ar
  36   18   45 1
  37   19   28 1
  38   20   21 ar
  39   21   22 ar
  40   21   24 ar
  41   22   23 ar
  42   22   27 ar
  43   23   46 1
  44   24   25 ar
  45   24   47 1
  46   25   26 ar
  47   25   48 1
  48   26   27 ar
  49   26   49 1
  50   27   50 1
  51   29   30 1
  52   29   51 1
  53   29   52 1
  54   30   31 1
  55   30   53 1
  56   30   54 1
  57   31   32 1
  58   32   33 1
  59   32   55 1
  60   32   56 1
  61   33   57 1
  62   33   58 1

#	End of record

