#	Name: ASD03090031
#	Creating user name:	WinNT
#	Creation time:	15. 06. 2019 20:28

#	Modifying user name:	WinNT
#	Modification time:	15. 06. 2019 20:28

#	Program:	/corina/corina34_cracker 3.40 0067  02.08.2006

@<TRIPOS>MOLECULE
ASD03090031
  74   74    0    0    0
SMALL
NO_CHARGES


@<TRIPOS>ATOM
   1 C1            -0.0167     1.3831     0.0096 C.ar    
   2 C2             0.0021    -0.0041     0.0020 C.ar    
   3 C3             1.2141    -0.6789    -0.0132 C.ar    
   4 C4             2.3989     0.0314    -0.0207 C.ar    
   5 C5             2.3774     1.4139    -0.0126 C.ar    
   6 C6             1.1708     2.0889     0.0021 C.ar    
   7 O7            -1.1648    -0.7006     0.0099 O.3     
   8 C8             3.6714     2.1863    -0.0198 C.3     
   9 C9             4.0963     2.4560    -1.4647 C.3     
  10 N10            4.3992     1.1862    -2.1296 N.am    
  11 C11            5.3726     0.3884    -1.6475 C.2     
  12 C12            5.6842    -0.9177    -2.3315 C.3     
  13 C13            6.8204    -1.6239    -1.5891 C.3     
  14 C14            7.1367    -2.9500    -2.2836 C.3     
  15 C15            5.3224     3.3321    -1.4725 C.2     
  16 N16            5.2010     4.6627    -1.2954 N.am    
  17 C17            6.3930     5.5144    -1.3030 C.3     
  18 C18            5.9803     6.9711    -1.0824 C.3     
  19 C19            7.2251     7.8607    -1.0903 C.3     
  20 C20            6.8124     9.3173    -0.8698 C.3     
  21 C21            8.0572    10.2069    -0.8777 C.3     
  22 C22            7.6445    11.6636    -0.6572 C.3     
  23 C23            8.8894    12.5531    -0.6651 C.3     
  24 C24            8.4767    14.0098    -0.4446 C.3     
  25 C25            9.7215    14.8993    -0.4525 C.3     
  26 C26            9.3088    16.3560    -0.2320 C.3     
  27 C27           10.5536    17.2455    -0.2399 C.3     
  28 C28           10.1409    18.7022    -0.0194 C.3     
  29 O29            6.4184     2.8399    -1.6381 O.2     
  30 O30            5.9978     0.7216    -0.6631 O.2     
  31 N31           11.3361    19.5563    -0.0270 N.3     
  32 H32           -0.9590     1.9108     0.0170 H       
  33 H33            1.2314    -1.7588    -0.0188 H       
  34 H34            3.3426    -0.4935    -0.0325 H       
  35 H35            1.1567     3.1688     0.0084 H       
  36 H36           -1.5113    -0.8975    -0.8712 H       
  37 H37            3.5318     3.1338     0.5007 H       
  38 H38            4.4441     1.6055     0.4838 H       
  39 H39            3.2869     2.9591    -1.9936 H       
  40 H40            3.8992     0.9197    -2.9170 H       
  41 H41            4.7974    -1.5515    -2.3259 H       
  42 H42            5.9869    -0.7256    -3.3609 H       
  43 H43            7.7072    -0.9902    -1.5947 H       
  44 H44            6.5177    -1.8160    -0.5597 H       
  45 H45            7.9462    -3.4531    -1.7547 H       
  46 H46            6.2499    -3.5837    -2.2779 H       
  47 H47            7.4395    -2.7579    -3.3129 H       
  48 H48            4.3245     5.0564    -1.1629 H       
  49 H49            7.0672     5.2030    -0.5051 H       
  50 H50            6.8996     5.4218    -2.2636 H       
  51 H51            5.3061     7.2825    -1.8803 H       
  52 H52            5.4736     7.0638    -0.1218 H       
  53 H53            7.8993     7.5492    -0.2925 H       
  54 H54            7.7318     7.7680    -2.0510 H       
  55 H55            6.1382     9.6288    -1.6677 H       
  56 H56            6.3058     9.4100     0.0908 H       
  57 H57            8.7314     9.8955    -0.0799 H       
  58 H58            8.5639    10.1142    -1.8384 H       
  59 H59            6.9704    11.9750    -1.4551 H       
  60 H60            7.1379    11.7562     0.3034 H       
  61 H61            9.5635    12.2417     0.1327 H       
  62 H62            9.3960    12.4605    -1.6258 H       
  63 H63            7.8025    14.3212    -1.2425 H       
  64 H64            7.9700    14.1024     0.5160 H       
  65 H65           10.3957    14.5879     0.3454 H       
  66 H66           10.2282    14.8067    -1.4131 H       
  67 H67            8.6346    16.6674    -1.0298 H       
  68 H68            8.8022    16.4487     0.7287 H       
  69 H69           11.2278    16.9341     0.5580 H       
  70 H70           11.0603    17.1529    -1.2005 H       
  71 H71            9.4668    19.0136    -0.8172 H       
  72 H72            9.6343    18.7949     0.9413 H       
  73 H73           11.0899    20.5242     0.1169 H       
  74 H74           12.0057    19.2473     0.6617 H       
@<TRIPOS>BOND
   1    1    2 ar
   2    1    6 ar
   3    1   32 1
   4    2    3 ar
   5    2    7 1
   6    3    4 ar
   7    3   33 1
   8    4    5 ar
   9    4   34 1
  10    5    6 ar
  11    5    8 1
  12    6   35 1
  13    7   36 1
  14    8    9 1
  15    8   37 1
  16    8   38 1
  17    9   10 1
  18    9   15 1
  19    9   39 1
  20   10   11 am
  21   10   40 1
  22   11   12 1
  23   11   30 2
  24   12   13 1
  25   12   41 1
  26   12   42 1
  27   13   14 1
  28   13   43 1
  29   13   44 1
  30   14   45 1
  31   14   46 1
  32   14   47 1
  33   15   16 am
  34   15   29 2
  35   16   17 1
  36   16   48 1
  37   17   18 1
  38   17   49 1
  39   17   50 1
  40   18   19 1
  41   18   51 1
  42   18   52 1
  43   19   20 1
  44   19   53 1
  45   19   54 1
  46   20   21 1
  47   20   55 1
  48   20   56 1
  49   21   22 1
  50   21   57 1
  51   21   58 1
  52   22   23 1
  53   22   59 1
  54   22   60 1
  55   23   24 1
  56   23   61 1
  57   23   62 1
  58   24   25 1
  59   24   63 1
  60   24   64 1
  61   25   26 1
  62   25   65 1
  63   25   66 1
  64   26   27 1
  65   26   67 1
  66   26   68 1
  67   27   28 1
  68   27   69 1
  69   27   70 1
  70   28   31 1
  71   28   71 1
  72   28   72 1
  73   31   73 1
  74   31   74 1

#	End of record

