#	Name: ASD03240346
#	Creating user name:	WinNT
#	Creation time:	15. 06. 2019 20:34

#	Modifying user name:	WinNT
#	Modification time:	15. 06. 2019 20:34

#	Program:	/corina/corina34_cracker 3.40 0067  02.08.2006

@<TRIPOS>MOLECULE
ASD03240346
  54   57    0    0    0
SMALL
NO_CHARGES


@<TRIPOS>ATOM
   1 O1             0.0130     1.2784     0.6607 O.3     
   2 C2             1.2403    -0.7593     0.5078 C.ar    
   3 C3             2.4858     0.0058     0.6875 C.2     
   4 C4             2.3720     1.4074     0.8458 C.2     
   5 C5             1.1414     1.9867     0.8258 C.2     
   6 C6             0.0200    -0.0623     0.5025 C.ar    
   7 C7            -1.1642    -0.7632     0.3349 C.ar    
   8 C8            -1.1390    -2.1398     0.1742 C.ar    
   9 C9             0.0673    -2.8320     0.1790 C.ar    
  10 C10            1.2585    -2.1503     0.3453 C.ar    
  11 C11            1.0431     3.4492     0.9915 C.ar    
  12 C12            2.2000     4.2137     1.1653 C.ar    
  13 C13            2.1061     5.5799     1.3200 C.ar    
  14 C14            0.8642     6.1998     1.3040 C.ar    
  15 C15           -0.2938     5.4434     1.1315 C.ar    
  16 C16           -0.2068     4.0742     0.9692 C.ar    
  17 O17           -1.5089     6.0540     1.1173 O.3     
  18 O18            0.7772     7.5468     1.4573 O.3     
  19 O19            3.5735    -0.5474     0.7007 O.2     
  20 O20            2.4367    -2.8239     0.3507 O.3     
  21 O21           -2.3030    -2.8189     0.0111 O.3     
  22 C22           -3.5139    -2.0709     0.1384 C.3     
  23 C23           -3.9594    -1.5828    -1.2416 C.3     
  24 C24           -5.2558    -0.7819    -1.1053 C.3     
  25 C25           -6.3446    -1.6725    -0.5033 C.3     
  26 C26           -5.8991    -2.1605     0.8767 C.3     
  27 C27           -4.6027    -2.9614     0.7404 C.3     
  28 O28           -2.9425    -0.7511    -1.8038 O.3     
  29 O29           -7.5555    -0.9244    -0.3760 O.3     
  30 O30           -5.0338     0.3422    -0.2513 O.3     
  31 C31           -6.9879    -3.0511     1.4786 C.3     
  32 O32           -6.6245    -3.4120     2.8127 O.3     
  33 H33            3.2560     2.0129     0.9808 H       
  34 H34           -2.1071    -0.2365     0.3299 H       
  35 H35            0.0734    -3.9046     0.0528 H       
  36 H36            3.1674     3.7339     1.1788 H       
  37 H37            3.0009     6.1696     1.4542 H       
  38 H38           -1.1029     3.4876     0.8302 H       
  39 H39           -1.7979     6.3345     0.2382 H       
  40 H40            0.8150     8.0405     0.6267 H       
  41 H41            2.8412    -2.9158    -0.5228 H       
  42 H42           -3.3445    -1.2135     0.7898 H       
  43 H43           -4.1288    -2.4402    -1.8929 H       
  44 H44           -5.5732    -0.4342    -2.0884 H       
  45 H45           -6.5140    -2.5299    -1.1547 H       
  46 H46           -5.7298    -1.3031     1.5280 H       
  47 H47           -4.7721    -3.8188     0.0890 H       
  48 H48           -4.2853    -3.3091     1.7235 H       
  49 H49           -3.1576    -0.4051    -2.6808 H       
  50 H50           -7.8969    -0.5831    -1.2139 H       
  51 H51           -4.3544     0.9512    -0.5716 H       
  52 H52           -7.9335    -2.5091     1.4937 H       
  53 H53           -7.0952    -3.9522     0.8749 H       
  54 H54           -7.2707    -3.9778     3.2569 H       
@<TRIPOS>BOND
   1    1    6 1
   2    1    5 1
   3    2    3 1
   4    2    6 ar
   5    2   10 ar
   6    3    4 1
   7    3   19 2
   8    4    5 2
   9    4   33 1
  10    5   11 1
  11    6    7 ar
  12    7    8 ar
  13    7   34 1
  14    8    9 ar
  15    8   21 1
  16    9   10 ar
  17    9   35 1
  18   10   20 1
  19   11   12 ar
  20   11   16 ar
  21   12   13 ar
  22   12   36 1
  23   13   14 ar
  24   13   37 1
  25   14   15 ar
  26   14   18 1
  27   15   16 ar
  28   15   17 1
  29   16   38 1
  30   17   39 1
  31   18   40 1
  32   20   41 1
  33   21   22 1
  34   22   23 1
  35   22   27 1
  36   22   42 1
  37   23   24 1
  38   23   28 1
  39   23   43 1
  40   24   25 1
  41   24   30 1
  42   24   44 1
  43   25   26 1
  44   25   29 1
  45   25   45 1
  46   26   27 1
  47   26   31 1
  48   26   46 1
  49   27   47 1
  50   27   48 1
  51   28   49 1
  52   29   50 1
  53   30   51 1
  54   31   32 1
  55   31   52 1
  56   31   53 1
  57   32   54 1

#	End of record

