#	Name: ASD07931758
#	Creating user name:	WinNT
#	Creation time:	15. 06. 2019 21:13

#	Modifying user name:	WinNT
#	Modification time:	15. 06. 2019 21:13

#	Program:	/corina/corina34_cracker 3.40 0067  02.08.2006

@<TRIPOS>MOLECULE
ASD07931758
  60   64    0    0    0
SMALL
NO_CHARGES


@<TRIPOS>ATOM
   1 C1             2.1003     1.4886     0.8872 C.2     
   2 C2             2.1925     0.0131     0.8256 C.2     
   3 N3             0.8619     2.0651     1.0570 N.am    
   4 N4             1.0856    -0.6925     0.4913 N.am    
   5 C5            -0.1485     0.0383     0.1700 C.3     
   6 C6            -0.3103     1.1875     1.1761 C.3     
   7 C7             3.2209     2.2539     0.7833 C.2     
   8 C8             3.1384     3.6508     0.8391 C.2     
   9 C9             1.9178     4.2476     0.9987 C.2     
  10 C10            0.7274     3.4015     1.1140 C.2     
  11 O11            3.2399    -0.5541     1.0695 O.2     
  12 O12           -0.3738     3.9041     1.2600 O.2     
  13 C13            1.1756     6.4391     0.1586 C.2     
  14 N14            1.2888     7.6781     0.5527 N.2     
  15 C15            1.9865     7.7185     1.6978 C.2     
  16 C16            2.3215     6.4577     2.0312 C.2     
  17 N17            1.8091     5.6399     1.0569 N.pl3   
  18 C18            2.3354     8.9607     2.4765 C.3     
  19 C19            1.1178    -2.1566     0.4512 C.3     
  20 C20            0.0348    -2.7161     1.3758 C.3     
  21 O21           -0.4833    -2.3104    -1.3911 O.3     
  22 C22            0.8626    -2.6333    -0.9801 C.3     
  23 C23            1.7452    -1.8473    -1.9828 C.3     
  24 C24            0.9362    -1.9750    -3.2965 C.3     
  25 C25           -0.4939    -2.3076    -2.8285 C.3     
  26 C26           -1.4541    -1.2608    -3.3318 C.ar    
  27 C27           -1.9555    -1.3442    -4.6176 C.ar    
  28 C28           -2.8358    -0.3844    -5.0799 C.ar    
  29 C29           -3.2157     0.6600    -4.2555 C.ar    
  30 C30           -2.7141     0.7426    -2.9690 C.ar    
  31 C31           -1.8377    -0.2210    -2.5059 C.ar    
  32 C32           -1.5416    -2.4816    -5.5154 C.3     
  33 F33           -2.1749    -2.3508    -6.7560 F       
  34 F34           -0.1544    -2.4532    -5.6946 F       
  35 F35           -1.9113    -3.6968    -4.9290 F       
  36 Cl36          -4.3210     1.8664    -4.8356 Cl      
  37 H37           -0.0824     0.4425    -0.8401 H       
  38 H38           -1.0025    -0.6351     0.2429 H       
  39 H39           -0.3684     0.7859     2.1878 H       
  40 H40           -1.2161     1.7502     0.9500 H       
  41 H41            4.1828     1.7795     0.6569 H       
  42 H42            4.0316     4.2523     0.7571 H       
  43 H43            0.6609     6.1046    -0.7300 H       
  44 H44            2.8854     6.1497     2.8992 H       
  45 H45            1.5470     9.1698     3.1994 H       
  46 H46            3.2784     8.8076     3.0013 H       
  47 H47            2.4334     9.8031     1.7918 H       
  48 H48            2.0952    -2.5078     0.7822 H       
  49 H49            0.0588    -3.8054     1.3460 H       
  50 H50            0.2167    -2.3765     2.3955 H       
  51 H51           -0.9425    -2.3650     1.0448 H       
  52 H52            1.0438    -3.7046    -1.0670 H       
  53 H53            1.8387    -0.8034    -1.6834 H       
  54 H54            2.7266    -2.3109    -2.0836 H       
  55 H55            0.9487    -1.0334    -3.8453 H       
  56 H56            1.3334    -2.7820    -3.9122 H       
  57 H57           -0.7860    -3.2902    -3.1989 H       
  58 H58           -3.2268    -0.4492    -6.0845 H       
  59 H59           -3.0100     1.5577    -2.3252 H       
  60 H60           -1.4494    -0.1591    -1.5000 H       
@<TRIPOS>BOND
   1    1    2 1
   2    1    3 1
   3    1    7 2
   4    2    4 am
   5    2   11 2
   6    3    6 1
   7    3   10 am
   8    4    5 1
   9    4   19 1
  10    5    6 1
  11    5   37 1
  12    5   38 1
  13    6   39 1
  14    6   40 1
  15    7    8 1
  16    7   41 1
  17    8    9 2
  18    8   42 1
  19    9   10 1
  20    9   17 1
  21   10   12 2
  22   13   14 2
  23   13   17 1
  24   13   43 1
  25   14   15 1
  26   15   16 2
  27   15   18 1
  28   16   17 1
  29   16   44 1
  30   18   45 1
  31   18   46 1
  32   18   47 1
  33   19   20 1
  34   19   22 1
  35   19   48 1
  36   20   49 1
  37   20   50 1
  38   20   51 1
  39   21   25 1
  40   21   22 1
  41   22   23 1
  42   22   52 1
  43   23   24 1
  44   23   53 1
  45   23   54 1
  46   24   25 1
  47   24   55 1
  48   24   56 1
  49   25   26 1
  50   25   57 1
  51   26   27 ar
  52   26   31 ar
  53   27   28 ar
  54   27   32 1
  55   28   29 ar
  56   28   58 1
  57   29   30 ar
  58   29   36 1
  59   30   31 ar
  60   30   59 1
  61   31   60 1
  62   32   33 1
  63   32   34 1
  64   32   35 1

#	End of record

