#	Name: ASD02448191
#	Creating user name:	WinNT
#	Creation time:	15. 06. 2019 20:22

#	Modifying user name:	WinNT
#	Modification time:	15. 06. 2019 20:22

#	Program:	/corina/corina34_cracker 3.40 0067  02.08.2006

@<TRIPOS>MOLECULE
ASD02448191
  76   82    0    0    0
SMALL
NO_CHARGES


@<TRIPOS>ATOM
   1 C1            -0.0495    -6.5829     3.1351 C.ar    
   2 C2             0.4370    -5.4514     2.5095 C.ar    
   3 C3             0.3489    -5.3268     1.1289 C.ar    
   4 C4            -0.2282    -6.3397     0.3779 C.ar    
   5 C5            -0.7163    -7.4757     1.0090 C.ar    
   6 C6            -0.6252    -7.5942     2.3903 C.ar    
   7 N7            -1.2987    -8.4981     0.2563 N.am    
   8 C8            -1.4107    -9.9213     0.6012 C.3     
   9 C9            -2.1062   -10.6886    -0.4766 C.2     
  10 N10           -2.4889    -9.9547    -1.5309 N.am    
  11 S11           -2.0330    -8.3809    -1.2372 S.o2    
  12 O12           -2.3081   -11.8823    -0.4030 O.2     
  13 O13           -3.2237    -7.6239    -1.0688 O.2     
  14 O14           -1.0137    -8.0580    -2.1732 O.2     
  15 N15            0.8426    -4.1777     0.4952 N.pl3   
  16 C16            1.7739    -4.1404    -0.5081 C.2     
  17 C17            0.4816    -2.8942     0.7584 C.2     
  18 N18            1.1499    -2.0984    -0.0289 N.2     
  19 C19            1.9563    -2.8316    -0.8232 C.2     
  20 C20            2.8793    -2.3027    -1.8572 C.ar    
  21 C21            2.9684    -0.9284    -2.0787 C.ar    
  22 C22            3.6642    -3.1765    -2.6065 C.ar    
  23 C23            4.5214    -2.6795    -3.5675 C.ar    
  24 C24            4.6028    -1.3154    -3.7876 C.ar    
  25 C25            3.8292    -0.4417    -3.0426 C.ar    
  26 C26           -0.5265    -2.4615     1.7916 C.3     
  27 C27           -1.8704    -2.2762     1.1353 C.ar    
  28 C28           -2.7139    -3.3606     0.9741 C.ar    
  29 C29           -2.2582    -1.0212     0.7016 C.ar    
  30 C30           -3.4878    -0.8457     0.1000 C.ar    
  31 C31           -4.3393    -1.9357    -0.0702 C.ar    
  32 C32           -3.9456    -3.1967     0.3734 C.ar    
  33 C33           -5.6624    -1.7531    -0.7157 C.ar    
  34 Cl34           5.6835    -0.6974    -4.9975 Cl      
  35 Cl35           1.9988     0.1679    -1.1450 Cl      
  36 C36           -6.5168    -2.8447    -0.8869 C.ar    
  37 C37           -7.7424    -2.6202    -1.4961 C.ar    
  38 C38           -8.0445    -1.3276    -1.8976 C.ar    
  39 N39           -7.1773    -0.3531    -1.6967 N.ar    
  40 N40           -6.0432    -0.5503    -1.1289 N.ar    
  41 C41           -9.3640    -1.0354    -2.5643 C.3     
  42 C42           -9.2515    -1.3183    -4.0637 C.3     
  43 C43          -10.5912    -1.0217    -4.7406 C.3     
  44 C44          -11.6774    -1.9120    -4.1337 C.3     
  45 C45          -11.7899    -1.6291    -2.6343 C.3     
  46 C46          -10.4502    -1.9257    -1.9574 C.3     
  47 H47            0.0243    -6.6792     4.2083 H       
  48 H48            0.8861    -4.6625     3.0946 H       
  49 H49           -0.2981    -6.2448    -0.6957 H       
  50 H50           -1.0047    -8.4777     2.8822 H       
  51 H51           -0.4120   -10.3334     0.7452 H       
  52 H52           -1.9730   -10.0204     1.5297 H       
  53 H53           -2.9500   -10.2806    -2.3196 H       
  54 H54            2.2678    -4.9874    -0.9610 H       
  55 H55            3.6023    -4.2410    -2.4354 H       
  56 H56            5.1301    -3.3564    -4.1486 H       
  57 H57            3.8961     0.6218    -3.2184 H       
  58 H58           -0.6027    -3.2242     2.5666 H       
  59 H59           -0.2075    -1.5199     2.2385 H       
  60 H60           -2.4079    -4.3373     1.3186 H       
  61 H61           -1.5977    -0.1771     0.8344 H       
  62 H62           -3.7898     0.1347    -0.2380 H       
  63 H63           -4.6015    -4.0449     0.2440 H       
  64 H64           -6.2320    -3.8324    -0.5557 H       
  65 H65           -8.4410    -3.4286    -1.6536 H       
  66 H66           -9.6247     0.0117    -2.4107 H       
  67 H67           -8.4777    -0.6840    -4.4960 H       
  68 H68           -8.9908    -2.3655    -4.2173 H       
  69 H69          -10.8519     0.0255    -4.5869 H       
  70 H70          -10.5110    -1.2233    -5.8088 H       
  71 H71          -12.6318    -1.7007    -4.6159 H       
  72 H72          -11.4167    -2.9592    -4.2873 H       
  73 H73          -12.0506    -0.5820    -2.4806 H       
  74 H74          -12.5638    -2.2634    -2.2019 H       
  75 H75          -10.1895    -2.9729    -2.1110 H       
  76 H76          -10.5304    -1.7242    -0.8892 H       
@<TRIPOS>BOND
   1    1    2 ar
   2    1    6 ar
   3    1   47 1
   4    2    3 ar
   5    2   48 1
   6    3    4 ar
   7    3   15 1
   8    4    5 ar
   9    4   49 1
  10    5    6 ar
  11    5    7 1
  12    6   50 1
  13    7    8 1
  14    7   11 am
  15    8    9 1
  16    8   51 1
  17    8   52 1
  18    9   10 am
  19    9   12 2
  20   10   11 am
  21   10   53 1
  22   11   13 2
  23   11   14 2
  24   15   16 1
  25   15   17 1
  26   16   19 2
  27   16   54 1
  28   17   18 2
  29   17   26 1
  30   18   19 1
  31   19   20 1
  32   20   21 ar
  33   20   22 ar
  34   21   35 1
  35   21   25 ar
  36   22   23 ar
  37   22   55 1
  38   23   24 ar
  39   23   56 1
  40   24   25 ar
  41   24   34 1
  42   25   57 1
  43   26   27 1
  44   26   58 1
  45   26   59 1
  46   27   28 ar
  47   27   29 ar
  48   28   32 ar
  49   28   60 1
  50   29   30 ar
  51   29   61 1
  52   30   31 ar
  53   30   62 1
  54   31   32 ar
  55   31   33 1
  56   32   63 1
  57   33   36 ar
  58   33   40 ar
  59   36   37 ar
  60   36   64 1
  61   37   38 ar
  62   37   65 1
  63   38   39 ar
  64   38   41 1
  65   39   40 ar
  66   41   42 1
  67   41   46 1
  68   41   66 1
  69   42   43 1
  70   42   67 1
  71   42   68 1
  72   43   44 1
  73   43   69 1
  74   43   70 1
  75   44   45 1
  76   44   71 1
  77   44   72 1
  78   45   46 1
  79   45   73 1
  80   45   74 1
  81   46   75 1
  82   46   76 1

#	End of record

