#	Name: ASD01811592
#	Creating user name:	WinNT
#	Creation time:	15. 06. 2019 19:27

#	Modifying user name:	WinNT
#	Modification time:	15. 06. 2019 19:27

#	Program:	/corina/corina34_cracker 3.40 0067  02.08.2006

@<TRIPOS>MOLECULE
ASD01811592
  59   62    0    0    0
SMALL
NO_CHARGES


@<TRIPOS>ATOM
   1 C1             0.1032     1.3575     0.1481 C.ar    
   2 C2             0.1504    -0.0245    -0.0459 C.ar    
   3 C3            -0.9993    -0.7198    -0.3639 C.ar    
   4 C4            -2.2026    -0.0547    -0.4922 C.ar    
   5 C5            -2.2637     1.3272    -0.3009 C.ar    
   6 C6            -1.1078     2.0339     0.0255 C.ar    
   7 C7            -3.5529     2.0381    -0.4386 C.2     
   8 O8            -3.6563     2.9632    -1.2202 O.2     
   9 N9            -4.6134     1.6602     0.3024 N.am    
  10 C10           -5.8764     2.4080     0.2378 C.3     
  11 C11           -6.2865     2.8071     1.6588 C.3     
  12 C12           -6.3406     1.5569     2.5399 C.3     
  13 C13           -4.9537     0.9128     2.6002 C.3     
  14 C14           -4.5303     0.4890     1.1856 C.3     
  15 C15           -6.7767     1.9411     3.9303 C.ar    
  16 C16           -7.1976     0.9638     4.8147 C.ar    
  17 F17           -7.2546     0.6456     2.0001 F       
  18 C18           -6.7489     3.2689     4.3185 C.ar    
  19 C19           -7.1463     3.6275     5.5899 C.ar    
  20 C20           -7.5772     2.6470     6.4858 C.ar    
  21 C21           -7.5977     1.3084     6.0891 C.ar    
  22 C22           -7.9911     3.0120     7.8072 C.1     
  23 N23           -8.3195     3.3016     8.8554 N.1     
  24 C24            1.3362     2.1008     0.4893 C.2     
  25 N25            1.4368     3.3945     0.6986 N.2     
  26 C26           -1.1661     3.5254     0.2335 C.3     
  27 N27            2.6559     3.6960     0.9726 N.2     
  28 C28            3.3981     2.6214     0.9543 C.2     
  29 N29            2.5874     1.5709     0.6527 N.pl3   
  30 C30            4.8794     2.5561     1.2238 C.3     
  31 C31            5.6109     3.5216     0.2891 C.3     
  32 O32            7.0155     3.4596     0.5445 O.3     
  33 C33            7.7951     4.3282    -0.2800 C.3     
  34 H34            1.0884    -0.5506     0.0526 H       
  35 H35           -0.9572    -1.7886    -0.5132 H       
  36 H36           -3.0983    -0.6044    -0.7415 H       
  37 H37           -5.7402     3.3037    -0.3683 H       
  38 H38           -6.6507     1.7802    -0.2033 H       
  39 H39           -5.5564     3.5071     2.0651 H       
  40 H40           -7.2690     3.2783     1.6352 H       
  41 H41           -4.2362     1.6307     2.9976 H       
  42 H42           -4.9876     0.0358     3.2466 H       
  43 H43           -5.1956    -0.2954     0.8247 H       
  44 H44           -3.5047     0.1204     1.2062 H       
  45 H45           -7.2133    -0.0712     4.5064 H       
  46 H46           -6.4150     4.0261     3.6246 H       
  47 H47           -7.1237     4.6642     5.8917 H       
  48 H48           -7.9302     0.5450     6.7770 H       
  49 H49           -1.2589     3.7403     1.2981 H       
  50 H50           -0.2540     3.9818    -0.1511 H       
  51 H51           -2.0274     3.9327    -0.2959 H       
  52 H52            2.8443     0.6396     0.5658 H       
  53 H53            5.0731     2.8360     2.2592 H       
  54 H54            5.2360     1.5410     1.0490 H       
  55 H55            5.4172     3.2416    -0.7464 H       
  56 H56            5.2542     4.5367     0.4638 H       
  57 H57            7.4838     5.3600    -0.1170 H       
  58 H58            8.8494     4.2222    -0.0245 H       
  59 H59            7.6467     4.0650    -1.3272 H       
@<TRIPOS>BOND
   1    1    2 ar
   2    1   24 1
   3    1    6 ar
   4    2    3 ar
   5    2   34 1
   6    3    4 ar
   7    3   35 1
   8    4    5 ar
   9    4   36 1
  10    5    6 ar
  11    5    7 1
  12    6   26 1
  13    7    8 2
  14    7    9 am
  15    9   10 1
  16    9   14 1
  17   10   11 1
  18   10   37 1
  19   10   38 1
  20   11   12 1
  21   11   39 1
  22   11   40 1
  23   12   13 1
  24   12   15 1
  25   12   17 1
  26   13   14 1
  27   13   41 1
  28   13   42 1
  29   14   43 1
  30   14   44 1
  31   15   16 ar
  32   15   18 ar
  33   16   21 ar
  34   16   45 1
  35   18   19 ar
  36   18   46 1
  37   19   20 ar
  38   19   47 1
  39   20   21 ar
  40   20   22 1
  41   21   48 1
  42   22   23 3
  43   24   25 2
  44   24   29 1
  45   25   27 1
  46   26   49 1
  47   26   50 1
  48   26   51 1
  49   27   28 2
  50   28   29 1
  51   28   30 1
  52   29   52 1
  53   30   31 1
  54   30   53 1
  55   30   54 1
  56   31   32 1
  57   31   55 1
  58   31   56 1
  59   32   33 1
  60   33   57 1
  61   33   58 1
  62   33   59 1

#	End of record

