#	Name: ASD02039122
#	Creating user name:	WinNT
#	Creation time:	15. 06. 2019 20:17

#	Modifying user name:	WinNT
#	Modification time:	15. 06. 2019 20:17

#	Program:	/corina/corina34_cracker 3.40 0067  02.08.2006

@<TRIPOS>MOLECULE
ASD02039122
  42   45    0    0    0
SMALL
NO_CHARGES


@<TRIPOS>ATOM
   1 N1             0.0234     1.2846    -0.3606 N.2     
   2 N2             0.0398    -0.0019    -0.3618 N.2     
   3 C3             1.2244     1.7332    -0.0875 C.2     
   4 O4             2.0204     0.6620     0.0884 O.3     
   5 C5             1.2410    -0.4221    -0.0919 C.2     
   6 N6             1.6034     3.0605     0.0028 N.pl3   
   7 C7             0.6393     4.0715    -0.0882 C.ar    
   8 C8             1.6807    -1.8604     0.0029 C.3     
   9 C9             2.1412    -2.3351    -1.3513 C.ar    
  10 C10           -0.6626     3.8294     0.3296 C.ar    
  11 C11            0.9859     5.3188    -0.5912 C.ar    
  12 C12            0.0347     6.3160    -0.6805 C.ar    
  13 C13           -1.2669     6.0727    -0.2680 C.ar    
  14 O14           -2.2029     7.0556    -0.3563 O.3     
  15 C15            3.4514    -2.1941    -1.7075 C.ar    
  16 C16            1.2295    -2.9173    -2.2229 C.ar    
  17 C17            1.6220    -3.3562    -3.4558 C.ar    
  18 C18            2.9509    -3.2209    -3.8490 C.ar    
  19 C19            3.8779    -2.6356    -2.9647 C.ar    
  20 N20            3.6433    -3.5505    -4.9848 N.pl3   
  21 N21            4.9823    -3.1778    -4.8284 N.2     
  22 C22            5.1626    -2.6380    -3.6568 C.2     
  23 C23           -1.6136     4.8281     0.2393 C.ar    
  24 Cl24          -3.2432     4.5242     0.7548 Cl      
  25 C25           -1.7754     8.3131    -0.8833 C.3     
  26 F26           -0.7576     8.8347    -0.0776 F       
  27 F27           -1.2943     8.1341    -2.1848 F       
  28 C28            6.4649    -2.1086    -3.1139 C.3     
  29 F29            7.4473    -2.1790    -4.1074 F       
  30 F30            6.2978    -0.7775    -2.7168 F       
  31 F31            6.8584    -2.8776    -2.0135 F       
  32 H32            2.5372     3.2907     0.1291 H       
  33 H33            2.5014    -1.9432     0.7154 H       
  34 H34            0.8450    -2.4745     0.3383 H       
  35 H35           -0.9320     2.8610     0.7247 H       
  36 H36            1.9994     5.5090    -0.9122 H       
  37 H37            0.3046     7.2860    -1.0713 H       
  38 H38            4.1548    -1.7439    -1.0227 H       
  39 H39            0.1978    -3.0246    -1.9221 H       
  40 H40            0.9032    -3.8073    -4.1238 H       
  41 H41            3.2654    -3.9745    -5.7711 H       
  42 H42           -2.6171     9.0055    -0.8991 H       
@<TRIPOS>BOND
   1    1    2 1
   2    1    3 2
   3    2    5 2
   4    3    4 1
   5    3    6 1
   6    4    5 1
   7    5    8 1
   8    6    7 1
   9    6   32 1
  10    7   10 ar
  11    7   11 ar
  12    8    9 1
  13    8   33 1
  14    8   34 1
  15    9   15 ar
  16    9   16 ar
  17   10   23 ar
  18   10   35 1
  19   11   12 ar
  20   11   36 1
  21   12   13 ar
  22   12   37 1
  23   13   23 ar
  24   13   14 1
  25   14   25 1
  26   15   19 ar
  27   15   38 1
  28   16   17 ar
  29   16   39 1
  30   17   18 ar
  31   17   40 1
  32   18   19 ar
  33   18   20 1
  34   19   22 1
  35   20   21 1
  36   20   41 1
  37   21   22 2
  38   22   28 1
  39   23   24 1
  40   25   26 1
  41   25   27 1
  42   25   42 1
  43   28   29 1
  44   28   30 1
  45   28   31 1

#	End of record

