#	Name: ASD09840001
#	Creating user name:	WinNT
#	Creation time:	15. 06. 2019 21:24

#	Modifying user name:	WinNT
#	Modification time:	15. 06. 2019 21:24

#	Program:	/corina/corina34_cracker 3.40 0067  02.08.2006

@<TRIPOS>MOLECULE
ASD09840001
  68   71    0    0    0
SMALL
NO_CHARGES


@<TRIPOS>ATOM
   1 O1             0.2323     1.3607    -0.0448 O.3     
   2 O2             2.3150    -4.4246    -2.1141 O.3     
   3 O3            -8.0835     3.2253    -3.4447 O.2     
   4 O4            -9.7865     3.2214    -2.0364 O.3     
   5 C5            -1.1543    -0.6158    -0.1412 C.3     
   6 C6            -2.0083    -0.0428    -1.2564 C.3     
   7 C7            -1.1290    -2.1413    -0.3239 C.3     
   8 C8            -3.4519    -0.5723    -1.0406 C.3     
   9 C9            -0.2821    -2.7662     0.7856 C.3     
  10 C10           -4.2898     0.3077    -1.9621 C.3     
  11 C11            1.1469    -2.2248     0.6990 C.3     
  12 C12            0.2674    -0.0572    -0.2187 C.3     
  13 C13           -2.5343    -2.7323    -0.3036 C.3     
  14 C14           -2.2263     1.4738    -1.2195 C.3     
  15 C15           -3.4413    -2.0572    -1.3463 C.3     
  16 C16           -3.5330     1.6572    -2.0388 C.3     
  17 C17           -5.6859     0.5157    -1.3715 C.3     
  18 C18            1.1279    -0.7044     0.8698 C.3     
  19 C19           -0.2616    -4.2868     0.6168 C.3     
  20 C20           -3.8732    -0.3475     0.4130 C.3     
  21 C21            1.7411    -2.5766    -0.6665 C.3     
  22 C22           -0.8827    -2.4117     2.1474 C.3     
  23 C23            1.7606    -4.0967    -0.8385 C.3     
  24 C24            0.3328    -4.6387    -0.7485 C.3     
  25 C25           -6.4593     1.5175    -2.2312 C.3     
  26 C26           -6.4333    -0.8192    -1.3471 C.3     
  27 C27           -7.8071     1.8203    -1.5735 C.3     
  28 C28           -8.5689     2.8071    -2.4203 C.2     
  29 H29           -1.5950    -0.3679     0.8245 H       
  30 H30           -1.6269    -0.3596    -2.2271 H       
  31 H31           -0.6625    -2.3739    -1.2812 H       
  32 H32           -4.3610    -0.1423    -2.9523 H       
  33 H33            1.7534    -2.6717     1.4868 H       
  34 H34           -5.5970     0.9010    -0.3558 H       
  35 H35            1.1013     1.7832    -0.0825 H       
  36 H36            2.3584    -5.3742    -2.2918 H       
  37 H37          -10.2364     3.8548    -2.6122 H       
  38 H38            0.6981    -0.2935    -1.1917 H       
  39 H39           -2.4757    -3.7992    -0.5192 H       
  40 H40           -2.9656    -2.5931     0.6877 H       
  41 H41           -2.3621     1.8192    -0.1946 H       
  42 H42           -1.3959     1.9946    -1.6963 H       
  43 H43           -4.4523    -2.4580    -1.2735 H       
  44 H44           -3.0453    -2.2268    -2.3476 H       
  45 H45           -3.2944     1.8938    -3.0757 H       
  46 H46           -4.1393     2.4515    -1.6033 H       
  47 H47            0.7061    -0.4535     1.8431 H       
  48 H48            2.1455    -0.3190     0.8051 H       
  49 H49            0.3472    -4.7318     1.4039 H       
  50 H50           -1.2786    -4.6735     0.6811 H       
  51 H51           -3.7749     0.7094     0.6605 H       
  52 H52           -4.9106    -0.6560     0.5424 H       
  53 H53           -3.2343    -0.9359     1.0716 H       
  54 H54            1.1333    -2.1298    -1.4532 H       
  55 H55            2.7586    -2.1907    -0.7302 H       
  56 H56           -1.9006    -2.7969     2.2070 H       
  57 H57           -0.2788    -2.8573     2.9379 H       
  58 H58           -0.8965    -1.3284     2.2676 H       
  59 H59            2.3691    -4.5435    -0.0522 H       
  60 H60            0.3470    -5.7218    -0.8703 H       
  61 H61           -0.2754    -4.1926    -1.5353 H       
  62 H62           -5.8840     2.4389    -2.3217 H       
  63 H63           -6.6253     1.0941    -3.2218 H       
  64 H64           -5.8457    -1.5545    -0.7974 H       
  65 H65           -7.3984    -0.6863    -0.8582 H       
  66 H66           -6.5881    -1.1676    -2.3682 H       
  67 H67           -8.3824     0.8989    -1.4831 H       
  68 H68           -7.6410     2.2436    -0.5829 H       
@<TRIPOS>BOND
   1    1   12 1
   2    1   35 1
   3    2   23 1
   4    2   36 1
   5    3   28 2
   6    4   28 1
   7    4   37 1
   8    5    6 1
   9    5   29 1
  10    5    7 1
  11    5   12 1
  12    6    8 1
  13    6   14 1
  14    6   30 1
  15    7   13 1
  16    7   31 1
  17    7    9 1
  18    8   10 1
  19    8   15 1
  20    8   20 1
  21    9   19 1
  22    9   22 1
  23    9   11 1
  24   10   16 1
  25   10   17 1
  26   10   32 1
  27   11   18 1
  28   11   21 1
  29   11   33 1
  30   12   18 1
  31   12   38 1
  32   13   15 1
  33   13   39 1
  34   13   40 1
  35   14   16 1
  36   14   41 1
  37   14   42 1
  38   15   43 1
  39   15   44 1
  40   16   45 1
  41   16   46 1
  42   17   25 1
  43   17   26 1
  44   17   34 1
  45   18   47 1
  46   18   48 1
  47   19   24 1
  48   19   49 1
  49   19   50 1
  50   20   51 1
  51   20   52 1
  52   20   53 1
  53   21   23 1
  54   21   54 1
  55   21   55 1
  56   22   56 1
  57   22   57 1
  58   22   58 1
  59   23   24 1
  60   23   59 1
  61   24   60 1
  62   24   61 1
  63   25   27 1
  64   25   62 1
  65   25   63 1
  66   26   64 1
  67   26   65 1
  68   26   66 1
  69   27   28 1
  70   27   67 1
  71   27   68 1

#	End of record

