#	Name: ASD01884818
#	Creating user name:	WinNT
#	Creation time:	15. 06. 2019 19:48

#	Modifying user name:	WinNT
#	Modification time:	15. 06. 2019 19:48

#	Program:	/corina/corina34_cracker 3.40 0067  02.08.2006

@<TRIPOS>MOLECULE
ASD01884818
  54   57    0    0    0
SMALL
NO_CHARGES


@<TRIPOS>ATOM
   1 C1            -0.0173     1.4248     0.0099 C.3     
   2 O2             0.0021    -0.0041     0.0020 O.3     
   3 C3            -1.1998    -0.6372     0.0101 C.ar    
   4 C4            -2.3735     0.1049     0.0195 C.ar    
   5 C5            -3.5957    -0.5333     0.0272 C.ar    
   6 C6            -3.6536    -1.9260     0.0257 C.ar    
   7 C7            -2.4721    -2.6707     0.0162 C.ar    
   8 F8            -2.5229    -4.0207     0.0142 F       
   9 C9            -1.2516    -2.0243     0.0031 C.ar    
  10 C10           -4.9663    -2.6152     0.0345 C.ar    
  11 C11           -5.8398    -2.5009    -1.0493 C.ar    
  12 C12           -7.0597    -3.1663    -0.9947 C.ar    
  13 N13           -7.3865    -3.8911     0.0655 N.ar    
  14 C14           -6.5869    -4.0202     1.1113 C.ar    
  15 C15           -7.0630    -4.8584     2.2706 C.3     
  16 N16           -5.9351    -5.2389     3.1263 N.3     
  17 C17           -6.3968    -5.9819     4.3064 C.3     
  18 C18           -7.2204    -5.0729     5.1819 C.ar    
  19 C19           -6.6228    -4.3160     6.1799 C.ar    
  20 C20           -7.4064    -3.4927     6.9641 C.ar    
  21 N21           -8.7100    -3.4191     6.7750 N.ar    
  22 C22           -9.3158    -4.1247     5.8343 C.ar    
  23 O23          -10.6588    -4.0179     5.6743 O.3     
  24 C24          -11.3483    -3.1279     6.5544 C.3     
  25 C25           -8.5894    -4.9694     5.0051 C.ar    
  26 C26           -5.1676    -4.0469     3.5207 C.3     
  27 C27           -4.4136    -3.5288     2.2953 C.3     
  28 C28           -5.3554    -3.4000     1.1274 C.ar    
  29 C29           -8.0033    -3.0636    -2.1326 C.2     
  30 N30           -9.1872    -3.7058    -2.0864 N.am    
  31 O31           -7.7096    -2.4002    -3.1074 O.2     
  32 H32            1.0053     1.8021     0.0021 H       
  33 H33           -0.5445     1.7859    -0.8732 H       
  34 H34           -0.5275     1.7763     0.9067 H       
  35 H35           -2.3290     1.1840     0.0211 H       
  36 H36           -4.5075     0.0454     0.0349 H       
  37 H37           -0.3370    -2.5985    -0.0087 H       
  38 H38           -5.5735    -1.9077    -1.9116 H       
  39 H39           -7.7823    -4.2864     2.8567 H       
  40 H40           -7.5451    -5.7587     1.8895 H       
  41 H41           -7.0051    -6.8284     3.9877 H       
  42 H42           -5.5355    -6.3443     4.8676 H       
  43 H43           -5.5564    -4.3706     6.3417 H       
  44 H44           -6.9463    -2.9019     7.7424 H       
  45 H45          -11.2008    -3.4498     7.5853 H       
  46 H46          -10.9573    -2.1182     6.4296 H       
  47 H47          -12.4127    -3.1370     6.3197 H       
  48 H48           -9.0865    -5.5406     4.2351 H       
  49 H49           -5.8479    -3.2771     3.8848 H       
  50 H50           -4.4566    -4.3115     4.3034 H       
  51 H51           -3.9793    -2.5552     2.5226 H       
  52 H52           -3.6176    -4.2275     2.0380 H       
  53 H53           -9.4217    -4.2354    -1.3082 H       
  54 H54           -9.8049    -3.6386    -2.8313 H       
@<TRIPOS>BOND
   1    1    2 1
   2    1   32 1
   3    1   33 1
   4    1   34 1
   5    2    3 1
   6    3    9 ar
   7    3    4 ar
   8    4    5 ar
   9    4   35 1
  10    5    6 ar
  11    5   36 1
  12    6    7 ar
  13    6   10 1
  14    7    8 1
  15    7    9 ar
  16    9   37 1
  17   10   28 ar
  18   10   11 ar
  19   11   12 ar
  20   11   38 1
  21   12   13 ar
  22   12   29 1
  23   13   14 ar
  24   14   28 ar
  25   14   15 1
  26   15   16 1
  27   15   39 1
  28   15   40 1
  29   16   17 1
  30   16   26 1
  31   17   18 1
  32   17   41 1
  33   17   42 1
  34   18   25 ar
  35   18   19 ar
  36   19   20 ar
  37   19   43 1
  38   20   21 ar
  39   20   44 1
  40   21   22 ar
  41   22   23 1
  42   22   25 ar
  43   23   24 1
  44   24   45 1
  45   24   46 1
  46   24   47 1
  47   25   48 1
  48   26   27 1
  49   26   49 1
  50   26   50 1
  51   27   28 1
  52   27   51 1
  53   27   52 1
  54   29   30 am
  55   29   31 2
  56   30   53 1
  57   30   54 1

#	End of record

