#	Name: ASD01478011
#	Creating user name:	WinNT
#	Creation time:	15. 06. 2019 19:21

#	Modifying user name:	WinNT
#	Modification time:	15. 06. 2019 19:21

#	Program:	/corina/corina34_cracker 3.40 0067  02.08.2006

@<TRIPOS>MOLECULE
ASD01478011
  82   84    0    0    0
SMALL
NO_CHARGES


@<TRIPOS>ATOM
   1 C1            -0.5112     1.5038    -1.8904 C.3     
   2 C2             1.6234     2.2373    -2.6660 C.2     
   3 O3             0.7746     2.1248    -1.6270 O.3     
   4 N4             2.8333     2.8042    -2.4895 N.am    
   5 O5             1.2986     1.8278    -3.7629 O.2     
   6 C6             3.4370     4.2009    -4.4042 C.3     
   7 C7             3.7569     2.9267    -3.6200 C.3     
   8 C8             5.1940     2.9954    -3.0995 C.3     
   9 C9             6.1651     2.9975    -4.2818 C.3     
  10 N10            7.5412     2.9312    -3.7836 N.am    
  11 S11            8.5709     4.2057    -4.0232 S.o2    
  12 C12            8.3993     5.2823    -2.6389 C.ar    
  13 C13            9.2014     5.1089    -1.5261 C.ar    
  14 C14            9.0688     5.9516    -0.4395 C.ar    
  15 C15            8.1298     6.9725    -0.4655 C.ar    
  16 C16            7.3262     7.1444    -1.5832 C.ar    
  17 C17            7.4666     6.3025    -2.6695 C.ar    
  18 O18            9.8876     3.6755    -3.9583 O.2     
  19 O19            8.0740     4.9169    -5.1486 O.2     
  20 C20            8.0063     1.7372    -3.0734 C.3     
  21 C21            8.0565     0.5545    -4.0426 C.3     
  22 C22            9.0785     0.8412    -5.1445 C.3     
  23 C23            8.4656    -0.7096    -3.2840 C.3     
  24 O24            5.3680     4.1919    -2.3379 O.3     
  25 C25           -0.4087     0.0193    -1.6707 C.3     
  26 O26           -1.2709    -0.7353    -2.5459 O.3     
  27 C27           -2.5986    -0.2159    -2.7614 C.3     
  28 C28           -3.2302     0.3092    -1.5014 C.3     
  29 C29           -2.9325     1.8180    -1.3888 C.3     
  30 C30           -1.5692     2.0763    -0.9256 C.3     
  31 O31           -4.6432     0.1021    -1.5515 O.3     
  32 C32           -5.0667    -1.1504    -1.0092 C.3     
  33 C33            2.0668     4.0812    -5.0199 C.ar    
  34 C34            0.9545     4.5096    -4.3197 C.ar    
  35 C35           -0.3024     4.3997    -4.8845 C.ar    
  36 C36           -0.4470     3.8619    -6.1497 C.ar    
  37 C37            0.6653     3.4344    -6.8503 C.ar    
  38 C38            1.9227     3.5482    -6.2872 C.ar    
  39 O39            7.9971     7.8025     0.6024 O.3     
  40 C40            7.0101     8.8313     0.5057 C.3     
  41 H41           -0.8081     1.7011    -2.9205 H       
  42 H42            3.0926     3.1312    -1.6138 H       
  43 H43            3.4590     5.0574    -3.7304 H       
  44 H44            4.1783     4.3388    -5.1914 H       
  45 H45            3.6481     2.0610    -4.2734 H       
  46 H46            5.3931     2.1301    -2.4673 H       
  47 H47            5.9665     2.1341    -4.9167 H       
  48 H48            6.0317     3.9119    -4.8599 H       
  49 H49            9.9319     4.3137    -1.5062 H       
  50 H50            9.6953     5.8155     0.4296 H       
  51 H51            6.5945     7.9384    -1.6059 H       
  52 H52            6.8412     6.4359    -3.5399 H       
  53 H53            9.0025     1.9192    -2.6703 H       
  54 H54            7.3203     1.5095    -2.2575 H       
  55 H55            7.0728     0.4081    -4.4886 H       
  56 H56            8.7871     1.7417    -5.6850 H       
  57 H57           10.0623     0.9875    -4.6985 H       
  58 H58            9.1143    -0.0014    -5.8351 H       
  59 H59            7.7376    -0.9139    -2.4989 H       
  60 H60            8.5015    -1.5522    -3.9745 H       
  61 H61            9.4494    -0.5633    -2.8379 H       
  62 H62            5.2066     5.0035    -2.8382 H       
  63 H63            0.6225    -0.2908    -1.8399 H       
  64 H64           -0.6753    -0.2025    -0.6374 H       
  65 H65           -2.5460     0.5918    -3.4914 H       
  66 H66           -3.2261    -1.0109    -3.1644 H       
  67 H67           -2.8129    -0.2110    -0.6392 H       
  68 H68           -3.0677     2.2797    -2.3669 H       
  69 H69           -3.6359     2.2664    -0.6871 H       
  70 H70           -1.4364     1.6213     0.0560 H       
  71 H71           -1.4229     3.1528    -0.8379 H       
  72 H72           -4.6025    -1.9635    -1.5672 H       
  73 H73           -4.7695    -1.2121     0.0377 H       
  74 H74           -6.1511    -1.2308    -1.0843 H       
  75 H75            1.0675     4.9298    -3.3312 H       
  76 H76           -1.1714     4.7338    -4.3371 H       
  77 H77           -1.4291     3.7754    -6.5906 H       
  78 H78            0.5523     3.0139    -7.8386 H       
  79 H79            2.7921     3.2176    -6.8361 H       
  80 H80            7.2409     9.4779    -0.3409 H       
  81 H81            6.0282     8.3805     0.3614 H       
  82 H82            7.0082     9.4204     1.4228 H       
@<TRIPOS>BOND
   1    1   25 1
   2    1    3 1
   3    1   30 1
   4    1   41 1
   5    2    3 1
   6    2    4 am
   7    2    5 2
   8    4    7 1
   9    4   42 1
  10    6    7 1
  11    6   33 1
  12    6   43 1
  13    6   44 1
  14    7    8 1
  15    7   45 1
  16    8    9 1
  17    8   24 1
  18    8   46 1
  19    9   10 1
  20    9   47 1
  21    9   48 1
  22   10   11 am
  23   10   20 1
  24   11   12 1
  25   11   18 2
  26   11   19 2
  27   12   13 ar
  28   12   17 ar
  29   13   14 ar
  30   13   49 1
  31   14   15 ar
  32   14   50 1
  33   15   16 ar
  34   15   39 1
  35   16   17 ar
  36   16   51 1
  37   17   52 1
  38   20   21 1
  39   20   53 1
  40   20   54 1
  41   21   22 1
  42   21   23 1
  43   21   55 1
  44   22   56 1
  45   22   57 1
  46   22   58 1
  47   23   59 1
  48   23   60 1
  49   23   61 1
  50   24   62 1
  51   25   26 1
  52   25   63 1
  53   25   64 1
  54   26   27 1
  55   27   28 1
  56   27   65 1
  57   27   66 1
  58   28   29 1
  59   28   31 1
  60   28   67 1
  61   29   30 1
  62   29   68 1
  63   29   69 1
  64   30   70 1
  65   30   71 1
  66   31   32 1
  67   32   72 1
  68   32   73 1
  69   32   74 1
  70   33   34 ar
  71   33   38 ar
  72   34   35 ar
  73   34   75 1
  74   35   36 ar
  75   35   76 1
  76   36   37 ar
  77   36   77 1
  78   37   38 ar
  79   37   78 1
  80   38   79 1
  81   39   40 1
  82   40   80 1
  83   40   81 1
  84   40   82 1

#	End of record

