#	Name: ASD00069008
#	Creating user name:	WinNT
#	Creation time:	15. 06. 2019 18:29

#	Modifying user name:	WinNT
#	Modification time:	15. 06. 2019 18:29

#	Program:	/corina/corina34_cracker 3.40 0067  02.08.2006

@<TRIPOS>MOLECULE
ASD00069008
  39   43    0    0    0
SMALL
NO_CHARGES


@<TRIPOS>ATOM
   1 C1            -0.0108     1.3869     0.0187 C.ar    
   2 C2             0.0041    -0.0075     0.0076 C.ar    
   3 C3             1.2048    -0.6915    -0.0049 C.ar    
   4 C4             2.4035     0.0241    -0.0069 C.ar    
   5 C5             2.3785     1.4303     0.0038 C.ar    
   6 C6             1.1554     2.0967     0.0169 C.ar    
   7 C7             3.8194    -0.3635    -0.0185 C.2     
   8 N8             4.5313     0.7402    -0.0146 N.2     
   9 N9             3.6851     1.8533    -0.0010 N.pl3   
  10 C10            4.3468    -1.7421    -0.0317 C.2     
  11 N11            5.6746    -2.0779    -0.0424 N.pl3   
  12 C12            5.7468    -3.4577    -0.0527 C.ar    
  13 C13            4.4191    -3.9208    -0.0477 C.ar    
  14 N14            3.6144    -2.8304    -0.0292 N.2     
  15 C15            6.7950    -4.3672    -0.0658 C.ar    
  16 C16            6.5265    -5.7199    -0.0738 C.ar    
  17 C17            5.2163    -6.1770    -0.0689 C.ar    
  18 C18            4.1713    -5.2974    -0.0557 C.ar    
  19 N19           -1.2032    -0.7179     0.0097 N.am    
  20 C20           -1.3022    -1.8804    -0.6651 C.2     
  21 C21           -2.5600    -2.7045    -0.5657 C.3     
  22 O22           -0.3791    -2.2632    -1.3524 O.2     
  23 C23           -2.6108    -4.0140    -1.3554 C.3     
  24 C24           -2.4706    -4.0442     0.1679 C.3     
  25 H25           -0.9551     1.9110     0.0242 H       
  26 H26            1.2157    -1.7714    -0.0127 H       
  27 H27            1.1296     3.1764     0.0248 H       
  28 H28            3.9753     2.7788     0.0036 H       
  29 H29            6.4242    -1.4622    -0.0429 H       
  30 H30            7.8167    -4.0171    -0.0700 H       
  31 H31            7.3416    -6.4283    -0.0843 H       
  32 H32            5.0208    -7.2392    -0.0752 H       
  33 H33            3.1555    -5.6642    -0.0516 H       
  34 H34           -1.9679    -0.3732     0.4968 H       
  35 H35           -3.4865    -2.1385    -0.4695 H       
  36 H36           -3.5709    -4.3096    -1.7784 H       
  37 H37           -1.7345    -4.2794    -1.9468 H       
  38 H38           -1.5021    -4.3295     0.5786 H       
  39 H39           -3.3385    -4.3598     0.7470 H       
@<TRIPOS>BOND
   1    1    2 ar
   2    1    6 ar
   3    1   25 1
   4    2    3 ar
   5    2   19 1
   6    3    4 ar
   7    3   26 1
   8    4    5 ar
   9    4    7 1
  10    5    6 ar
  11    5    9 1
  12    6   27 1
  13    7    8 2
  14    7   10 1
  15    8    9 1
  16    9   28 1
  17   10   11 1
  18   10   14 2
  19   11   12 1
  20   11   29 1
  21   12   13 ar
  22   12   15 ar
  23   13   14 1
  24   13   18 ar
  25   15   16 ar
  26   15   30 1
  27   16   17 ar
  28   16   31 1
  29   17   18 ar
  30   17   32 1
  31   18   33 1
  32   19   20 am
  33   19   34 1
  34   20   21 1
  35   20   22 2
  36   21   23 1
  37   21   24 1
  38   21   35 1
  39   23   24 1
  40   23   36 1
  41   23   37 1
  42   24   38 1
  43   24   39 1

#	End of record

