#	Name: ASD01230256
#	Creating user name:	WinNT
#	Creation time:	15. 06. 2019 19:12

#	Modifying user name:	WinNT
#	Modification time:	15. 06. 2019 19:12

#	Program:	/corina/corina34_cracker 3.40 0067  02.08.2006

@<TRIPOS>MOLECULE
ASD01230256
  26   27    0    0    0
SMALL
NO_CHARGES


@<TRIPOS>ATOM
   1 C1            -0.0167     1.3781     0.0096 C.ar    
   2 C2             0.0021    -0.0041     0.0020 C.ar    
   3 C3             1.2066    -0.6861    -0.0131 C.ar    
   4 C4             2.4005     0.0100    -0.0203 C.ar    
   5 C5             2.3932     1.4018    -0.0128 C.ar    
   6 C6             1.1740     2.0889     0.0021 C.ar    
   7 N7             1.1566     3.4855     0.0092 N.pl3   
   8 N8            -1.6499     3.0523     1.4601 N.am    
   9 S9            -1.5548     2.2375     0.0216 S.o2    
  10 Cl10           1.2175    -2.4220    -0.0226 Cl      
  11 O11           -1.4697     3.2266    -0.9951 O.2     
  12 O12           -2.5696     1.2434     0.0557 O.2     
  13 C13            3.6725     2.1539    -0.0199 C.2     
  14 C14            4.8245     1.9493     0.8652 C.2     
  15 C15            5.7452     2.8540     0.4913 C.2     
  16 O16            5.2576     3.5774    -0.5280 O.3     
  17 C17            4.0211     3.1696    -0.8510 C.2     
  18 H18           -0.9272    -0.5543     0.0083 H       
  19 H19            3.3383    -0.5256    -0.0314 H       
  20 H20            0.3106     3.9600     0.0195 H       
  21 H21            1.9905     3.9810     0.0039 H       
  22 H22           -2.1448     3.8848     1.5141 H       
  23 H23           -1.2107     2.6972     2.2486 H       
  24 H24            4.9143     1.2201     1.6567 H       
  25 H25            6.7200     2.9788     0.9391 H       
  26 H26            3.4059     3.5813    -1.6373 H       
@<TRIPOS>BOND
   1    1    2 ar
   2    1    6 ar
   3    1    9 1
   4    2    3 ar
   5    2   18 1
   6    3    4 ar
   7    3   10 1
   8    4    5 ar
   9    4   19 1
  10    5    6 ar
  11    5   13 1
  12    6    7 1
  13    7   20 1
  14    7   21 1
  15    8    9 am
  16    8   22 1
  17    8   23 1
  18    9   11 2
  19    9   12 2
  20   13   14 1
  21   13   17 2
  22   14   15 2
  23   14   24 1
  24   15   16 1
  25   15   25 1
  26   16   17 1
  27   17   26 1

#	End of record

