#	Name: ASD02038341
#	Creating user name:	WinNT
#	Creation time:	15. 06. 2019 20:16

#	Modifying user name:	WinNT
#	Modification time:	15. 06. 2019 20:16

#	Program:	/corina/corina34_cracker 3.40 0067  02.08.2006

@<TRIPOS>MOLECULE
ASD02038341
  47   49    0    0    0
SMALL
NO_CHARGES


@<TRIPOS>ATOM
   1 C1            -0.6222     0.8153     0.0433 C.3     
   2 C2            -0.2586    -0.6820     0.0709 C.3     
   3 N3             1.2111    -0.6886     0.0197 N.am    
   4 C4             1.6554     0.5741    -0.0299 C.2     
   5 N5             0.6811     1.4933    -0.0206 N.am    
   6 C6             2.0551    -1.8860     0.0224 C.3     
   7 C7             2.2985    -2.3417    -1.4177 C.3     
   8 O8             3.0555    -1.3472    -2.1105 O.3     
   9 C9             3.3601    -1.5985    -3.4120 C.ar    
  10 C10            4.0925    -0.6750    -4.1431 C.ar    
  11 C11            4.4022    -0.9294    -5.4648 C.ar    
  12 C12            3.9806    -2.1103    -6.0614 C.ar    
  13 C13            3.2478    -3.0345    -5.3285 C.ar    
  14 C14            2.9431    -2.7806    -4.0056 C.ar    
  15 N15            4.2936    -2.3686    -7.4007 N.am    
  16 O16            2.8362     0.8600    -0.0786 O.2     
  17 C17            0.8732     2.8793    -0.0647 C.ar    
  18 C18           -0.2194     3.7297    -0.1683 C.ar    
  19 C19            2.1564     3.4060     0.0008 C.ar    
  20 C20            2.3431     4.7746    -0.0430 C.ar    
  21 C21            1.2513     5.6201    -0.1517 C.ar    
  22 C22           -0.0279     5.0971    -0.2117 C.ar    
  23 Cl23           3.9467     5.4344     0.0387 Cl      
  24 Cl24           1.4883     7.3390    -0.2054 Cl      
  25 S25            3.1272    -2.2214    -8.5669 S.o2    
  26 O26            3.8034    -2.5253    -9.7792 O.2     
  27 O27            2.0598    -3.0347    -8.0996 O.2     
  28 C28            2.6597    -0.4693    -8.5208 C.3     
  29 H29           -1.2182     1.0480    -0.8392 H       
  30 H30           -1.1556     1.0963     0.9514 H       
  31 H31           -0.6113    -1.1444     0.9928 H       
  32 H32           -0.6740    -1.1927    -0.7978 H       
  33 H33            3.0092    -1.6569     0.4972 H       
  34 H34            1.5557    -2.6813     0.5757 H       
  35 H35            2.8512    -3.2812    -1.4130 H       
  36 H36            1.3419    -2.4855    -1.9199 H       
  37 H37            4.4203     0.2434    -3.6789 H       
  38 H38            4.9719    -0.2099    -6.0342 H       
  39 H39            2.9195    -3.9531    -5.7918 H       
  40 H40            2.3735    -3.4995    -3.4353 H       
  41 H41            5.1939    -2.6340    -7.6459 H       
  42 H42           -1.2186     3.3223    -0.2152 H       
  43 H43            3.0076     2.7467     0.0862 H       
  44 H44           -0.8776     5.7584    -0.2964 H       
  45 H45            3.5098     0.1417    -8.8244 H       
  46 H46            1.8269    -0.2974    -9.2027 H       
  47 H47            2.3615    -0.1993    -7.5078 H       
@<TRIPOS>BOND
   1    1    2 1
   2    1    5 1
   3    1   29 1
   4    1   30 1
   5    2    3 1
   6    2   31 1
   7    2   32 1
   8    3    4 am
   9    3    6 1
  10    4    5 am
  11    4   16 2
  12    5   17 1
  13    6    7 1
  14    6   33 1
  15    6   34 1
  16    7    8 1
  17    7   35 1
  18    7   36 1
  19    8    9 1
  20    9   10 ar
  21    9   14 ar
  22   10   11 ar
  23   10   37 1
  24   11   12 ar
  25   11   38 1
  26   12   13 ar
  27   12   15 1
  28   13   14 ar
  29   13   39 1
  30   14   40 1
  31   15   25 am
  32   15   41 1
  33   17   18 ar
  34   17   19 ar
  35   18   22 ar
  36   18   42 1
  37   19   20 ar
  38   19   43 1
  39   20   21 ar
  40   20   23 1
  41   21   22 ar
  42   21   24 1
  43   22   44 1
  44   25   26 2
  45   25   27 2
  46   25   28 1
  47   28   45 1
  48   28   46 1
  49   28   47 1

#	End of record

