#	Name: ASD02670004
#	Creating user name:	WinNT
#	Creation time:	15. 06. 2019 20:26

#	Modifying user name:	WinNT
#	Modification time:	15. 06. 2019 20:26

#	Program:	/corina/corina34_cracker 3.40 0067  02.08.2006

@<TRIPOS>MOLECULE
ASD02670004
  33   33    0    0    0
SMALL
NO_CHARGES


@<TRIPOS>ATOM
   1 C1            -0.0167     1.3781     0.0096 C.ar    
   2 C2             0.0021    -0.0041     0.0020 C.ar    
   3 C3            -1.1855    -0.7115     0.0095 C.ar    
   4 C4            -2.3919    -0.0367     0.0251 C.ar    
   5 C5            -2.4106     1.3455     0.0336 C.ar    
   6 C6            -1.2230     2.0529     0.0305 C.ar    
   7 C7            -3.6866    -0.8078     0.0322 C.3     
   8 C8            -4.1113    -1.0780     1.4771 C.3     
   9 C9            -5.4856    -1.7503     1.4874 C.3     
  10 C10           -3.0882    -1.9984     2.1457 C.3     
  11 C11            1.2780     2.1493     0.0014 C.3     
  12 C12            1.3344     3.0233    -1.2250 C.2     
  13 O13            2.4034     3.8052    -1.4434 O.3     
  14 O14            0.4173     3.0203    -2.0116 O.2     
  15 C15            1.3591     3.0232     1.2546 C.3     
  16 H16            0.9446    -0.5313    -0.0101 H       
  17 H17           -1.1709    -1.7913     0.0029 H       
  18 H18           -3.3531     1.8728     0.0454 H       
  19 H19           -1.2376     3.1328     0.0372 H       
  20 H20           -4.4589    -0.2259    -0.4707 H       
  21 H21           -3.5482    -1.7551    -0.4890 H       
  22 H22           -4.1636    -0.1358     2.0226 H       
  23 H23           -5.4333    -2.6925     0.9419 H       
  24 H24           -5.7882    -1.9428     2.5168 H       
  25 H25           -6.2145    -1.0946     1.0111 H       
  26 H26           -2.1091    -1.5194     2.1384 H       
  27 H27           -3.3908    -2.1909     3.1751 H       
  28 H28           -3.0359    -2.9406     1.6002 H       
  29 H29            2.1160     1.4524    -0.0103 H       
  30 H30            2.3940     4.3481    -2.2435 H       
  31 H31            0.5211     3.7202     1.2664 H       
  32 H32            1.3183     2.3911     2.1417 H       
  33 H33            2.2955     3.5810     1.2487 H       
@<TRIPOS>BOND
   1    1    2 ar
   2    1   11 1
   3    1    6 ar
   4    2    3 ar
   5    2   16 1
   6    3    4 ar
   7    3   17 1
   8    4    5 ar
   9    4    7 1
  10    5    6 ar
  11    5   18 1
  12    6   19 1
  13    7    8 1
  14    7   20 1
  15    7   21 1
  16    8    9 1
  17    8   10 1
  18    8   22 1
  19    9   23 1
  20    9   24 1
  21    9   25 1
  22   10   26 1
  23   10   27 1
  24   10   28 1
  25   11   12 1
  26   11   15 1
  27   11   29 1
  28   12   13 1
  29   12   14 2
  30   13   30 1
  31   15   31 1
  32   15   32 1
  33   15   33 1

#	End of record

