#	Name: ASD01901570
#	Creating user name:	WinNT
#	Creation time:	15. 06. 2019 19:54

#	Modifying user name:	WinNT
#	Modification time:	15. 06. 2019 19:54

#	Program:	/corina/corina34_cracker 3.40 0067  02.08.2006

@<TRIPOS>MOLECULE
ASD01901570
  49   52    0    0    0
SMALL
NO_CHARGES


@<TRIPOS>ATOM
   1 C1            -0.0178     1.4608     0.0101 C.3     
   2 N2             0.0021    -0.0041     0.0020 N.am    
   3 C3             0.0055    -0.6596    -1.1700 C.2     
   4 O4             0.0972    -0.0266    -2.2034 O.2     
   5 N5            -0.0896    -1.9984    -1.2276 N.am    
   6 C6            -0.4309    -2.7160    -0.1417 C.2     
   7 O7            -0.4334    -3.9274    -0.1914 O.2     
   8 C8            -0.8098    -2.0128     1.1374 C.3     
   9 C9             0.0240    -0.7326     1.2718 C.3     
  10 C10           -0.5678     0.1474     2.3747 C.3     
  11 C11            1.4459    -1.0881     1.6222 C.2     
  12 C12            1.8585    -2.2094     2.3494 C.2     
  13 N13            3.1627    -2.1750     2.4487 N.2     
  14 N14            3.6219    -1.0289     1.7869 N.pl3   
  15 H15            4.5474    -0.7514     1.7019 H       
  16 C16            2.5496    -0.3821     1.2839 C.2     
  17 C17            0.1703    -2.6580    -2.4378 C.ar    
  18 C18           -0.8635    -2.8837    -3.3410 C.ar    
  19 F19           -2.1155    -2.4669    -3.0514 F       
  20 C20           -0.6115    -3.5324    -4.5327 C.ar    
  21 C21            0.6843    -3.9628    -4.8318 C.ar    
  22 C22            1.7206    -3.7344    -3.9218 C.ar    
  23 C23            1.4623    -3.0800    -2.7346 C.ar    
  24 F24            2.4643    -2.8535    -1.8572 F       
  25 C25            0.9496    -4.6367    -6.0672 C.1     
  26 C26            1.1670    -5.1891    -7.0800 C.1     
  27 C27            1.4323    -5.8630    -8.3154 C.ar    
  28 C28            0.3981    -6.0873    -9.2283 C.ar    
  29 C29            0.6599    -6.7367   -10.4160 C.ar    
  30 C30            1.9454    -7.1668   -10.7055 C.ar    
  31 F31            2.1956    -7.8025   -11.8710 F       
  32 C32            2.9754    -6.9468    -9.8043 C.ar    
  33 C33            2.7274    -6.2939    -8.6156 C.ar    
  34 H34            1.0048     1.8381     0.0023 H       
  35 H35           -0.5450     1.8219    -0.8730 H       
  36 H36           -0.5280     1.8123     0.9069 H       
  37 H37           -1.8698    -1.7598     1.1137 H       
  38 H38           -0.6095    -2.6670     1.9859 H       
  39 H39           -1.5962     0.4050     2.1213 H       
  40 H40           -0.5516    -0.3949     3.3201 H       
  41 H41            0.0226     1.0588     2.4684 H       
  42 H42            1.2122    -2.9720     2.7583 H       
  43 H43            2.5687     0.5361     0.7155 H       
  44 H44           -1.4146    -3.7075    -5.2333 H       
  45 H45            2.7229    -4.0659    -4.1495 H       
  46 H46           -0.6040    -5.7530    -9.0037 H       
  47 H47           -0.1385    -6.9110   -11.1222 H       
  48 H48            3.9749    -7.2842   -10.0355 H       
  49 H49            3.5316    -6.1191    -7.9162 H       
@<TRIPOS>BOND
   1    1    2 1
   2    1   34 1
   3    1   35 1
   4    1   36 1
   5    2    9 1
   6    2    3 am
   7    3    4 2
   8    3    5 am
   9    5    6 am
  10    5   17 1
  11    6    7 2
  12    6    8 1
  13    8    9 1
  14    8   37 1
  15    8   38 1
  16    9   10 1
  17    9   11 1
  18   10   39 1
  19   10   40 1
  20   10   41 1
  21   11   16 2
  22   11   12 1
  23   12   13 2
  24   12   42 1
  25   13   14 1
  26   14   15 1
  27   14   16 1
  28   16   43 1
  29   17   23 ar
  30   17   18 ar
  31   18   19 1
  32   18   20 ar
  33   20   21 ar
  34   20   44 1
  35   21   22 ar
  36   21   25 1
  37   22   23 ar
  38   22   45 1
  39   23   24 1
  40   25   26 3
  41   26   27 1
  42   27   33 ar
  43   27   28 ar
  44   28   29 ar
  45   28   46 1
  46   29   30 ar
  47   29   47 1
  48   30   31 1
  49   30   32 ar
  50   32   33 ar
  51   32   48 1
  52   33   49 1

#	End of record

