#	Name: ASD01913742
#	Creating user name:	WinNT
#	Creation time:	15. 06. 2019 20:02

#	Modifying user name:	WinNT
#	Modification time:	15. 06. 2019 20:02

#	Program:	/corina/corina34_cracker 3.40 0067  02.08.2006

@<TRIPOS>MOLECULE
ASD01913742
  43   45    0    0    0
SMALL
NO_CHARGES


@<TRIPOS>ATOM
   1 O1            -0.0074     1.3518     0.0798 O.3     
   2 C2             0.0091    -0.0029     0.0600 C.ar    
   3 N3             1.1688    -0.6410     0.0272 N.ar    
   4 C4             1.2371    -1.9557     0.0068 C.ar    
   5 C5             0.0751    -2.7281     0.0189 C.ar    
   6 C6            -1.1702    -2.0829     0.0535 C.ar    
   7 C7            -1.1931    -0.7038     0.0800 C.ar    
   8 C8             0.1548    -4.2017    -0.0050 C.2     
   9 N9             1.3565    -4.8110    -0.0386 N.am    
  10 O10           -0.8636    -4.8659     0.0058 O.2     
  11 C11            1.2576     2.0163     0.0637 C.3     
  12 C12            1.0420     3.5076     0.0895 C.ar    
  13 C13            0.9675     4.1743     1.2982 C.ar    
  14 C14            0.7697     5.5422     1.3219 C.ar    
  15 C15            0.6469     6.2435     0.1370 C.ar    
  16 C16            0.7224     5.5769    -1.0717 C.ar    
  17 C17            0.9245     4.2096    -1.0955 C.ar    
  18 C18            1.4373    -6.2059     0.0579 C.ar    
  19 C19            2.4318    -6.8973    -0.6303 C.ar    
  20 C20            2.5068    -8.2771    -0.5311 C.ar    
  21 C21            1.5959    -8.9649     0.2490 C.ar    
  22 C22            0.6082    -8.2794     0.9321 C.ar    
  23 C23            0.5305    -6.9025     0.8437 C.ar    
  24 O24            3.3265    -6.2195    -1.3979 O.3     
  25 C25            4.3185    -6.9940    -2.0747 C.3     
  26 H26            2.2016    -2.4409    -0.0198 H       
  27 H27           -2.0881    -2.6519     0.0636 H       
  28 H28           -2.1337    -0.1738     0.1073 H       
  29 H29            2.1654    -4.2835    -0.1297 H       
  30 H30            1.8361     1.7176     0.9379 H       
  31 H31            1.7999     1.7432    -0.8415 H       
  32 H32            1.0634     3.6264     2.2239 H       
  33 H33            0.7108     6.0630     2.2662 H       
  34 H34            0.4917     7.3121     0.1556 H       
  35 H35            0.6261     6.1247    -1.9974 H       
  36 H36            0.9834     3.6888    -2.0398 H       
  37 H37            3.2768    -8.8157    -1.0636 H       
  38 H38            1.6557   -10.0406     0.3249 H       
  39 H39           -0.1016    -8.8211     1.5397 H       
  40 H40           -0.2420    -6.3696     1.3783 H       
  41 H41            4.9661    -6.3323    -2.6499 H       
  42 H42            4.9145    -7.5401    -1.3435 H       
  43 H43            3.8317    -7.7005    -2.7471 H       
@<TRIPOS>BOND
   1    1    2 1
   2    1   11 1
   3    2    3 ar
   4    2    7 ar
   5    3    4 ar
   6    4    5 ar
   7    4   26 1
   8    5    6 ar
   9    5    8 1
  10    6    7 ar
  11    6   27 1
  12    7   28 1
  13    8    9 am
  14    8   10 2
  15    9   18 1
  16    9   29 1
  17   11   12 1
  18   11   30 1
  19   11   31 1
  20   12   13 ar
  21   12   17 ar
  22   13   14 ar
  23   13   32 1
  24   14   15 ar
  25   14   33 1
  26   15   16 ar
  27   15   34 1
  28   16   17 ar
  29   16   35 1
  30   17   36 1
  31   18   19 ar
  32   18   23 ar
  33   19   20 ar
  34   19   24 1
  35   20   21 ar
  36   20   37 1
  37   21   22 ar
  38   21   38 1
  39   22   23 ar
  40   22   39 1
  41   23   40 1
  42   24   25 1
  43   25   41 1
  44   25   42 1
  45   25   43 1

#	End of record

