#	Name: ASD01816276
#	Creating user name:	WinNT
#	Creation time:	15. 06. 2019 19:34

#	Modifying user name:	WinNT
#	Modification time:	15. 06. 2019 19:34

#	Program:	/corina/corina34_cracker 3.40 0067  02.08.2006

@<TRIPOS>MOLECULE
ASD01816276
  57   63    0    0    0
SMALL
NO_CHARGES


@<TRIPOS>ATOM
   1 C1            -0.0167     1.3813     0.0096 C.ar    
   2 C2             0.0021    -0.0041     0.0020 C.ar    
   3 C3             1.1983    -0.6909    -0.0131 C.ar    
   4 C4             2.4015     0.0059    -0.0208 C.ar    
   5 C5             2.3790     1.4106    -0.0130 C.ar    
   6 C6             1.1663     2.0917     0.0022 C.ar    
   7 N7             3.6053    -0.6772    -0.0354 N.pl3   
   8 C8             4.7970    -0.0586    -0.0434 C.2     
   9 C9             4.8999     1.3103    -0.0371 C.2     
  10 C10            3.6670     2.1301    -0.0215 C.2     
  11 C11            5.9971     2.2730    -0.0423 C.2     
  12 N12            5.4246     3.4961    -0.0308 N.am    
  13 N13            4.0323     3.3800    -0.0185 N.2     
  14 O14            7.1913     2.0229    -0.0543 O.2     
  15 C15            3.5779    -2.1419    -0.0420 C.3     
  16 C16            3.5550    -2.6375    -1.4650 C.ar    
  17 C17            4.7425    -2.8868    -2.1280 C.ar    
  18 C18            4.7248    -3.3407    -3.4324 C.ar    
  19 C19            3.5129    -3.5470    -4.0776 C.ar    
  20 C20            2.3222    -3.2963    -3.4092 C.ar    
  21 C21            2.3463    -2.8475    -2.1031 C.ar    
  22 N22            3.4916    -4.0071    -5.4017 N.pl3   
  23 C23            2.3865    -4.2484    -6.1427 C.2     
  24 C24            2.7927    -4.6778    -7.3599 C.2     
  25 C25            4.1917    -4.7001    -7.3641 C.2     
  26 N26            4.6115    -4.2927    -6.1933 N.2     
  27 C27            6.1243     4.7044    -0.0303 C.ar    
  28 C28            7.0550     4.9694    -1.0118 C.ar    
  29 C29            7.7582     6.1705    -1.0200 C.ar    
  30 C30            7.5477     7.1150    -0.0622 C.ar    
  31 C31            6.6069     6.8842     0.9562 C.ar    
  32 C32            5.8808     5.6681     0.9720 C.ar    
  33 C33            6.3688     7.8411     1.9580 C.ar    
  34 C34            5.4505     7.5849     2.9295 C.ar    
  35 C35            4.7407     6.3860     2.9471 C.ar    
  36 C36            4.9418     5.4389     1.9896 C.ar    
  37 H37           -0.9602     1.9068     0.0169 H       
  38 H38           -0.9289    -0.5515     0.0083 H       
  39 H39            1.2003    -1.7709    -0.0185 H       
  40 H40            1.1506     3.1715     0.0084 H       
  41 H41            5.6982    -0.6536    -0.0548 H       
  42 H42            4.4657    -2.5242     0.4616 H       
  43 H43            2.6862    -2.4910     0.4787 H       
  44 H44            5.6849    -2.7261    -1.6255 H       
  45 H45            5.6526    -3.5345    -3.9500 H       
  46 H46            1.3779    -3.4555    -3.9087 H       
  47 H47            1.4204    -2.6523    -1.5826 H       
  48 H48            1.3634    -4.1217    -5.8206 H       
  49 H49            2.1504    -4.9544    -8.1830 H       
  50 H50            4.8175    -4.9979    -8.1924 H       
  51 H51            7.2410     4.2366    -1.7830 H       
  52 H52            8.4830     6.3563    -1.7988 H       
  53 H53            8.1035     8.0407    -0.0848 H       
  54 H54            6.9119     8.7746     1.9570 H       
  55 H55            5.2697     8.3217     3.6982 H       
  56 H56            4.0175     6.2072     3.7290 H       
  57 H57            4.3843     4.5143     2.0154 H       
@<TRIPOS>BOND
   1    1    2 ar
   2    1    6 ar
   3    1   37 1
   4    2    3 ar
   5    2   38 1
   6    3    4 ar
   7    3   39 1
   8    4    5 ar
   9    4    7 1
  10    5    6 ar
  11    5   10 1
  12    6   40 1
  13    7    8 1
  14    7   15 1
  15    8    9 2
  16    8   41 1
  17    9   10 1
  18    9   11 1
  19   10   13 2
  20   11   12 am
  21   11   14 2
  22   12   13 1
  23   12   27 1
  24   15   16 1
  25   15   42 1
  26   15   43 1
  27   16   17 ar
  28   16   21 ar
  29   17   18 ar
  30   17   44 1
  31   18   19 ar
  32   18   45 1
  33   19   20 ar
  34   19   22 1
  35   20   21 ar
  36   20   46 1
  37   21   47 1
  38   22   23 1
  39   22   26 1
  40   23   24 2
  41   23   48 1
  42   24   25 1
  43   24   49 1
  44   25   26 2
  45   25   50 1
  46   27   28 ar
  47   27   32 ar
  48   28   29 ar
  49   28   51 1
  50   29   30 ar
  51   29   52 1
  52   30   31 ar
  53   30   53 1
  54   31   32 ar
  55   31   33 ar
  56   32   36 ar
  57   33   34 ar
  58   33   54 1
  59   34   35 ar
  60   34   55 1
  61   35   36 ar
  62   35   56 1
  63   36   57 1

#	End of record

