#	Name: ASD00170448
#	Creating user name:	WinNT
#	Creation time:	15. 06. 2019 18:32

#	Modifying user name:	WinNT
#	Modification time:	15. 06. 2019 18:32

#	Program:	/corina/corina34_cracker 3.40 0067  02.08.2006

@<TRIPOS>MOLECULE
ASD00170448
  51   54    0    0    0
SMALL
NO_CHARGES


@<TRIPOS>ATOM
   1 C1            -0.0253     1.6158     0.5944 C.2     
   2 C2             0.2809     0.2799     0.4519 C.2     
   3 C3            -0.8913    -0.5613     0.4071 C.2     
   4 C4            -2.0342     0.1281     0.5131 C.2     
   5 S5            -1.7118     1.8447     0.6791 S.3     
   6 C6            -0.8347    -2.0596     0.2559 C.3     
   7 N7             0.9064     2.6289     0.6648 N.pl3   
   8 C8             1.6488    -0.2316     0.3561 C.2     
   9 C9             2.1884    -0.6591    -0.9526 C.ar    
  10 O10            2.3426    -0.3052     1.3540 O.2     
  11 C11            3.5210    -1.0604    -1.0640 C.ar    
  12 C12            4.0183    -1.4584    -2.2870 C.ar    
  13 C13            3.1987    -1.4606    -3.4036 C.ar    
  14 C14            1.8757    -1.0635    -3.2993 C.ar    
  15 C15            1.3656    -0.6685    -2.0806 C.ar    
  16 Cl16           3.8321    -1.9624    -4.9400 Cl      
  17 C17           -3.3831    -0.4752     0.4978 C.ar    
  18 C18           -4.2827    -0.2073     1.5312 C.ar    
  19 C19           -5.5404    -0.7738     1.5107 C.ar    
  20 C20           -5.9109    -1.6059     0.4692 C.ar    
  21 C21           -5.0239    -1.8759    -0.5579 C.ar    
  22 C22           -3.7654    -1.3110    -0.5530 C.ar    
  23 N23           -0.4392    -2.6644     1.5303 N.pl3   
  24 C24           -1.4139    -3.1553     2.4030 C.ar    
  25 C25            0.9782    -2.7545     1.8897 C.3     
  26 C26           -1.0524    -3.6108     3.6643 C.ar    
  27 C27           -2.0176    -4.0957     4.5255 C.ar    
  28 C28           -3.3436    -4.1286     4.1329 C.ar    
  29 C29           -3.7075    -3.6755     2.8755 C.ar    
  30 C30           -2.7466    -3.1832     2.0127 C.ar    
  31 Cl31          -4.5536    -4.7392     5.2176 Cl      
  32 Cl32          -5.3725    -3.7188     2.3861 Cl      
  33 H33           -1.8168    -2.4329    -0.0341 H       
  34 H34           -0.1058    -2.3200    -0.5116 H       
  35 H35            1.8527     2.4169     0.6878 H       
  36 H36            0.6159     3.5540     0.6915 H       
  37 H37            4.1611    -1.0587    -0.1941 H       
  38 H38            5.0491    -1.7687    -2.3745 H       
  39 H39            1.2415    -1.0670    -4.1734 H       
  40 H40            0.3339    -0.3594    -2.0003 H       
  41 H41           -3.9946     0.4417     2.3449 H       
  42 H42           -6.2372    -0.5677     2.3097 H       
  43 H43           -6.8967    -2.0468     0.4580 H       
  44 H44           -5.3193    -2.5265    -1.3678 H       
  45 H45           -3.0740    -1.5226    -1.3553 H       
  46 H46            1.2812    -1.8427     2.4043 H       
  47 H47            1.1328    -3.6108     2.5462 H       
  48 H48            1.5751    -2.8772     0.9860 H       
  49 H49           -0.0173    -3.5862     3.9714 H       
  50 H50           -1.7365    -4.4499     5.5063 H       
  51 H51           -3.0303    -2.8300     1.0324 H       
@<TRIPOS>BOND
   1    1    2 2
   2    1    7 1
   3    1    5 1
   4    2    3 1
   5    2    8 1
   6    3    4 2
   7    3    6 1
   8    4    5 1
   9    4   17 1
  10    6   23 1
  11    6   33 1
  12    6   34 1
  13    7   35 1
  14    7   36 1
  15    8    9 1
  16    8   10 2
  17    9   11 ar
  18    9   15 ar
  19   11   12 ar
  20   11   37 1
  21   12   13 ar
  22   12   38 1
  23   13   14 ar
  24   13   16 1
  25   14   15 ar
  26   14   39 1
  27   15   40 1
  28   17   18 ar
  29   17   22 ar
  30   18   19 ar
  31   18   41 1
  32   19   20 ar
  33   19   42 1
  34   20   21 ar
  35   20   43 1
  36   21   22 ar
  37   21   44 1
  38   22   45 1
  39   23   24 1
  40   23   25 1
  41   24   26 ar
  42   24   30 ar
  43   25   46 1
  44   25   47 1
  45   25   48 1
  46   26   27 ar
  47   26   49 1
  48   27   28 ar
  49   27   50 1
  50   28   29 ar
  51   28   31 1
  52   29   30 ar
  53   29   32 1
  54   30   51 1

#	End of record

