#	Name: ASD01913544
#	Creating user name:	WinNT
#	Creation time:	15. 06. 2019 20:01

#	Modifying user name:	WinNT
#	Modification time:	15. 06. 2019 20:01

#	Program:	/corina/corina34_cracker 3.40 0067  02.08.2006

@<TRIPOS>MOLECULE
ASD01913544
  31   33    0    0    0
SMALL
NO_CHARGES


@<TRIPOS>ATOM
   1 C1             0.6604     0.4256    -1.0389 C.ar    
   2 C2             0.0033    -0.0127     0.1063 C.ar    
   3 C3             0.5521     0.2720     1.3487 C.ar    
   4 N4             1.6796     0.9476     1.4470 N.ar    
   5 C5             2.3271     1.3771     0.3815 C.ar    
   6 C6             1.8429     1.1325    -0.8897 C.ar    
   7 C7            -1.0860    -2.0599    -0.1027 C.ar    
   8 C8             0.1374    -2.7175    -0.0103 C.ar    
   9 C9             0.1753    -4.0958    -0.1239 C.ar    
  10 N10           -0.9258    -4.7898    -0.3177 N.ar    
  11 C11           -2.1146    -4.2043    -0.4120 C.ar    
  12 C12           -2.2335    -2.8224    -0.3075 C.ar    
  13 C13           -3.3243    -5.0305    -0.6309 C.2     
  14 N14           -3.2160    -6.3700    -0.7335 N.am    
  15 O15           -1.1597    -0.7092     0.0098 O.3     
  16 C16           -4.3503    -7.1446    -0.9387 C.2     
  17 O17           -4.4144    -4.5005    -0.7180 O.2     
  18 N18           -4.3571    -8.4362    -1.0512 N.2     
  19 C19           -5.5285    -9.0130    -1.2431 C.2     
  20 C20           -6.5608    -8.1688    -1.2953 C.2     
  21 S21           -5.9418    -6.5345    -1.0725 S.3     
  22 H22            0.2611     0.2162    -2.0202 H       
  23 H23            0.0501    -0.0632     2.2442 H       
  24 H24            3.2483     1.9275     0.5039 H       
  25 H25            2.3799     1.4881    -1.7567 H       
  26 H26            1.0474    -2.1577     0.1479 H       
  27 H27            1.1225    -4.6097    -0.0529 H       
  28 H28           -3.2006    -2.3479    -0.3841 H       
  29 H29           -2.3459    -6.7930    -0.6640 H       
  30 H30           -5.6425   -10.0817    -1.3499 H       
  31 H31           -7.5955    -8.4404    -1.4442 H       
@<TRIPOS>BOND
   1    1    2 ar
   2    1    6 ar
   3    1   22 1
   4    2    3 ar
   5    2   15 1
   6    3    4 ar
   7    3   23 1
   8    4    5 ar
   9    5    6 ar
  10    5   24 1
  11    6   25 1
  12    7    8 ar
  13    7   12 ar
  14    7   15 1
  15    8    9 ar
  16    8   26 1
  17    9   10 ar
  18    9   27 1
  19   10   11 ar
  20   11   12 ar
  21   11   13 1
  22   12   28 1
  23   13   14 am
  24   13   17 2
  25   14   16 1
  26   14   29 1
  27   16   18 2
  28   16   21 1
  29   18   19 1
  30   19   20 2
  31   19   30 1
  32   20   21 1
  33   20   31 1

#	End of record

