#	Name: ASD04882431
#	Creating user name:	WinNT
#	Creation time:	15. 06. 2019 20:54

#	Modifying user name:	WinNT
#	Modification time:	15. 06. 2019 20:54

#	Program:	/corina/corina34_cracker 3.40 0067  02.08.2006

@<TRIPOS>MOLECULE
ASD04882431
  82   86    0    0    0
SMALL
NO_CHARGES


@<TRIPOS>ATOM
   1 C1            -0.0215     1.4012    -0.0092 C.ar    
   2 C2            -0.0115     0.0036    -0.0053 C.ar    
   3 C3            -1.2093    -0.7019    -0.0165 C.ar    
   4 C4            -2.4096    -0.0269    -0.0320 C.ar    
   5 C5            -2.4267     1.3707    -0.0364 C.ar    
   6 C6            -1.2239     2.0825    -0.0185 C.ar    
   7 N7             1.1998    -0.6830     0.0094 N.3     
   8 C8             1.3071    -1.5363     1.2011 C.3     
   9 C9             1.3723    -1.4731    -1.2176 C.3     
  10 C10            2.7461    -2.1473    -1.1982 C.3     
  11 N11            2.8534    -3.0005    -0.0065 N.3     
  12 C12            2.6809    -2.2105     1.2206 C.3     
  13 C13           -3.7126     2.0937    -0.0540 C.2     
  14 O14           -3.7265     3.3095    -0.0578 O.2     
  15 N15           -4.8719     1.4064    -0.0657 N.am    
  16 N16            1.1866     2.1110     0.0021 N.am    
  17 C17            1.2296     3.3600     0.5068 C.2     
  18 O18            0.2069     3.8985     0.8853 O.2     
  19 C19            2.5162     4.0733     0.5999 C.2     
  20 N20            3.7329     3.5991     0.2178 N.2     
  21 C21            4.6245     4.5142     0.4546 C.2     
  22 O22            4.0246     5.5882     0.9871 O.3     
  23 C23            2.7098     5.3324     1.0790 C.2     
  24 C24            6.1000     4.3876     0.1756 C.3     
  25 C25            4.0684    -3.6893     0.0082 C.ar    
  26 C26            4.0812    -5.0781     0.0122 C.ar    
  27 C27            5.2670    -2.9867     0.0133 C.ar    
  28 C28            6.4664    -3.6707     0.0279 C.ar    
  29 C29            6.4755    -5.0537     0.0371 C.ar    
  30 C30            5.2845    -5.7561     0.0268 C.ar    
  31 C31            2.7837    -5.8445     0.0010 C.3     
  32 C32            6.7251     5.3953    -0.7913 C.3     
  33 C33            7.0167     5.4910     0.7076 C.3     
  34 C34           -6.1489     2.1243    -0.0830 C.3     
  35 C35           -7.3003     1.1168    -0.0937 C.3     
  36 C36           -8.6338     1.8666    -0.1118 C.3     
  37 N37           -9.7363     0.9019    -0.1220 N.am    
  38 C38          -11.0120     1.3365    -0.1385 C.2     
  39 N39          -12.0262     0.4490    -0.1479 N.am    
  40 O40          -11.2478     2.5293    -0.1450 O.2     
  41 C41          -13.4128     0.9214    -0.1658 C.3     
  42 C42          -14.3465    -0.2614    -0.1733 C.2     
  43 C43          -15.2741    -0.3696     0.7454 C.2     
  44 H44           -1.1986    -1.7819    -0.0134 H       
  45 H45           -3.3385    -0.5778    -0.0410 H       
  46 H46           -1.2340     3.1624    -0.0215 H       
  47 H47            1.1885    -0.9265     2.0968 H       
  48 H48            0.5283    -2.2984     1.1740 H       
  49 H49            0.5942    -2.2345    -1.2722 H       
  50 H50            1.3013    -0.8173    -2.0854 H       
  51 H51            2.8647    -2.7571    -2.0939 H       
  52 H52            3.5249    -1.3851    -1.1711 H       
  53 H53            3.4590    -1.4490     1.2752 H       
  54 H54            2.7519    -2.8663     2.0883 H       
  55 H55           -4.8608     0.4365    -0.0626 H       
  56 H56            1.9919     1.7035    -0.3534 H       
  57 H57            1.9512     5.9967     1.4659 H       
  58 H58            6.4908     3.3702     0.1643 H       
  59 H59            5.2606    -1.9067     0.0054 H       
  60 H60            7.3985    -3.1252     0.0318 H       
  61 H61            7.4150    -5.5863     0.0479 H       
  62 H62            5.2951    -6.8360     0.0341 H       
  63 H63            2.4814    -6.0321    -1.0293 H       
  64 H64            2.9181    -6.7941     0.5188 H       
  65 H65            2.0130    -5.2615     0.5054 H       
  66 H66            7.5274     5.0408    -1.4384 H       
  67 H67            6.0691     6.1497    -1.2255 H       
  68 H68            6.5526     6.3085     1.2595 H       
  69 H69            8.0109     5.1996     1.0466 H       
  70 H70           -6.2244     2.7530     0.8042 H       
  71 H71           -6.2032     2.7476    -0.9756 H       
  72 H72           -7.2248     0.4881    -0.9809 H       
  73 H73           -7.2460     0.4936     0.7989 H       
  74 H74           -8.7093     2.4952     0.7754 H       
  75 H75           -8.6882     2.4898    -1.0044 H       
  76 H76           -9.5482    -0.0497    -0.1168 H       
  77 H77          -11.8381    -0.5026    -0.1427 H       
  78 H78          -13.6016     1.5277     0.7201 H       
  79 H79          -13.5804     1.5223    -1.0597 H       
  80 H80          -14.2509    -1.0200    -0.9361 H       
  81 H81          -15.9432    -1.2173     0.7400 H       
  82 H82          -15.3697     0.3890     1.5081 H       
@<TRIPOS>BOND
   1    1    2 ar
   2    1   16 1
   3    1    6 ar
   4    2    3 ar
   5    2    7 1
   6    3    4 ar
   7    3   44 1
   8    4    5 ar
   9    4   45 1
  10    5    6 ar
  11    5   13 1
  12    6   46 1
  13    7    8 1
  14    7    9 1
  15    8   12 1
  16    8   47 1
  17    8   48 1
  18    9   10 1
  19    9   49 1
  20    9   50 1
  21   10   11 1
  22   10   51 1
  23   10   52 1
  24   11   12 1
  25   11   25 1
  26   12   53 1
  27   12   54 1
  28   13   14 2
  29   13   15 am
  30   15   34 1
  31   15   55 1
  32   16   17 am
  33   16   56 1
  34   17   18 2
  35   17   19 1
  36   19   20 1
  37   19   23 2
  38   20   21 2
  39   21   22 1
  40   21   24 1
  41   22   23 1
  42   23   57 1
  43   24   32 1
  44   24   33 1
  45   24   58 1
  46   25   26 ar
  47   25   27 ar
  48   26   31 1
  49   26   30 ar
  50   27   28 ar
  51   27   59 1
  52   28   29 ar
  53   28   60 1
  54   29   30 ar
  55   29   61 1
  56   30   62 1
  57   31   63 1
  58   31   64 1
  59   31   65 1
  60   32   33 1
  61   32   66 1
  62   32   67 1
  63   33   68 1
  64   33   69 1
  65   34   35 1
  66   34   70 1
  67   34   71 1
  68   35   36 1
  69   35   72 1
  70   35   73 1
  71   36   37 1
  72   36   74 1
  73   36   75 1
  74   37   38 am
  75   37   76 1
  76   38   39 am
  77   38   40 2
  78   39   41 1
  79   39   77 1
  80   41   42 1
  81   41   78 1
  82   41   79 1
  83   42   43 2
  84   42   80 1
  85   43   81 1
  86   43   82 1

#	End of record

