#	Name: ASD08070097
#	Creating user name:	WinNT
#	Creation time:	15. 06. 2019 21:14

#	Modifying user name:	WinNT
#	Modification time:	15. 06. 2019 21:14

#	Program:	/corina/corina34_cracker 3.40 0067  02.08.2006

@<TRIPOS>MOLECULE
ASD08070097
  43   44    0    0    0
SMALL
NO_CHARGES


@<TRIPOS>ATOM
   1 C1            -0.0166     1.3730     0.0096 C.ar    
   2 C2             0.0021    -0.0041     0.0020 C.ar    
   3 C3             1.1763     2.0860     0.0020 C.ar    
   4 C4             2.3926     1.4130    -0.0136 C.ar    
   5 C5             2.4197     0.0365    -0.0217 C.ar    
   6 C6             1.2224    -0.6842    -0.0133 C.ar    
   7 C7             1.2470    -2.1600    -0.0214 C.2     
   8 O8             2.3099    -2.7502    -0.0355 O.2     
   9 C9             0.2646    -4.8335     1.4115 C.3     
  10 C10            0.1156    -4.3180    -0.0213 C.3     
  11 N11            0.0912    -2.8533    -0.0132 N.am    
  12 C12           -1.1696    -4.8386    -0.6114 C.ar    
  13 C13           -1.1484    -5.9287    -1.4611 C.ar    
  14 O14            1.1537     3.4429     0.0095 O.3     
  15 C15            3.6831     2.1912    -0.0223 C.3     
  16 O16           -0.8946    -4.4789     2.1683 O.3     
  17 C17           -2.3704    -4.2294    -0.2984 C.ar    
  18 C18           -0.8568    -4.9157     3.5283 C.3     
  19 C19           -0.1301     4.0703     0.0251 C.3     
  20 C20           -2.3274    -6.4062    -2.0024 C.ar    
  21 C21           -3.5276    -5.7938    -1.6936 C.ar    
  22 C22           -3.5494    -4.7069    -0.8397 C.ar    
  23 H23           -0.9595     1.8995     0.0169 H       
  24 H24           -0.9253    -0.5575     0.0082 H       
  25 H25            3.3651    -0.4856    -0.0346 H       
  26 H26            0.3719    -5.9182     1.3981 H       
  27 H27            1.1475    -4.3867     1.8685 H       
  28 H28            0.9573    -4.6641    -0.6213 H       
  29 H29           -0.7567    -2.3824    -0.0020 H       
  30 H30           -0.2107    -6.4072    -1.7023 H       
  31 H31            4.0044     2.3733     1.0032 H       
  32 H32            4.4486     1.6194    -0.5468 H       
  33 H33            3.5297     3.1437    -0.5295 H       
  34 H34           -2.3875    -3.3807     0.3692 H       
  35 H35           -1.7718    -4.6078     4.0344 H       
  36 H36           -0.7728    -6.0020     3.5588 H       
  37 H37            0.0028    -4.4706     4.0292 H       
  38 H38           -0.0053     5.1531     0.0297 H       
  39 H39           -0.6907     3.7729    -0.8612 H       
  40 H40           -0.6737     3.7634     0.9187 H       
  41 H41           -2.3107    -7.2575    -2.6668 H       
  42 H42           -4.4486    -6.1666    -2.1168 H       
  43 H43           -4.4871    -4.2285    -0.5984 H       
@<TRIPOS>BOND
   1    1    2 ar
   2    1    3 ar
   3    1   23 1
   4    2    6 ar
   5    2   24 1
   6    3    4 ar
   7    3   14 1
   8    4    5 ar
   9    4   15 1
  10    5    6 ar
  11    5   25 1
  12    6    7 1
  13    7    8 2
  14    7   11 am
  15    9   16 1
  16    9   10 1
  17    9   26 1
  18    9   27 1
  19   10   12 1
  20   10   11 1
  21   10   28 1
  22   11   29 1
  23   12   13 ar
  24   12   17 ar
  25   13   20 ar
  26   13   30 1
  27   14   19 1
  28   15   31 1
  29   15   32 1
  30   15   33 1
  31   16   18 1
  32   17   22 ar
  33   17   34 1
  34   18   35 1
  35   18   36 1
  36   18   37 1
  37   19   38 1
  38   19   39 1
  39   19   40 1
  40   20   21 ar
  41   20   41 1
  42   21   22 ar
  43   21   42 1
  44   22   43 1

#	End of record

