#	Name: ASD01881243
#	Creating user name:	WinNT
#	Creation time:	15. 06. 2019 19:42

#	Modifying user name:	WinNT
#	Modification time:	15. 06. 2019 19:42

#	Program:	/corina/corina34_cracker 3.40 0067  02.08.2006

@<TRIPOS>MOLECULE
ASD01881243
  56   59    0    0    0
SMALL
NO_CHARGES


@<TRIPOS>ATOM
   1 N1            -0.0230     1.2626    -0.2232 N.ar    
   2 C2             0.0557    -0.0522    -0.2378 C.ar    
   3 N3             1.1925    -0.6840    -0.0260 N.ar    
   4 C4             2.3144    -0.0105     0.2123 C.ar    
   5 C5             2.2760     1.3779     0.2361 C.ar    
   6 C6             1.0556     2.0083     0.0082 C.ar    
   7 C7             3.5229     2.1812     0.5028 C.3     
   8 O8             4.2462     2.3570    -0.7170 O.3     
   9 C9             5.4029     3.0638    -0.6510 C.ar    
  10 C10            6.1566     3.2722    -1.8024 C.ar    
  11 C11            7.3261     3.9874    -1.7356 C.ar    
  12 C12            7.7677     4.5102    -0.5153 C.ar    
  13 C13            7.0067     4.2981     0.6393 C.ar    
  14 C14            5.8300     3.5832     0.5644 C.ar    
  15 C15            8.3533     4.3860    -2.7658 C.3     
  16 N16            9.3778     5.1524    -2.0473 N.am    
  17 C17            9.0355     5.2213    -0.7494 C.2     
  18 O18            9.6811     5.7905     0.1096 O.2     
  19 Cl19           7.5397     4.9390     2.1621 Cl      
  20 N20            0.9649     3.3913     0.0210 N.3     
  21 C21           -0.3046     3.8304     0.6169 C.3     
  22 C22           -0.3313     5.3592     0.6851 C.3     
  23 N23           -0.1693     5.9102    -0.6676 N.3     
  24 C24            1.1003     5.4711    -1.2635 C.3     
  25 C25            1.1270     3.9423    -1.3317 C.3     
  26 C26           -0.2653     7.3760    -0.6540 C.3     
  27 C27           10.2629     7.1688    -3.1113 C.3     
  28 C28           10.5761     5.7453    -2.6461 C.3     
  29 O29            3.4787    -0.6696     0.4294 O.3     
  30 C30            3.4334    -2.0973     0.3885 C.3     
  31 H31           -0.8373    -0.6290    -0.4285 H       
  32 H32            3.2479     3.1559     0.9058 H       
  33 H33            4.1480     1.6534     1.2231 H       
  34 H34            5.8217     2.8711    -2.7476 H       
  35 H35            5.2422     3.4197     1.4556 H       
  36 H36            8.7968     3.4978    -3.2160 H       
  37 H37            7.8921     5.0059    -3.5346 H       
  38 H38           -1.1347     3.4792     0.0039 H       
  39 H39           -0.3956     3.4199     1.6225 H       
  40 H40           -1.2841     5.6881     1.1000 H       
  41 H41            0.4825     5.7091     1.3201 H       
  42 H42            1.1912     5.8816    -2.2691 H       
  43 H43            1.9303     5.8223    -0.6505 H       
  44 H44            2.0797     3.6134    -1.7466 H       
  45 H45            0.3131     3.5924    -1.9667 H       
  46 H46            0.5162     7.7853    -0.0140 H       
  47 H47           -0.1420     7.7576    -1.6675 H       
  48 H48           -1.2415     7.6726    -0.2704 H       
  49 H49            9.4626     7.1415    -3.8509 H       
  50 H50            9.9483     7.7691    -2.2576 H       
  51 H51           11.1545     7.6099    -3.5569 H       
  52 H52           11.3764     5.7726    -1.9065 H       
  53 H53           10.8907     5.1450    -3.4998 H       
  54 H54            4.4292    -2.4980     0.5778 H       
  55 H55            2.7445    -2.4610     1.1509 H       
  56 H56            3.0919    -2.4220    -0.5944 H       
@<TRIPOS>BOND
   1    1    2 ar
   2    1    6 ar
   3    2    3 ar
   4    2   31 1
   5    3    4 ar
   6    4    5 ar
   7    4   29 1
   8    5    6 ar
   9    5    7 1
  10    6   20 1
  11    7    8 1
  12    7   32 1
  13    7   33 1
  14    8    9 1
  15    9   10 ar
  16    9   14 ar
  17   10   11 ar
  18   10   34 1
  19   11   12 ar
  20   11   15 1
  21   12   13 ar
  22   12   17 1
  23   13   14 ar
  24   13   19 1
  25   14   35 1
  26   15   16 1
  27   15   36 1
  28   15   37 1
  29   16   17 am
  30   16   28 1
  31   17   18 2
  32   20   21 1
  33   20   25 1
  34   21   22 1
  35   21   38 1
  36   21   39 1
  37   22   23 1
  38   22   40 1
  39   22   41 1
  40   23   24 1
  41   23   26 1
  42   24   25 1
  43   24   42 1
  44   24   43 1
  45   25   44 1
  46   25   45 1
  47   26   46 1
  48   26   47 1
  49   26   48 1
  50   27   28 1
  51   27   49 1
  52   27   50 1
  53   27   51 1
  54   28   52 1
  55   28   53 1
  56   29   30 1
  57   30   54 1
  58   30   55 1
  59   30   56 1

#	End of record

