#	Name: ASD01140152
#	Creating user name:	WinNT
#	Creation time:	15. 06. 2019 19:00

#	Modifying user name:	WinNT
#	Modification time:	15. 06. 2019 19:00

#	Program:	/corina/corina34_cracker 3.40 0067  02.08.2006

@<TRIPOS>MOLECULE
ASD01140152
  46   49    0    0    0
SMALL
NO_CHARGES


@<TRIPOS>ATOM
   1 C1            -0.0169     1.3931     0.0097 C.ar    
   2 C2             0.0021    -0.0041     0.0020 C.ar    
   3 C3             1.2150    -0.6813    -0.0011 C.ar    
   4 C4             2.4238     0.0272     0.0038 C.ar    
   5 C5             2.3885     1.4241    -0.0124 C.ar    
   6 C6             1.1680     2.0938     0.0022 C.ar    
   7 C7             3.6699    -0.7453     0.0574 C.2     
   8 N8             4.7611    -0.5273    -0.5864 N.2     
   9 C9             4.8893     0.5845    -1.5356 C.3     
  10 C10            4.6746     1.8658    -0.7723 C.2     
  11 N11            3.5560     2.1895    -0.0767 N.pl3   
  12 C12           -1.2280    -0.7373    -0.0022 C.1     
  13 C13            3.7736     3.3975     0.5109 C.2     
  14 C14            3.6709    -1.9190     0.9639 C.ar    
  15 C15            4.8148    -2.7060     1.0733 C.ar    
  16 C16            5.5445     2.9042    -0.6402 C.2     
  17 N17            4.9538     3.8276     0.1648 N.2     
  18 C18            4.8008    -3.7993     1.9243 C.ar    
  19 C19            3.6422    -4.0679     2.6371 C.ar    
  20 C20            2.5414    -3.2427     2.4794 C.ar    
  21 N21            2.5837    -2.2074     1.6682 N.ar    
  22 C22            3.8331     0.4524    -2.6347 C.3     
  23 C23           -2.2364    -1.3384    -0.0056 C.1     
  24 C24            6.8774     3.0086    -1.2552 C.2     
  25 O25            7.2939     2.1098    -1.9595 O.2     
  26 O26            7.6363     4.1011    -1.0374 O.3     
  27 C27            9.6495     5.4428    -1.3153 C.3     
  28 C28            8.9400     4.1361    -1.6758 C.3     
  29 H29           -0.9586     1.9218     0.0170 H       
  30 H30            1.2264    -1.7613    -0.0070 H       
  31 H31            1.1507     3.1737     0.0075 H       
  32 H32            5.8858     0.5801    -1.9773 H       
  33 H33            3.0813     3.9151     1.1583 H       
  34 H34            5.7002    -2.4676     0.5026 H       
  35 H35            5.6724    -4.4282     2.0298 H       
  36 H36            3.5987    -4.9127     3.3085 H       
  37 H37            1.6373    -3.4493     3.0328 H       
  38 H38            2.8392     0.4730    -2.1878 H       
  39 H39            3.9333     1.2805    -3.3362 H       
  40 H40            3.9745    -0.4905    -3.1630 H       
  41 H41           -3.1383    -1.8760    -0.0087 H       
  42 H42            9.0531     6.2873    -1.6606 H       
  43 H43            9.7727     5.5030    -0.2340 H       
  44 H44           10.6281     5.4690    -1.7946 H       
  45 H45            9.5364     3.2916    -1.3305 H       
  46 H46            8.8167     4.0759    -2.7572 H       
@<TRIPOS>BOND
   1    1    2 ar
   2    1    6 ar
   3    1   29 1
   4    2    3 ar
   5    2   12 1
   6    3    4 ar
   7    3   30 1
   8    4    5 ar
   9    4    7 1
  10    5    6 ar
  11    5   11 1
  12    6   31 1
  13    7    8 2
  14    7   14 1
  15    8    9 1
  16    9   10 1
  17    9   22 1
  18    9   32 1
  19   10   11 1
  20   10   16 2
  21   11   13 1
  22   12   23 3
  23   13   17 2
  24   13   33 1
  25   14   15 ar
  26   14   21 ar
  27   15   18 ar
  28   15   34 1
  29   16   17 1
  30   16   24 1
  31   18   19 ar
  32   18   35 1
  33   19   20 ar
  34   19   36 1
  35   20   21 ar
  36   20   37 1
  37   22   38 1
  38   22   39 1
  39   22   40 1
  40   23   41 1
  41   24   25 2
  42   24   26 1
  43   26   28 1
  44   27   28 1
  45   27   42 1
  46   27   43 1
  47   27   44 1
  48   28   45 1
  49   28   46 1

#	End of record

