#	Name: ASD08830061
#	Creating user name:	WinNT
#	Creation time:	15. 06. 2019 21:19

#	Modifying user name:	WinNT
#	Modification time:	15. 06. 2019 21:19

#	Program:	/corina/corina34_cracker 3.40 0067  02.08.2006

@<TRIPOS>MOLECULE
ASD08830061
  43   45    0    0    0
SMALL
NO_CHARGES


@<TRIPOS>ATOM
   1 C1            -0.0160     1.4234    -0.0009 C.ar    
   2 C2             0.0065     0.0042    -0.0112 C.ar    
   3 C3             1.1961     2.1412    -0.0107 C.ar    
   4 C4             2.3784     1.4780    -0.0303 C.ar    
   5 C5             2.4153     0.0690    -0.0408 C.ar    
   6 C6             1.2369    -0.6661    -0.0315 C.ar    
   7 C7             3.7094    -0.6270    -0.0621 C.2     
   8 C8             4.9911     0.1656    -0.0727 C.3     
   9 C9             6.1834    -0.7930    -0.0945 C.3     
  10 N10            7.4328    -0.0205    -0.1049 N.3     
  11 O11            3.7459    -1.8393    -0.0711 O.2     
  12 C12            8.5946    -0.8947     0.1126 C.3     
  13 C13           -1.2485     2.0913     0.0247 C.ar    
  14 C14           -1.2065    -0.7097    -0.0004 C.ar    
  15 C15           -2.3878    -0.0383     0.0197 C.ar    
  16 C16           -2.4184     1.3612     0.0396 C.ar    
  17 C17            9.8759    -0.0603     0.0349 C.3     
  18 O18            9.8081     0.9987     0.9937 O.3     
  19 C19            8.6887     1.8699     0.8111 C.3     
  20 C20            7.3954     1.0551     0.8967 C.3     
  21 N21           -3.6468     2.0252     0.0604 N.am    
  22 C22           -3.7778     3.1787     0.7450 C.2     
  23 O23           -2.8585     3.5909     1.4203 O.2     
  24 H24            1.1835     3.2211    -0.0029 H       
  25 H25            3.3030     2.0360    -0.0384 H       
  26 H26            1.2686    -1.7456    -0.0395 H       
  27 H27            5.0187     0.8000    -0.9586 H       
  28 H28            5.0412     0.7874     0.8212 H       
  29 H29            6.1558    -1.4275     0.7914 H       
  30 H30            6.1333    -1.4148    -0.9884 H       
  31 H31            8.5217    -1.3590     1.0961 H       
  32 H32            8.6168    -1.6682    -0.6551 H       
  33 H33           -1.2815     3.1708     0.0332 H       
  34 H34           -1.1983    -1.7897    -0.0085 H       
  35 H35           -3.3152    -0.5918     0.0279 H       
  36 H36           10.7362    -0.6934     0.2520 H       
  37 H37            9.9761     0.3605    -0.9656 H       
  38 H38            8.6905     2.6328     1.5896 H       
  39 H39            8.7544     2.3468    -0.1668 H       
  40 H40            6.5423     1.7048     0.7014 H       
  41 H41            7.3034     0.6219     1.8927 H       
  42 H42           -4.4058     1.6562    -0.4178 H       
  43 H43           -4.7014     3.7360     0.6923 H       
@<TRIPOS>BOND
   1    1    2 ar
   2    1    3 ar
   3    1   13 ar
   4    2   14 ar
   5    2    6 ar
   6    3    4 ar
   7    3   24 1
   8    4    5 ar
   9    4   25 1
  10    5    6 ar
  11    5    7 1
  12    6   26 1
  13    7    8 1
  14    7   11 2
  15    8    9 1
  16    8   27 1
  17    8   28 1
  18    9   10 1
  19    9   29 1
  20    9   30 1
  21   10   12 1
  22   10   20 1
  23   12   17 1
  24   12   31 1
  25   12   32 1
  26   13   16 ar
  27   13   33 1
  28   14   15 ar
  29   14   34 1
  30   15   16 ar
  31   15   35 1
  32   16   21 1
  33   17   18 1
  34   17   36 1
  35   17   37 1
  36   18   19 1
  37   19   20 1
  38   19   38 1
  39   19   39 1
  40   20   40 1
  41   20   41 1
  42   21   22 am
  43   21   42 1
  44   22   23 2
  45   22   43 1

#	End of record

