#	Name: ASD01940140
#	Creating user name:	WinNT
#	Creation time:	15. 06. 2019 20:11

#	Modifying user name:	WinNT
#	Modification time:	15. 06. 2019 20:11

#	Program:	/corina/corina34_cracker 3.40 0067  02.08.2006

@<TRIPOS>MOLECULE
ASD01940140
  38   39    0    0    0
SMALL
NO_CHARGES


@<TRIPOS>ATOM
   1 C1             2.7240    -3.8104    -1.8437 C.1     
   2 F2             1.8729     1.5505     2.2247 F       
   3 C3             1.0384     2.1439     1.3433 C.ar    
   4 C4             1.3671     2.1851    -0.0052 C.ar    
   5 C5             0.5029     2.7985    -0.9108 C.ar    
   6 C6            -0.6806     3.3646    -0.4611 C.ar    
   7 C7            -1.0027     3.3206     0.8828 C.ar    
   8 C8            -0.1488     2.7068     1.7834 C.ar    
   9 N9             2.5646     1.6120    -0.4545 N.pl3   
  10 N10            0.8296     2.8435    -2.2726 N.am    
  11 C11            2.6045     0.2606    -0.8009 C.ar    
  12 C12            1.4426    -0.5015    -0.7575 C.ar    
  13 C13            1.4788    -1.8363    -1.0990 C.ar    
  14 C14            2.6837    -2.4236    -1.4889 C.ar    
  15 C15            3.8498    -1.6564    -1.5317 C.ar    
  16 C16            3.8067    -0.3205    -1.1946 C.ar    
  17 Cl17           5.2554     0.6346    -1.2474 Cl      
  18 F18           -0.4711     2.6617     3.0947 F       
  19 S19            0.4197     4.1674    -3.1792 S.o2    
  20 O20            0.9883     3.9079    -4.4553 O.2     
  21 O21           -0.9868     4.2835    -3.0137 O.2     
  22 C22            2.7570    -4.9473    -2.1345 C.1     
  23 C23            1.2720     5.5503    -2.3719 C.3     
  24 O24            0.9883     6.7610    -3.0760 O.3     
  25 C25           -0.3259     7.2729    -2.8460 C.3     
  26 H26           -1.3512     3.8406    -1.1613 H       
  27 H27           -1.9248     3.7625     1.2304 H       
  28 H28            3.3656     2.1545    -0.5247 H       
  29 H29            1.2959     2.0993    -2.6844 H       
  30 H30            0.5106    -0.0471    -0.4556 H       
  31 H31            0.5757    -2.4276    -1.0647 H       
  32 H32            4.7834    -2.1083    -1.8326 H       
  33 H33            2.7865    -5.9641    -2.3947 H       
  34 H34            0.9257     5.6392    -1.3422 H       
  35 H35            2.3468     5.3689    -2.3794 H       
  36 H36           -1.0636     6.5358    -3.1632 H       
  37 H37           -0.4539     7.4811    -1.7837 H       
  38 H38           -0.4626     8.1922    -3.4154 H       
@<TRIPOS>BOND
   1    1   22 3
   2    1   14 1
   3    2    3 1
   4    3    4 ar
   5    3    8 ar
   6    4    5 ar
   7    4    9 1
   8    5    6 ar
   9    5   10 1
  10    6    7 ar
  11    6   26 1
  12    7    8 ar
  13    7   27 1
  14    8   18 1
  15    9   11 1
  16    9   28 1
  17   10   19 am
  18   10   29 1
  19   11   12 ar
  20   11   16 ar
  21   12   13 ar
  22   12   30 1
  23   13   14 ar
  24   13   31 1
  25   14   15 ar
  26   15   16 ar
  27   15   32 1
  28   16   17 1
  29   19   20 2
  30   19   21 2
  31   19   23 1
  32   22   33 1
  33   23   24 1
  34   23   34 1
  35   23   35 1
  36   24   25 1
  37   25   36 1
  38   25   37 1
  39   25   38 1

#	End of record

