#	Name: ASD03240574
#	Creating user name:	WinNT
#	Creation time:	15. 06. 2019 20:35

#	Modifying user name:	WinNT
#	Modification time:	15. 06. 2019 20:35

#	Program:	/corina/corina34_cracker 3.40 0067  02.08.2006

@<TRIPOS>MOLECULE
ASD03240574
  54   59    0    0    0
SMALL
NO_CHARGES


@<TRIPOS>ATOM
   1 C1            -0.0166     1.3754     0.0096 C.ar    
   2 C2             0.0021    -0.0041     0.0020 C.ar    
   3 N3             1.1423    -0.6683    -0.0058 N.ar    
   4 C4             2.3145    -0.0482    -0.0058 C.ar    
   5 C5             2.3702     1.3444    -0.0123 C.ar    
   6 C6             1.1861     2.0697     0.0018 C.ar    
   7 N7             3.4824    -0.8057     0.0219 N.pl3   
   8 C8             4.3599    -0.7194     1.0995 C.ar    
   9 C9             4.9959     0.4896     1.4034 C.ar    
  10 C10            4.7632     1.6825     0.5618 C.2     
  11 N11            3.5942     2.0268    -0.0509 N.pl3   
  12 C12            4.6063    -1.8388     1.8827 C.ar    
  13 C13            5.4668    -1.7535     2.9607 C.ar    
  14 C14            6.0877    -0.5553     3.2693 C.ar    
  15 C15            5.8572     0.5658     2.4979 C.ar    
  16 N16            5.6714     2.5983     0.2796 N.2     
  17 C17            5.1378     3.5358    -0.5076 C.2     
  18 C18            3.8302     3.2069    -0.7376 C.2     
  19 C19            2.8610     3.9615    -1.5561 C.ar    
  20 C20            2.7664     5.3495    -1.4301 C.ar    
  21 C21            2.0380     3.2916    -2.4647 C.ar    
  22 C22            1.1350     4.0031    -3.2266 C.ar    
  23 C23            1.0431     5.3774    -3.0927 C.ar    
  24 C24            1.8589     6.0482    -2.1985 C.ar    
  25 O25            5.7826     4.6285    -0.9959 O.3     
  26 C26            0.0543     6.1479    -3.9291 C.3     
  27 N27           -1.0263     5.3041    -4.4566 N.3     
  28 C28           -0.4436     7.4399    -3.2602 C.3     
  29 C29           -0.3517     8.0998    -4.6462 C.3     
  30 C30            0.7124     7.0425    -4.9928 C.3     
  31 C31            7.1559     4.7871    -0.6340 C.3     
  32 H32           -0.9555     1.9090     0.0170 H       
  33 H33           -0.9306    -0.5486     0.0028 H       
  34 H34            1.2002     3.1496     0.0064 H       
  35 H35            3.6866    -1.3999    -0.7170 H       
  36 H36            4.1255    -2.7773     1.6492 H       
  37 H37            5.6559    -2.6272     3.5666 H       
  38 H38            6.7545    -0.4975     4.1169 H       
  39 H39            6.3430     1.4994     2.7406 H       
  40 H40            3.4022     5.8742    -0.7323 H       
  41 H41            2.1089     2.2191    -2.5704 H       
  42 H42            0.4984     3.4866    -3.9297 H       
  43 H43            1.7818     7.1208    -2.0991 H       
  44 H44           -0.6553     4.4814    -4.9077 H       
  45 H45           -1.6782     5.0542    -3.7282 H       
  46 H46           -1.4616     7.3689    -2.8770 H       
  47 H47            0.2556     7.8525    -2.5329 H       
  48 H48           -1.2644     8.0081    -5.2349 H       
  49 H49            0.0358     9.1183    -4.6200 H       
  50 H50            1.7282     7.3460    -4.7395 H       
  51 H51            0.6265     6.6529    -6.0072 H       
  52 H52            7.5489     5.6963    -1.0889 H       
  53 H53            7.2400     4.8577     0.4505 H       
  54 H54            7.7263     3.9281    -0.9875 H       
@<TRIPOS>BOND
   1    1    2 ar
   2    1    6 ar
   3    1   32 1
   4    2    3 ar
   5    2   33 1
   6    3    4 ar
   7    4    5 ar
   8    4    7 1
   9    5    6 ar
  10    5   11 1
  11    6   34 1
  12    7    8 1
  13    7   35 1
  14    8    9 ar
  15    8   12 ar
  16    9   10 1
  17    9   15 ar
  18   10   11 1
  19   10   16 2
  20   11   18 1
  21   12   13 ar
  22   12   36 1
  23   13   14 ar
  24   13   37 1
  25   14   15 ar
  26   14   38 1
  27   15   39 1
  28   16   17 1
  29   17   18 2
  30   17   25 1
  31   18   19 1
  32   19   20 ar
  33   19   21 ar
  34   20   24 ar
  35   20   40 1
  36   21   22 ar
  37   21   41 1
  38   22   23 ar
  39   22   42 1
  40   23   24 ar
  41   23   26 1
  42   24   43 1
  43   25   31 1
  44   26   27 1
  45   26   28 1
  46   26   30 1
  47   27   44 1
  48   27   45 1
  49   28   29 1
  50   28   46 1
  51   28   47 1
  52   29   30 1
  53   29   48 1
  54   29   49 1
  55   30   50 1
  56   30   51 1
  57   31   52 1
  58   31   53 1
  59   31   54 1

#	End of record

