#	Name: ASD01202002
#	Creating user name:	WinNT
#	Creation time:	15. 06. 2019 19:09

#	Modifying user name:	WinNT
#	Modification time:	15. 06. 2019 19:09

#	Program:	/corina/corina34_cracker 3.40 0067  02.08.2006

@<TRIPOS>MOLECULE
ASD01202002
  30   32    0    0    0
SMALL
NO_CHARGES


@<TRIPOS>ATOM
   1 C1            -0.0180     1.4737     0.0101 C.ar    
   2 C2             0.0021    -0.0041     0.0020 C.2     
   3 O3             1.0628    -0.5974    -0.0113 O.2     
   4 N4            -1.1558    -0.6938     0.0094 N.am    
   5 C5            -1.1370    -2.0780     0.0018 C.2     
   6 N6            -2.1846    -2.8278     0.0026 N.2     
   7 S7             0.3197    -3.0619    -0.0181 S.3     
   8 C8            -2.0046    -4.1632    -0.0055 C.ar    
   9 C9            -0.6552    -4.5299    -0.0162 C.ar    
  10 C10           -2.9784    -5.1840    -0.0060 C.ar    
  11 C11           -0.2877    -5.8731    -0.0267 C.ar    
  12 C12           -2.5992    -6.5090    -0.0142 C.ar    
  13 C13           -1.2505    -6.8569    -0.0220 C.ar    
  14 H14           -2.0023    -0.2203     0.0200 H       
  15 C15            1.1796     2.1911     0.0026 C.ar    
  16 C16            1.1537     3.5704     0.0103 C.ar    
  17 C17           -0.0555     4.2427     0.0259 C.ar    
  18 C18           -1.2461     3.5377     0.0340 C.ar    
  19 C19           -1.2346     2.1583     0.0196 C.ar    
  20 N20           -3.5756    -7.5114    -0.0142 N.pl3   
  21 H21           -4.0271    -4.9257     0.0003 H       
  22 H22            0.7577    -6.1442    -0.0327 H       
  23 H23           -0.9606    -7.8972    -0.0305 H       
  24 H24            2.1241     1.6676    -0.0089 H       
  25 H25            2.0794     4.1267     0.0044 H       
  26 H26           -0.0702     5.3226     0.0323 H       
  27 H27           -2.1865     4.0686     0.0466 H       
  28 H28           -2.1645     1.6092     0.0255 H       
  29 H29           -4.5157    -7.2727    -0.0085 H       
  30 H30           -3.3122    -8.4449    -0.0199 H       
@<TRIPOS>BOND
   1    1    2 1
   2    1   15 ar
   3    1   19 ar
   4    2    3 2
   5    2    4 am
   6    4    5 1
   7    4   14 1
   8    5    7 1
   9    5    6 2
  10    6    8 1
  11    7    9 1
  12    8    9 ar
  13    8   10 ar
  14    9   11 ar
  15   10   12 ar
  16   10   21 1
  17   11   13 ar
  18   11   22 1
  19   12   20 1
  20   12   13 ar
  21   13   23 1
  22   15   16 ar
  23   15   24 1
  24   16   17 ar
  25   16   25 1
  26   17   18 ar
  27   17   26 1
  28   18   19 ar
  29   18   27 1
  30   19   28 1
  31   20   29 1
  32   20   30 1

#	End of record

