#	Name: ASD01148920
#	Creating user name:	WinNT
#	Creation time:	15. 06. 2019 19:03

#	Modifying user name:	WinNT
#	Modification time:	15. 06. 2019 19:03

#	Program:	/corina/corina34_cracker 3.40 0067  02.08.2006

@<TRIPOS>MOLECULE
ASD01148920
  41   43    0    0    0
SMALL
NO_CHARGES


@<TRIPOS>ATOM
   1 C1            -0.0664     1.2879    -0.0284 C.ar    
   2 C2            -0.0200    -0.0930     0.0261 C.ar    
   3 C3             1.1975    -0.7453     0.0209 C.ar    
   4 C4             2.3755    -0.0129    -0.0391 C.ar    
   5 C5             2.3256     1.3736    -0.0937 C.ar    
   6 C6             1.1051     2.0201    -0.0882 C.ar    
   7 S7            -1.6217     2.1160    -0.0290 S.o2    
   8 O8            -1.4006     3.3847    -0.6296 O.2     
   9 O9            -2.5741     1.1807    -0.5164 O.2     
  10 N10           -2.0212     2.4098     1.5510 N.am    
  11 C11           -1.2026     3.3194     2.3566 C.3     
  12 N12            3.6123    -0.6717    -0.0440 N.pl3   
  13 C13            4.4995    -0.7042    -1.0920 C.2     
  14 C14            5.5768    -1.4430    -0.7048 C.2     
  15 C15            5.3405    -1.8716     0.6120 C.2     
  16 C16            4.1403    -1.3841     0.9942 C.2     
  17 C17            3.4919    -1.5939     2.3383 C.3     
  18 C18            4.3176    -0.0535    -2.4068 C.ar    
  19 C19            5.3402     0.7278    -2.9505 C.ar    
  20 C20            5.1631     1.3325    -4.1789 C.ar    
  21 C21            3.9763     1.1662    -4.8704 C.ar    
  22 C22            2.9599     0.3941    -4.3369 C.ar    
  23 C23            3.1260    -0.2215    -3.1131 C.ar    
  24 Cl24           6.8293     0.9382    -2.0835 Cl      
  25 H25           -0.9367    -0.6622     0.0731 H       
  26 H26            1.2331    -1.8238     0.0638 H       
  27 H27            3.2403     1.9460    -0.1401 H       
  28 H28            1.0657     3.0985    -0.1310 H       
  29 H29           -2.7972     1.9797     1.9431 H       
  30 H30           -0.1823     2.9397     2.4092 H       
  31 H31           -1.1992     4.3080     1.8976 H       
  32 H32           -1.6174     3.3871     3.3623 H       
  33 H33            6.4512    -1.6596    -1.3006 H       
  34 H34            6.0018    -2.4785     1.2126 H       
  35 H35            2.8803    -2.4957     2.3099 H       
  36 H36            4.2633    -1.7020     3.1009 H       
  37 H37            2.8633    -0.7359     2.5764 H       
  38 H38            5.9525     1.9369    -4.6008 H       
  39 H39            3.8426     1.6416    -5.8308 H       
  40 H40            2.0358     0.2690    -4.8817 H       
  41 H41            2.3332    -0.8278    -2.7004 H       
@<TRIPOS>BOND
   1    1    2 ar
   2    1    6 ar
   3    1    7 1
   4    2    3 ar
   5    2   25 1
   6    3    4 ar
   7    3   26 1
   8    4    5 ar
   9    4   12 1
  10    5    6 ar
  11    5   27 1
  12    6   28 1
  13    7    8 2
  14    7    9 2
  15    7   10 am
  16   10   11 1
  17   10   29 1
  18   11   30 1
  19   11   31 1
  20   11   32 1
  21   12   13 1
  22   12   16 1
  23   13   14 2
  24   13   18 1
  25   14   15 1
  26   14   33 1
  27   15   16 2
  28   15   34 1
  29   16   17 1
  30   17   35 1
  31   17   36 1
  32   17   37 1
  33   18   19 ar
  34   18   23 ar
  35   19   20 ar
  36   19   24 1
  37   20   21 ar
  38   20   38 1
  39   21   22 ar
  40   21   39 1
  41   22   23 ar
  42   22   40 1
  43   23   41 1

#	End of record

