#	Name: ASD03430241
#	Creating user name:	WinNT
#	Creation time:	15. 06. 2019 20:40

#	Modifying user name:	WinNT
#	Modification time:	15. 06. 2019 20:40

#	Program:	/corina/corina34_cracker 3.40 0067  02.08.2006

@<TRIPOS>MOLECULE
ASD03430241
  49   54    0    0    0
SMALL
NO_CHARGES


@<TRIPOS>ATOM
   1 C1            -0.0927     1.3234     0.5801 C.ar    
   2 C2            -0.0171    -0.0518     0.4213 C.ar    
   3 C3             1.1979    -0.6565     0.1773 C.ar    
   4 C4             2.3629     0.1005     0.0978 C.ar    
   5 C5             2.2830     1.4806     0.2544 C.ar    
   6 C6             1.0634     2.0906     0.4951 C.ar    
   7 O7             3.4522    -0.6905    -0.1209 O.3     
   8 C8             1.5994    -2.0879    -0.0586 C.3     
   9 C9             3.0188    -1.9664    -0.6300 C.3     
  10 C10            0.6983    -3.9597     0.9440 C.ar    
  11 C11            1.5698    -2.9036     1.1997 C.ar    
  12 C12            0.6735    -2.7897    -1.0100 C.2     
  13 N13            0.1921    -3.8647    -0.3545 N.am    
  14 O14            0.4099    -2.4546    -2.1454 O.2     
  15 C15            2.1920    -2.7893     2.4223 C.ar    
  16 C16            1.9549    -3.7279     3.4113 C.ar    
  17 C17            1.0920    -4.7805     3.1684 C.ar    
  18 C18            0.4662    -4.8998     1.9445 C.ar    
  19 C19           -0.7515    -4.8224    -0.9365 C.3     
  20 O20           -1.3017     1.9052     0.8119 O.3     
  21 C21           -1.2848     3.2402     1.3291 C.3     
  22 C22           -0.2726     4.0577     0.5152 C.3     
  23 O23            1.0128     3.4424     0.6501 O.3     
  24 C24            0.0083    -5.9895    -1.5123 C.ar    
  25 N25            0.3603    -6.9892    -0.7290 N.ar    
  26 C26            1.0257    -8.0310    -1.1883 C.ar    
  27 C27            1.3829    -8.1146    -2.5211 C.ar    
  28 C28            1.0335    -7.0863    -3.3812 C.ar    
  29 C29            0.3258    -6.0037    -2.8648 C.ar    
  30 N30           -0.0497    -4.9425    -3.6923 N.pl3   
  31 H31           -0.9127    -0.6514     0.4893 H       
  32 H32            3.1786     2.0804     0.1879 H       
  33 H33            2.9982    -1.9615    -1.7198 H       
  34 H34            3.6560    -2.7684    -0.2574 H       
  35 H35            2.8659    -1.9665     2.6098 H       
  36 H36            2.4431    -3.6385     4.3705 H       
  37 H37            0.9072    -5.5130     3.9401 H       
  38 H38           -0.2063    -5.7249     1.7622 H       
  39 H39           -1.4320    -5.1779    -0.1628 H       
  40 H40           -1.3226    -4.3352    -1.7268 H       
  41 H41           -2.2761     3.6836     1.2348 H       
  42 H42           -0.9867     3.2246     2.3774 H       
  43 H43           -0.5668     4.0671    -0.5343 H       
  44 H44           -0.2336     5.0783     0.8958 H       
  45 H45            1.2957    -8.8300    -0.5137 H       
  46 H46            1.9285    -8.9716    -2.8876 H       
  47 H47            1.2996    -7.1253    -4.4272 H       
  48 H48            0.2647    -4.9077    -4.6092 H       
  49 H49           -0.6249    -4.2405    -3.3498 H       
@<TRIPOS>BOND
   1    1    2 ar
   2    1    6 ar
   3    1   20 1
   4    2    3 ar
   5    2   31 1
   6    3    4 ar
   7    3    8 1
   8    4    5 ar
   9    4    7 1
  10    5    6 ar
  11    5   32 1
  12    6   23 1
  13    7    9 1
  14    8    9 1
  15    8   11 1
  16    8   12 1
  17    9   33 1
  18    9   34 1
  19   10   11 ar
  20   10   13 1
  21   10   18 ar
  22   11   15 ar
  23   12   13 am
  24   12   14 2
  25   13   19 1
  26   15   16 ar
  27   15   35 1
  28   16   17 ar
  29   16   36 1
  30   17   18 ar
  31   17   37 1
  32   18   38 1
  33   19   24 1
  34   19   39 1
  35   19   40 1
  36   20   21 1
  37   21   22 1
  38   21   41 1
  39   21   42 1
  40   22   23 1
  41   22   43 1
  42   22   44 1
  43   24   25 ar
  44   24   29 ar
  45   25   26 ar
  46   26   27 ar
  47   26   45 1
  48   27   28 ar
  49   27   46 1
  50   28   29 ar
  51   28   47 1
  52   29   30 1
  53   30   48 1
  54   30   49 1

#	End of record

