#	Name: ASD03330623
#	Creating user name:	WinNT
#	Creation time:	15. 06. 2019 20:37

#	Modifying user name:	WinNT
#	Modification time:	15. 06. 2019 20:37

#	Program:	/corina/corina34_cracker 3.40 0067  02.08.2006

@<TRIPOS>MOLECULE
ASD03330623
  70   72    0    0    0
SMALL
NO_CHARGES


@<TRIPOS>ATOM
   1 C1            -2.3823     0.7943     1.4511 C.2     
   2 N2            -2.3053    -0.5598     1.3629 N.pl3   
   3 C3            -1.1108     1.2584     1.6040 C.2     
   4 N4            -0.2793     0.1940     1.5900 N.2     
   5 C5            -0.9868    -0.9009     1.4399 C.2     
   6 C6            -0.4448    -2.2758     1.3661 C.ar    
   7 C7            -0.7135     2.6692     1.7568 C.2     
   8 O8            -1.5595     3.5430     1.7533 O.2     
   9 C9             0.9823     4.3937     2.0525 C.3     
  10 N10            0.5873     2.9912     1.9006 N.am    
  11 C11            1.1275     5.0352     0.6711 C.3     
  12 C12           -0.1789     4.8697    -0.1080 C.3     
  13 C13            1.4411     6.5242     0.8306 C.3     
  14 C14            2.2656     4.3531    -0.0908 C.3     
  15 C15            2.2987     4.4687     2.7821 C.2     
  16 N16            2.7587     5.6567     3.2220 N.am    
  17 O17            2.9443     3.4599     2.9733 O.2     
  18 C18            4.0731     5.7412     3.8636 C.3     
  19 C19           -3.4466    -1.4687     1.2254 C.3     
  20 C20           -4.3828    -0.9380     0.1350 C.3     
  21 C21           -5.3812     0.0410     0.7442 C.3     
  22 N22           -4.7756     0.7957     1.8431 N.3     
  23 C23           -3.6460     1.6110     1.3726 C.3     
  24 C24           -5.7765     1.6268     2.5253 C.3     
  25 C25            0.8358    -2.4949     0.8654 C.ar    
  26 C26            1.3390    -3.7929     0.7997 C.ar    
  27 C27            0.5569    -4.8643     1.2358 C.ar    
  28 C28           -0.7122    -4.6397     1.7313 C.ar    
  29 C29           -1.2144    -3.3555     1.8039 C.ar    
  30 C30            2.6977    -4.0349     0.2689 C.2     
  31 N31            3.5087    -4.9255     0.8736 N.am    
  32 O32            3.0832    -3.4306    -0.7128 O.2     
  33 C33            4.8888    -5.0913     0.4111 C.3     
  34 C34            3.0100    -5.7278     1.9933 C.3     
  35 H35            0.2204     4.9261     2.6220 H       
  36 H36            1.2620     2.2943     1.9034 H       
  37 H37           -0.9896     5.3557     0.4348 H       
  38 H38           -0.0754     5.3267    -1.0921 H       
  39 H39           -0.4023     3.8089    -0.2216 H       
  40 H40            2.3676     6.6422     1.3925 H       
  41 H41            1.5525     6.9795    -0.1534 H       
  42 H42            0.6266     7.0117     1.3664 H       
  43 H43            2.0422     3.2923    -0.2045 H       
  44 H44            2.3690     4.8101    -1.0750 H       
  45 H45            3.1962     4.4710     0.4642 H       
  46 H46            2.2195     6.4557     3.1139 H       
  47 H47            4.2717     6.7739     4.1502 H       
  48 H48            4.0854     5.1089     4.7514 H       
  49 H49            4.8400     5.4037     3.1665 H       
  50 H50           -3.0908    -2.4611     0.9487 H       
  51 H51           -3.9843    -1.5241     2.1719 H       
  52 H52           -3.7964    -0.4288    -0.6298 H       
  53 H53           -4.9214    -1.7708    -0.3170 H       
  54 H54           -5.7155     0.7364    -0.0257 H       
  55 H55           -6.2406    -0.5131     1.1218 H       
  56 H56           -3.5479     2.4956     2.0019 H       
  57 H57           -3.8204     1.9143     0.3402 H       
  58 H58           -6.5627     0.9897     2.9305 H       
  59 H59           -5.3000     2.1766     3.3370 H       
  60 H60           -6.2096     2.3308     1.8148 H       
  61 H61            1.4364    -1.6627     0.5290 H       
  62 H62            0.9454    -5.8708     1.1852 H       
  63 H63           -1.3133    -5.4718     2.0671 H       
  64 H64           -2.2077    -3.1866     2.1927 H       
  65 H65            5.5389    -4.4054     0.9543 H       
  66 H66            5.2115    -6.1168     0.5907 H       
  67 H67            4.9430    -4.8749    -0.6559 H       
  68 H68            2.4973    -6.6094     1.6087 H       
  69 H69            3.8468    -6.0382     2.6189 H       
  70 H70            2.3148    -5.1327     2.5855 H       
@<TRIPOS>BOND
   1    1    2 1
   2    1    3 2
   3    1   23 1
   4    2   19 1
   5    2    5 1
   6    3    4 1
   7    3    7 1
   8    4    5 2
   9    5    6 1
  10    6   25 ar
  11    6   29 ar
  12    7    8 2
  13    7   10 am
  14    9   10 1
  15    9   11 1
  16    9   15 1
  17    9   35 1
  18   10   36 1
  19   11   12 1
  20   11   13 1
  21   11   14 1
  22   12   37 1
  23   12   38 1
  24   12   39 1
  25   13   40 1
  26   13   41 1
  27   13   42 1
  28   14   43 1
  29   14   44 1
  30   14   45 1
  31   15   16 am
  32   15   17 2
  33   16   18 1
  34   16   46 1
  35   18   47 1
  36   18   48 1
  37   18   49 1
  38   19   20 1
  39   19   50 1
  40   19   51 1
  41   20   21 1
  42   20   52 1
  43   20   53 1
  44   21   22 1
  45   21   54 1
  46   21   55 1
  47   22   23 1
  48   22   24 1
  49   23   56 1
  50   23   57 1
  51   24   58 1
  52   24   59 1
  53   24   60 1
  54   25   26 ar
  55   25   61 1
  56   26   27 ar
  57   26   30 1
  58   27   28 ar
  59   27   62 1
  60   28   29 ar
  61   28   63 1
  62   29   64 1
  63   30   31 am
  64   30   32 2
  65   31   33 1
  66   31   34 1
  67   33   65 1
  68   33   66 1
  69   33   67 1
  70   34   68 1
  71   34   69 1
  72   34   70 1

#	End of record

