#	Name: ASD01811059
#	Creating user name:	WinNT
#	Creation time:	15. 06. 2019 19:25

#	Modifying user name:	WinNT
#	Modification time:	15. 06. 2019 19:25

#	Program:	/corina/corina34_cracker 3.40 0067  02.08.2006

@<TRIPOS>MOLECULE
ASD01811059
  44   47    0    0    0
SMALL
NO_CHARGES


@<TRIPOS>ATOM
   1 C1            -0.0168     1.3899     0.0097 C.ar    
   2 C2             0.0021    -0.0041     0.0020 C.ar    
   3 C3            -1.2689    -0.8029    -0.0072 C.3     
   4 C4            -2.4679    -0.0138     0.4039 C.2     
   5 C5            -2.5134     1.3273     0.4206 C.2     
   6 C6            -1.3120     2.1036     0.0386 C.2     
   7 C7            -1.4982    -1.3436    -1.4200 C.3     
   8 C8            -2.7029    -2.2490    -1.4219 C.ar    
   9 C9            -3.9589    -1.7243    -1.6676 C.ar    
  10 C10           -5.0656    -2.5489    -1.6706 C.ar    
  11 C11           -4.9159    -3.9124    -1.4255 C.ar    
  12 C12           -3.6483    -4.4356    -1.1786 C.ar    
  13 C13           -2.5478    -3.6027    -1.1836 C.ar    
  14 C14           -6.1022    -4.8039    -1.4269 C.ar    
  15 C15           -5.9525    -6.1674    -1.1818 C.ar    
  16 C16           -7.0593    -6.9919    -1.1843 C.ar    
  17 C17           -8.3153    -6.4672    -1.4301 C.ar    
  18 C18           -8.4696    -5.1145    -1.6744 C.ar    
  19 C19           -7.3705    -4.2797    -1.6677 C.ar    
  20 O20           -1.3873     3.2841    -0.2415 O.2     
  21 C21           -3.7528     2.0236     0.8173 C.2     
  22 O22           -4.7362     1.3825     1.1300 O.2     
  23 O23           -3.7935     3.3701     0.8325 O.3     
  24 C24            1.1847     2.1030     0.0020 C.ar    
  25 C25            2.3687     1.3853    -0.0063 C.ar    
  26 C26            2.3134     0.0025    -0.0061 C.ar    
  27 N27            1.1627    -0.6388    -0.0018 N.ar    
  28 H28           -1.1561    -1.6470     0.6731 H       
  29 H29           -3.3523    -0.5552     0.7056 H       
  30 H30           -1.6676    -0.5121    -2.1042 H       
  31 H31           -0.6210    -1.9053    -1.7409 H       
  32 H32           -4.0738    -0.6673    -1.8571 H       
  33 H33           -6.0459    -2.1381    -1.8621 H       
  34 H34           -3.5267    -5.4917    -0.9880 H       
  35 H35           -1.5648    -4.0072    -0.9923 H       
  36 H36           -4.9722    -6.5782    -0.9905 H       
  37 H37           -6.9444    -8.0489    -0.9945 H       
  38 H38           -9.1786    -7.1161    -1.4315 H       
  39 H39           -9.4525    -4.7101    -1.8661 H       
  40 H40           -7.4922    -3.2236    -1.8583 H       
  41 H41           -4.6272     3.7811     1.0993 H       
  42 H42            1.1897     3.1830     0.0023 H       
  43 H43            3.3201     1.8964    -0.0133 H       
  44 H44            3.2334    -0.5631    -0.0100 H       
@<TRIPOS>BOND
   1    1    2 ar
   2    1   24 ar
   3    1    6 1
   4    2    3 1
   5    2   27 ar
   6    3    4 1
   7    3    7 1
   8    3   28 1
   9    4    5 2
  10    4   29 1
  11    5    6 1
  12    5   21 1
  13    6   20 2
  14    7    8 1
  15    7   30 1
  16    7   31 1
  17    8    9 ar
  18    8   13 ar
  19    9   10 ar
  20    9   32 1
  21   10   11 ar
  22   10   33 1
  23   11   12 ar
  24   11   14 1
  25   12   13 ar
  26   12   34 1
  27   13   35 1
  28   14   15 ar
  29   14   19 ar
  30   15   16 ar
  31   15   36 1
  32   16   17 ar
  33   16   37 1
  34   17   18 ar
  35   17   38 1
  36   18   19 ar
  37   18   39 1
  38   19   40 1
  39   21   22 2
  40   21   23 1
  41   23   41 1
  42   24   25 ar
  43   24   42 1
  44   25   26 ar
  45   25   43 1
  46   26   27 ar
  47   26   44 1

#	End of record

