#	Name: ASD08070124
#	Creating user name:	WinNT
#	Creation time:	15. 06. 2019 21:14

#	Modifying user name:	WinNT
#	Modification time:	15. 06. 2019 21:14

#	Program:	/corina/corina34_cracker 3.40 0067  02.08.2006

@<TRIPOS>MOLECULE
ASD08070124
  38   40    0    0    0
SMALL
NO_CHARGES


@<TRIPOS>ATOM
   1 C1             0.1648     1.3690     0.6740 C.ar    
   2 C2             0.1820    -0.0126     0.6479 C.ar    
   3 C3             1.1757     2.0867     0.0626 C.ar    
   4 C4             2.2080     1.4254    -0.5778 C.ar    
   5 C5             1.2156    -0.6807     0.0071 C.ar    
   6 N6             1.2355    -2.0810    -0.0209 N.am    
   7 N7             0.0936    -4.1170    -0.0204 N.am    
   8 C8             0.0845    -2.7737     0.0881 C.2     
   9 O9            -0.9621    -2.1866     0.2843 O.2     
  10 C10            2.2313     0.0433    -0.6082 C.ar    
  11 F11            3.2390    -0.6028    -1.2344 F       
  12 C12           -1.1576    -4.8699     0.0981 C.3     
  13 C13           -1.8433    -4.9078    -1.2425 C.ar    
  14 C14           -2.4433    -6.0442    -1.7362 C.ar    
  15 C15           -2.4559    -7.3477    -0.9814 C.3     
  16 C16           -2.1343    -7.1172     0.4938 C.3     
  17 C17           -0.8498    -6.2848     0.5842 C.3     
  18 C18           -1.8604    -3.7393    -1.9935 C.ar    
  19 C19           -2.4759    -3.7080    -3.2275 C.ar    
  20 C20           -3.0816    -4.8484    -3.7217 C.ar    
  21 C21           -3.0647    -6.0100    -2.9782 C.ar    
  22 H22           -0.6421     1.8889     1.1689 H       
  23 H23           -0.6084    -0.5719     1.1263 H       
  24 H24            1.1593     3.1664     0.0848 H       
  25 H25            2.9962     1.9890    -1.0548 H       
  26 H26            2.0777    -2.5522    -0.1187 H       
  27 H27            0.9285    -4.5854    -0.1769 H       
  28 H28           -1.8074    -4.3758     0.8203 H       
  29 H29           -3.4424    -7.8033    -1.0674 H       
  30 H30           -1.7120    -8.0189    -1.4108 H       
  31 H31           -2.9547    -6.5790     0.9686 H       
  32 H32           -1.9866    -8.0756     0.9915 H       
  33 H33           -0.0791    -6.7297    -0.0452 H       
  34 H34           -0.5061    -6.2512     1.6180 H       
  35 H35           -1.3882    -2.8479    -1.6079 H       
  36 H36           -2.4849    -2.7957    -3.8055 H       
  37 H37           -3.5667    -4.8296    -4.6865 H       
  38 H38           -3.5379    -6.9004    -3.3649 H       
@<TRIPOS>BOND
   1    1    2 ar
   2    1    3 ar
   3    1   22 1
   4    2    5 ar
   5    2   23 1
   6    3    4 ar
   7    3   24 1
   8    4   10 ar
   9    4   25 1
  10    5    6 1
  11    5   10 ar
  12    6    8 am
  13    6   26 1
  14    7    8 am
  15    7   12 1
  16    7   27 1
  17    8    9 2
  18   10   11 1
  19   12   13 1
  20   12   17 1
  21   12   28 1
  22   13   14 ar
  23   13   18 ar
  24   14   15 1
  25   14   21 ar
  26   15   16 1
  27   15   29 1
  28   15   30 1
  29   16   17 1
  30   16   31 1
  31   16   32 1
  32   17   33 1
  33   17   34 1
  34   18   19 ar
  35   18   35 1
  36   19   20 ar
  37   19   36 1
  38   20   21 ar
  39   20   37 1
  40   21   38 1

#	End of record

