#	Name: ASD09740454
#	Creating user name:	WinNT
#	Creation time:	15. 06. 2019 21:23

#	Modifying user name:	WinNT
#	Modification time:	15. 06. 2019 21:23

#	Program:	/corina/corina34_cracker 3.40 0067  02.08.2006

@<TRIPOS>MOLECULE
ASD09740454
  70   74    0    0    0
SMALL
NO_CHARGES


@<TRIPOS>ATOM
   1 N1             0.5339     1.3896     0.2145 N.2     
   2 C2             0.4249     0.1069     0.4557 C.2     
   3 C3             1.6625     1.9611     0.5289 C.2     
   4 S4             2.7493     0.7590     1.2194 S.3     
   5 C5             1.5104    -0.4769     1.0089 C.2     
   6 C6             1.9803     3.3911     0.3359 C.ar    
   7 C7             1.0335     4.2454    -0.2233 C.ar    
   8 C8             3.2299     3.8879     0.7200 C.ar    
   9 C9             3.5314     5.2205     0.5426 C.ar    
  10 C10            2.5973     6.0801    -0.0186 C.ar    
  11 C11            1.3389     5.5939    -0.4032 C.ar    
  12 O12            2.8993     7.3914    -0.1904 O.3     
  13 C13            4.2362     7.7944     0.1133 C.3     
  14 C14            4.5814     9.0559    -0.6806 C.3     
  15 C15            4.3532     8.0861     1.6107 C.3     
  16 C16            0.3731     6.4784    -0.9824 C.1     
  17 N17           -0.3930     7.1801    -1.4420 N.1     
  18 C18            1.6368    -1.9032     1.3747 C.ar    
  19 C19            2.7510    -2.6372     0.9562 C.ar    
  20 C20            2.8632    -3.9679     1.3013 C.ar    
  21 C21            1.8722    -4.5718     2.0602 C.ar    
  22 C22            0.7684    -3.8510     2.4754 C.ar    
  23 C23            0.6477    -2.5175     2.1425 C.ar    
  24 C24            3.9499    -2.2172     0.1334 C.3     
  25 C25            5.0119    -3.3095     0.3811 C.3     
  26 C26            4.1462    -4.5376     0.7343 C.3     
  27 N27            3.8649    -5.3242    -0.4692 N.am    
  28 S28            4.4689    -6.8592    -0.6149 S.o2    
  29 O29            3.9650    -7.3172    -1.8621 O.2     
  30 O30            5.8655    -6.7081    -0.4001 O.2     
  31 C31            3.7099    -7.7763     0.7538 C.3     
  32 C32            4.2778    -9.1964     0.7932 C.3     
  33 N33            3.7473    -9.9035     1.9664 N.3     
  34 C34            4.2051   -11.3097     1.9895 C.3     
  35 C35            3.0633   -12.1466     2.5955 C.3     
  36 C36            1.9292   -11.1355     2.8811 C.3     
  37 C37            2.2636    -9.9613     1.9272 C.3     
  38 O38            0.6560   -11.7001     2.5611 O.3     
  39 H39           -0.4735    -0.4475     0.2278 H       
  40 H40            0.0663     3.8649    -0.5169 H       
  41 H41            3.9612     3.2244     1.1576 H       
  42 H42            4.4981     5.5978     0.8417 H       
  43 H43            4.9267     6.9952    -0.1562 H       
  44 H44            3.8910     9.8551    -0.4111 H       
  45 H45            5.6012     9.3633    -0.4489 H       
  46 H46            4.4981     8.8481    -1.7473 H       
  47 H47            3.6627     8.8853     1.8802 H       
  48 H48            4.1073     7.1874     2.1763 H       
  49 H49            5.3730     8.3935     1.8424 H       
  50 H50            1.9634    -5.6139     2.3287 H       
  51 H51            0.0018    -4.3309     3.0657 H       
  52 H52           -0.2147    -1.9539     2.4668 H       
  53 H53            3.6878    -2.1773    -0.9239 H       
  54 H54            4.3185    -1.2480     0.4693 H       
  55 H55            5.5963    -3.4936    -0.5204 H       
  56 H56            5.6591    -3.0388     1.2153 H       
  57 H57            4.6491    -5.1529     1.4803 H       
  58 H58            3.3248    -4.9460    -1.1806 H       
  59 H59            3.9283    -7.2713     1.6948 H       
  60 H60            2.6307    -7.8205     0.6072 H       
  61 H61            3.9889    -9.7285    -0.1131 H       
  62 H62            5.3650    -9.1512     0.8571 H       
  63 H63            4.4157   -11.6484     0.9751 H       
  64 H64            5.0990   -11.3991     2.6068 H       
  65 H65            2.7276   -12.9005     1.8834 H       
  66 H66            3.3909   -12.6192     3.5215 H       
  67 H67            1.9570   -10.8081     3.9204 H       
  68 H68            1.8325    -9.0308     2.2966 H       
  69 H69            1.9135   -10.1745     0.9172 H       
  70 H70            0.4334   -12.4865     3.0779 H       
@<TRIPOS>BOND
   1    1    2 1
   2    1    3 2
   3    2    5 2
   4    2   39 1
   5    3    4 1
   6    3    6 1
   7    4    5 1
   8    5   18 1
   9    6    7 ar
  10    6    8 ar
  11    7   11 ar
  12    7   40 1
  13    8    9 ar
  14    8   41 1
  15    9   10 ar
  16    9   42 1
  17   10   11 ar
  18   10   12 1
  19   11   16 1
  20   12   13 1
  21   13   14 1
  22   13   15 1
  23   13   43 1
  24   14   44 1
  25   14   45 1
  26   14   46 1
  27   15   47 1
  28   15   48 1
  29   15   49 1
  30   16   17 3
  31   18   19 ar
  32   18   23 ar
  33   19   20 ar
  34   19   24 1
  35   20   21 ar
  36   20   26 1
  37   21   22 ar
  38   21   50 1
  39   22   23 ar
  40   22   51 1
  41   23   52 1
  42   24   25 1
  43   24   53 1
  44   24   54 1
  45   25   26 1
  46   25   55 1
  47   25   56 1
  48   26   27 1
  49   26   57 1
  50   27   28 am
  51   27   58 1
  52   28   29 2
  53   28   30 2
  54   28   31 1
  55   31   32 1
  56   31   59 1
  57   31   60 1
  58   32   33 1
  59   32   61 1
  60   32   62 1
  61   33   34 1
  62   33   37 1
  63   34   35 1
  64   34   63 1
  65   34   64 1
  66   35   36 1
  67   35   65 1
  68   35   66 1
  69   36   37 1
  70   36   38 1
  71   36   67 1
  72   37   68 1
  73   37   69 1
  74   38   70 1

#	End of record

