#	Name: ASD01813764
#	Creating user name:	WinNT
#	Creation time:	15. 06. 2019 19:31

#	Modifying user name:	WinNT
#	Modification time:	15. 06. 2019 19:31

#	Program:	/corina/corina34_cracker 3.40 0067  02.08.2006

@<TRIPOS>MOLECULE
ASD01813764
  55   58    0    0    0
SMALL
NO_CHARGES


@<TRIPOS>ATOM
   1 C1             0.0194     1.5665    -0.2180 C.ar    
   2 C2             0.0230     0.1794    -0.1910 C.ar    
   3 C3             1.2109    -0.5213    -0.1596 C.ar    
   4 C4             2.4243     0.1661    -0.1546 C.ar    
   5 C5             2.4158     1.5706    -0.1821 C.ar    
   6 C6             1.2065     2.2651    -0.2137 C.ar    
   7 N7             3.6188    -0.5216    -0.1223 N.pl3   
   8 C8             4.8089     0.0914    -0.1149 C.2     
   9 C9             4.9281     1.4666    -0.1393 C.2     
  10 C10            3.7059     2.2856    -0.1766 C.2     
  11 O11            3.7574     3.5028    -0.1994 O.2     
  12 C12            6.2533     2.1021    -0.1291 C.2     
  13 O13            6.3566     3.4459    -0.1532 O.3     
  14 O14            7.2563     1.4158    -0.0990 O.2     
  15 C15            3.5842    -1.9860    -0.0943 C.3     
  16 C16            3.4423    -2.5120    -1.4994 C.ar    
  17 N17            2.2457    -2.6197    -2.0443 N.ar    
  18 N18            2.0715    -3.0616    -3.2367 N.ar    
  19 C19            3.0896    -3.4409    -4.0031 C.ar    
  20 C20            4.3962    -3.3608    -3.5061 C.ar    
  21 C21            4.5713    -2.8769    -2.2199 C.ar    
  22 F22            1.1988    -1.8720    -0.1330 F       
  23 C23            2.8440    -3.9440    -5.3696 C.2     
  24 N24            1.6109    -4.1826    -5.9378 N.am    
  25 C25            1.8039    -4.6405    -7.2130 C.2     
  26 C26            3.1305    -4.6924    -7.4519 C.2     
  27 C27            3.7946    -4.2491    -6.2948 C.2     
  28 C28            0.4178    -3.9970    -5.3389 C.2     
  29 O29            0.3687    -3.6955    -4.1637 O.2     
  30 O30           -0.7189    -4.1458    -6.0434 O.3     
  31 C31           -1.9672    -3.9304    -5.3337 C.3     
  32 C32           -2.0046    -2.5007    -4.7901 C.3     
  33 C33           -3.1414    -4.1428    -6.2913 C.3     
  34 C34           -2.0709    -4.9206    -4.1720 C.3     
  35 H35           -0.9186     2.1011    -0.2471 H       
  36 H36           -0.9141    -0.3574    -0.1943 H       
  37 H37            1.2010     3.3449    -0.2351 H       
  38 H38            5.7057    -0.5098    -0.0886 H       
  39 H39            7.2492     3.8178    -0.1453 H       
  40 H40            4.5087    -2.3629     0.3431 H       
  41 H41            2.7367    -2.3180     0.5053 H       
  42 H42            5.2407    -3.6628    -4.1077 H       
  43 H43            5.5574    -2.7937    -1.7872 H       
  44 H44            1.0257    -4.9144    -7.9100 H       
  45 H45            3.5991    -5.0141    -8.3703 H       
  46 H46            4.8636    -4.1710    -6.1621 H       
  47 H47           -1.9307    -1.7952    -5.6177 H       
  48 H48           -2.9417    -2.3389    -4.2574 H       
  49 H49           -1.1680    -2.3494    -4.1079 H       
  50 H50           -3.1148    -5.1613    -6.6786 H       
  51 H51           -4.0785    -3.9810    -5.7586 H       
  52 H52           -3.0676    -3.4373    -7.1189 H       
  53 H53           -1.2343    -4.7693    -3.4899 H       
  54 H54           -3.0080    -4.7589    -3.6393 H       
  55 H55           -2.0442    -5.9391    -4.5593 H       
@<TRIPOS>BOND
   1    1    2 ar
   2    1    6 ar
   3    1   35 1
   4    2    3 ar
   5    2   36 1
   6    3   22 1
   7    3    4 ar
   8    4    5 ar
   9    4    7 1
  10    5    6 ar
  11    5   10 1
  12    6   37 1
  13    7    8 1
  14    7   15 1
  15    8    9 2
  16    8   38 1
  17    9   10 1
  18    9   12 1
  19   10   11 2
  20   12   13 1
  21   12   14 2
  22   13   39 1
  23   15   16 1
  24   15   40 1
  25   15   41 1
  26   16   17 ar
  27   16   21 ar
  28   17   18 ar
  29   18   19 ar
  30   19   20 ar
  31   19   23 1
  32   20   21 ar
  33   20   42 1
  34   21   43 1
  35   23   24 1
  36   23   27 2
  37   24   25 1
  38   24   28 am
  39   25   26 2
  40   25   44 1
  41   26   27 1
  42   26   45 1
  43   27   46 1
  44   28   29 2
  45   28   30 1
  46   30   31 1
  47   31   32 1
  48   31   33 1
  49   31   34 1
  50   32   47 1
  51   32   48 1
  52   32   49 1
  53   33   50 1
  54   33   51 1
  55   33   52 1
  56   34   53 1
  57   34   54 1
  58   34   55 1

#	End of record

