#	Name: ASD06170126
#	Creating user name:	WinNT
#	Creation time:	15. 06. 2019 21:05

#	Modifying user name:	WinNT
#	Modification time:	15. 06. 2019 21:05

#	Program:	/corina/corina34_cracker 3.40 0067  02.08.2006

@<TRIPOS>MOLECULE
ASD06170126
  67   71    0    0    0
SMALL
NO_CHARGES


@<TRIPOS>ATOM
   1 N1             0.3663    -2.5130    -0.0425 N.pl3   
   2 N2            -0.1741    -1.2411    -0.2543 N.am    
   3 C3             0.8393    -0.3614    -0.3935 C.2     
   4 C4             2.0847    -1.1338    -0.2600 C.2     
   5 C5             1.7113    -2.4464    -0.0463 C.2     
   6 C6             3.4543    -0.6122    -0.3389 C.2     
   7 O7             4.4008    -1.3661    -0.2104 O.2     
   8 N8             3.6637     0.7018    -0.5536 N.am    
   9 C9            -0.4147    -3.7358     0.1598 C.3     
  10 C10           -0.6486    -4.4080    -1.1685 C.2     
  11 C11           -0.2966    -5.6580    -1.3409 C.2     
  12 C12           -1.5371    -0.9325    -0.3127 C.ar    
  13 C13           -2.3959    -1.3834     0.6814 C.ar    
  14 C14           -3.7412    -1.0769     0.6208 C.ar    
  15 C15           -4.2334    -0.3221    -0.4281 C.ar    
  16 C16           -3.3809     0.1283    -1.4194 C.ar    
  17 C17           -2.0336    -0.1698    -1.3617 C.ar    
  18 O18            0.7425     0.8354    -0.5910 O.2     
  19 C19            2.6508    -3.6083     0.1500 C.3     
  20 C20            4.9601     1.2156    -0.5230 C.ar    
  21 C21            5.1588     2.5873    -0.6334 C.ar    
  22 C22            6.4484     3.0862    -0.6019 C.ar    
  23 C23            7.5038     2.1884    -0.4597 C.ar    
  24 C24            7.2300     0.8342    -0.3553 C.ar    
  25 N25            5.9869     0.3928    -0.3837 N.ar    
  26 O26            8.7874     2.6356    -0.4244 O.3     
  27 N27           10.1259     4.3393     3.0852 N.ar    
  28 C28            8.8731     3.9662     2.9684 C.ar    
  29 C29            8.3862     3.3893     1.8023 C.ar    
  30 C30            9.2345     3.1966     0.7261 C.ar    
  31 C31           10.5812     3.6020     0.8632 C.ar    
  32 C32           11.5003     3.4395    -0.1841 C.ar    
  33 C33           12.7935     3.8431    -0.0168 C.ar    
  34 C34           13.2122     4.4186     1.1913 C.ar    
  35 C35           12.3385     4.5879     2.2266 C.ar    
  36 C36           11.0010     4.1828     2.0847 C.ar    
  37 O37           14.5048     4.8125     1.3338 O.3     
  38 C38           14.8721     5.3920     2.5873 C.3     
  39 O39           13.6846     3.6852    -1.0317 O.3     
  40 C40           13.1969     3.0923    -2.2369 C.3     
  41 H41            2.9128     1.2901    -0.7294 H       
  42 H42            0.1320    -4.4114     0.8177 H       
  43 H43           -1.3733    -3.4837     0.6133 H       
  44 H44           -1.1064    -3.8593    -1.9782 H       
  45 H45           -0.4642    -6.1398    -2.2929 H       
  46 H46            0.1612    -6.2067    -0.5312 H       
  47 H47           -2.0122    -1.9732     1.5007 H       
  48 H48           -4.4096    -1.4275     1.3933 H       
  49 H49           -5.2858    -0.0841    -0.4733 H       
  50 H50           -3.7685     0.7177    -2.2373 H       
  51 H51           -1.3676     0.1864    -2.1337 H       
  52 H52            2.8827    -4.0553    -0.8167 H       
  53 H53            3.5704    -3.2568     0.6177 H       
  54 H54            2.1787    -4.3529     0.7908 H       
  55 H55            4.3169     3.2548    -0.7428 H       
  56 H56            6.6328     4.1470    -0.6858 H       
  57 H57            8.0433     0.1321    -0.2452 H       
  58 H58            8.2021     4.1115     3.8021 H       
  59 H59            7.3500     3.0920     1.7360 H       
  60 H60           11.1864     2.9969    -1.1179 H       
  61 H61           12.6748     5.0319     3.1519 H       
  62 H62           15.9281     5.6614     2.5676 H       
  63 H63           14.2726     6.2849     2.7644 H       
  64 H64           14.6958     4.6716     3.3861 H       
  65 H65           14.0074     3.0249    -2.9626 H       
  66 H66           12.8171     2.0934    -2.0226 H       
  67 H67           12.3941     3.7064    -2.6450 H       
@<TRIPOS>BOND
   1    1    2 1
   2    1    5 1
   3    1    9 1
   4    2    3 am
   5    2   12 1
   6    3    4 1
   7    3   18 2
   8    4    5 2
   9    4    6 1
  10    5   19 1
  11    6    7 2
  12    6    8 am
  13    8   20 1
  14    8   41 1
  15    9   10 1
  16    9   42 1
  17    9   43 1
  18   10   11 2
  19   10   44 1
  20   11   45 1
  21   11   46 1
  22   12   13 ar
  23   12   17 ar
  24   13   14 ar
  25   13   47 1
  26   14   15 ar
  27   14   48 1
  28   15   16 ar
  29   15   49 1
  30   16   17 ar
  31   16   50 1
  32   17   51 1
  33   19   52 1
  34   19   53 1
  35   19   54 1
  36   20   21 ar
  37   20   25 ar
  38   21   22 ar
  39   21   55 1
  40   22   23 ar
  41   22   56 1
  42   23   24 ar
  43   23   26 1
  44   24   25 ar
  45   24   57 1
  46   26   30 1
  47   27   28 ar
  48   27   36 ar
  49   28   29 ar
  50   28   58 1
  51   29   30 ar
  52   29   59 1
  53   30   31 ar
  54   31   32 ar
  55   31   36 ar
  56   32   33 ar
  57   32   60 1
  58   33   34 ar
  59   33   39 1
  60   34   35 ar
  61   34   37 1
  62   35   36 ar
  63   35   61 1
  64   37   38 1
  65   38   62 1
  66   38   63 1
  67   38   64 1
  68   39   40 1
  69   40   65 1
  70   40   66 1
  71   40   67 1

#	End of record

