#	Name: ASD02562041
#	Creating user name:	WinNT
#	Creation time:	15. 06. 2019 20:25

#	Modifying user name:	WinNT
#	Modification time:	15. 06. 2019 20:25

#	Program:	/corina/corina34_cracker 3.40 0067  02.08.2006

@<TRIPOS>MOLECULE
ASD02562041
  43   46    0    0    0
SMALL
NO_CHARGES


@<TRIPOS>ATOM
   1 C1             0.1355     1.3886     1.1066 C.2     
   2 C2             0.1567    -0.0176     1.0944 C.2     
   3 C3             1.2851    -0.6790     0.7686 C.2     
   4 N4             2.4257     0.0059     0.4451 N.pl3   
   5 C5             2.4351     1.3821     0.4480 C.2     
   6 C6             1.2589     2.0842     0.7877 C.2     
   7 C7             3.6779    -0.4088     0.0854 C.2     
   8 C8             4.4298     0.7280    -0.1251 C.2     
   9 N9             3.6435     1.7959     0.1041 N.2     
  10 N10            4.1117    -1.7284    -0.0440 N.3     
  11 C11            5.8541     0.7669    -0.5312 C.ar    
  12 C12            2.9882    -2.6665     0.0809 C.3     
  13 C13            3.3288    -3.9696    -0.6448 C.3     
  14 C14            2.1586    -4.9467    -0.5147 C.3     
  15 C15            1.9005    -5.2392     0.9648 C.3     
  16 C16            1.5599    -3.9361     1.6904 C.3     
  17 C17            2.7301    -2.9590     1.5604 C.3     
  18 C18            6.3133     1.7754    -1.3781 C.ar    
  19 C19            7.6409     1.8063    -1.7529 C.ar    
  20 C20            8.5158     0.8393    -1.2907 C.ar    
  21 C21            8.0661    -0.1636    -0.4504 C.ar    
  22 C22            6.7422    -0.2015    -0.0636 C.ar    
  23 H23           -0.7720     1.9143     1.3643 H       
  24 H24           -0.7358    -0.5704     1.3477 H       
  25 H25            1.2897    -1.7590     0.7629 H       
  26 H26            1.2514     3.1641     0.7938 H       
  27 H27            4.6011    -1.8643    -0.9158 H       
  28 H28            2.0957    -2.2258    -0.3634 H       
  29 H29            3.5127    -3.7612    -1.6987 H       
  30 H30            4.2212    -4.4104    -0.2004 H       
  31 H31            1.2662    -4.5060    -0.9590 H       
  32 H32            2.4013    -5.8751    -1.0317 H       
  33 H33            1.0669    -5.9353     1.0574 H       
  34 H34            2.7930    -5.6800     1.4091 H       
  35 H35            0.6674    -3.4954     1.2461 H       
  36 H36            1.3760    -4.1445     2.7444 H       
  37 H37            3.6225    -3.3997     2.0047 H       
  38 H38            2.4874    -2.0306     2.0773 H       
  39 H39            5.6312     2.5304    -1.7401 H       
  40 H40            7.9978     2.5867    -2.4086 H       
  41 H41            9.5538     0.8672    -1.5874 H       
  42 H42            8.7538    -0.9157    -0.0928 H       
  43 H43            6.3923    -0.9848     0.5924 H       
@<TRIPOS>BOND
   1    1    2 1
   2    1    6 2
   3    1   23 1
   4    2    3 2
   5    2   24 1
   6    3    4 1
   7    3   25 1
   8    4    5 1
   9    4    7 1
  10    5    6 1
  11    5    9 2
  12    6   26 1
  13    7    8 2
  14    7   10 1
  15    8    9 1
  16    8   11 1
  17   10   12 1
  18   10   27 1
  19   11   18 ar
  20   11   22 ar
  21   12   13 1
  22   12   17 1
  23   12   28 1
  24   13   14 1
  25   13   29 1
  26   13   30 1
  27   14   15 1
  28   14   31 1
  29   14   32 1
  30   15   16 1
  31   15   33 1
  32   15   34 1
  33   16   17 1
  34   16   35 1
  35   16   36 1
  36   17   37 1
  37   17   38 1
  38   18   19 ar
  39   18   39 1
  40   19   20 ar
  41   19   40 1
  42   20   21 ar
  43   20   41 1
  44   21   22 ar
  45   21   42 1
  46   22   43 1

#	End of record

