#	Name: ASD03320171
#	Creating user name:	WinNT
#	Creation time:	15. 06. 2019 20:36

#	Modifying user name:	WinNT
#	Modification time:	15. 06. 2019 20:36

#	Program:	/corina/corina34_cracker 3.40 0067  02.08.2006

@<TRIPOS>MOLECULE
ASD03320171
  39   41    0    0    0
SMALL
NO_CHARGES


@<TRIPOS>ATOM
   1 C1            -0.0077     1.3438    -0.1946 C.ar    
   2 C2             0.0217    -0.0349     0.0276 C.ar    
   3 C3            -1.1530    -0.7587     0.0440 C.ar    
   4 C4            -2.3651    -0.1248    -0.1588 C.ar    
   5 C5            -2.4071     1.2529    -0.3820 C.ar    
   6 C6            -1.2277     1.9888    -0.3944 C.ar    
   7 C7             1.2508     2.1180    -0.2119 C.2     
   8 O8             1.2237     3.3180    -0.4055 O.2     
   9 N9             2.4287     1.4939    -0.0131 N.am    
  10 C10            3.6277     2.2086    -0.1264 C.ar    
  11 C11           -3.7085     1.9310    -0.6003 C.ar    
  12 C12            3.6886     3.5330     0.2864 C.ar    
  13 C13            4.8713     4.2370     0.1748 C.ar    
  14 C14            5.9983     3.6215    -0.3500 C.ar    
  15 C15            5.9381     2.2985    -0.7631 C.ar    
  16 C16            4.7578     1.5915    -0.6464 C.ar    
  17 O17            7.1624     4.3154    -0.4600 O.3     
  18 C18            8.2832     3.6194    -1.0092 C.3     
  19 F19            7.9768     3.1913    -2.3054 F       
  20 F20            9.3892     4.4751    -1.0499 F       
  21 F21            8.5807     2.5104    -0.2100 F       
  22 Cl22          -3.8377    -1.0439    -0.1364 Cl      
  23 C23           -4.6262     1.4401    -1.5333 C.ar    
  24 C24           -5.8249     2.1013    -1.7049 C.ar    
  25 N25           -6.1088     3.1817    -1.0030 N.ar    
  26 C26           -5.2707     3.6774    -0.1128 C.ar    
  27 C27           -4.0527     3.0748     0.1255 C.ar    
  28 H28            0.9655    -0.5353     0.1866 H       
  29 H29           -1.1256    -1.8247     0.2155 H       
  30 H30           -1.2555     3.0546    -0.5667 H       
  31 H31            2.4460     0.5497     0.2085 H       
  32 H32            2.8111     4.0126     0.6944 H       
  33 H33            4.9188     5.2670     0.4959 H       
  34 H34            6.8158     1.8202    -1.1722 H       
  35 H35            4.7111     0.5615    -0.9680 H       
  36 H36           -4.4002     0.5564    -2.1115 H       
  37 H37           -6.5402     1.7298    -2.4237 H       
  38 H38           -5.5435     4.5644     0.4396 H       
  39 H39           -3.3715     3.4858     0.8560 H       
@<TRIPOS>BOND
   1    1    2 ar
   2    1    7 1
   3    1    6 ar
   4    2    3 ar
   5    2   28 1
   6    3    4 ar
   7    3   29 1
   8    4    5 ar
   9    4   22 1
  10    5    6 ar
  11    5   11 1
  12    6   30 1
  13    7    8 2
  14    7    9 am
  15    9   10 1
  16    9   31 1
  17   10   12 ar
  18   10   16 ar
  19   11   23 ar
  20   11   27 ar
  21   12   13 ar
  22   12   32 1
  23   13   14 ar
  24   13   33 1
  25   14   15 ar
  26   14   17 1
  27   15   16 ar
  28   15   34 1
  29   16   35 1
  30   17   18 1
  31   18   19 1
  32   18   20 1
  33   18   21 1
  34   23   24 ar
  35   23   36 1
  36   24   25 ar
  37   24   37 1
  38   25   26 ar
  39   26   27 ar
  40   26   38 1
  41   27   39 1

#	End of record

