#	Name: ASD01410899
#	Creating user name:	WinNT
#	Creation time:	15. 06. 2019 19:18

#	Modifying user name:	WinNT
#	Modification time:	15. 06. 2019 19:18

#	Program:	/corina/corina34_cracker 3.40 0067  02.08.2006

@<TRIPOS>MOLECULE
ASD01410899
  74   77    0    0    0
SMALL
NO_CHARGES


@<TRIPOS>ATOM
   1 C1            -1.4358     2.7418    -0.5672 C.ar    
   2 C2            -1.8008     0.4160    -1.0497 C.ar    
   3 C3            -3.0809     0.5019    -0.5202 C.ar    
   4 C4            -3.5385     1.7211     0.0026 C.ar    
   5 C5            -2.7066     2.8429    -0.0309 C.ar    
   6 O6            -0.6235     3.8318    -0.5950 O.3     
   7 C7            -0.3109     4.3625    -1.8038 C.ar    
   8 N8            -3.9052    -0.6222    -0.4974 N.am    
   9 C9            -3.9999    -1.3657     0.6227 C.2     
  10 C10           -3.3077    -0.9188     1.8846 C.3     
  11 O11           -4.6423    -2.3944     0.6152 O.2     
  12 C12           -3.8480    -1.7171     3.0727 C.3     
  13 C13           -1.0995    -0.7036     3.0334 C.3     
  14 C14           -1.6398    -1.5018     4.2215 C.3     
  15 C15           -3.1453    -1.2634     4.3538 C.3     
  16 C16           -0.9371    -1.0481     5.5026 C.3     
  17 N17           -0.8840     3.8857    -2.8967 N.ar    
  18 C18           -4.6684    -0.9952    -1.6909 C.3     
  19 C19            0.6036     5.4050    -1.8816 C.ar    
  20 C20            0.9136     5.9378    -3.1210 C.ar    
  21 C21            0.2947     5.4061    -4.2437 C.ar    
  22 C22           -0.6089     4.3729    -4.0915 C.ar    
  23 C23           -1.8022    -1.1573     1.7523 C.3     
  24 C24           -0.9843     1.5285    -1.0726 C.ar    
  25 C25           -4.2320    -0.1218    -2.8689 C.3     
  26 O26           -2.9001    -0.4698    -3.2522 O.3     
  27 C27           -2.3936     0.2915    -4.3504 C.3     
  28 C28           -6.1611    -0.7874    -1.4274 C.3     
  29 C29           -6.6631    -1.8668    -0.5033 C.ar    
  30 C30           -6.9481    -1.5694     0.8163 C.ar    
  31 C31           -7.4085    -2.5595     1.6640 C.ar    
  32 C32           -7.5844    -3.8469     1.1920 C.ar    
  33 C33           -7.3002    -4.1440    -0.1278 C.ar    
  34 C34           -6.8439    -3.1529    -0.9766 C.ar    
  35 C35            1.2494     5.9491    -0.6334 C.3     
  36 F36            2.1243     6.9859    -0.9750 F       
  37 F37            0.2611     6.4376     0.2279 F       
  38 F38            1.9621     4.9289     0.0056 F       
  39 C39           -4.8965     1.8224     0.5666 C.2     
  40 O40           -5.6133     0.8420     0.6044 O.2     
  41 O41           -5.3430     3.0023     1.0403 O.3     
  42 H42           -1.4461    -0.5211    -1.4527 H       
  43 H43           -3.0550     3.7868     0.3614 H       
  44 H44           -3.4947     0.1429     2.0450 H       
  45 H45           -4.9206    -1.5472     3.1670 H       
  46 H46           -3.6611    -2.7789     2.9123 H       
  47 H47           -1.2865     0.3582     3.1938 H       
  48 H48           -0.0270    -0.8734     2.9391 H       
  49 H49           -1.4528    -2.5636     4.0611 H       
  50 H50           -3.3323    -0.2016     4.5143 H       
  51 H51           -3.5302    -1.8321     5.2003 H       
  52 H52           -1.1240     0.0137     5.6631 H       
  53 H53           -1.3220    -1.6168     6.3491 H       
  54 H54            0.1355    -1.2180     5.4084 H       
  55 H55           -4.4836    -2.0431    -1.9275 H       
  56 H56            1.6207     6.7490    -3.2122 H       
  57 H57            0.5140     5.7991    -5.2254 H       
  58 H58           -1.0930     3.9554    -4.9619 H       
  59 H59           -1.6153    -2.2190     1.5918 H       
  60 H60           -1.4173    -0.5886     0.9058 H       
  61 H61            0.0109     1.4558    -1.4858 H       
  62 H62           -4.9060    -0.2832    -3.7102 H       
  63 H63           -4.2631     0.9272    -2.5745 H       
  64 H64           -2.3865     1.3491    -4.0867 H       
  65 H65           -1.3785    -0.0326    -4.5797 H       
  66 H66           -3.0295     0.1387    -5.2224 H       
  67 H67           -6.3162     0.1876    -0.9654 H       
  68 H68           -6.7064    -0.8336    -2.3701 H       
  69 H69           -6.8107    -0.5637     1.1851 H       
  70 H70           -7.6305    -2.3274     2.6951 H       
  71 H71           -7.9434    -4.6206     1.8545 H       
  72 H72           -7.4373    -5.1498    -0.4964 H       
  73 H73           -6.6219    -3.3851    -2.0077 H       
  74 H74           -6.2403     3.0195     1.4004 H       
@<TRIPOS>BOND
   1    1   24 ar
   2    1    6 1
   3    1    5 ar
   4    2    3 ar
   5    2   24 ar
   6    2   42 1
   7    3    4 ar
   8    3    8 1
   9    4    5 ar
  10    4   39 1
  11    5   43 1
  12    6    7 1
  13    7   19 ar
  14    7   17 ar
  15    8    9 am
  16    8   18 1
  17    9   11 2
  18    9   10 1
  19   10   12 1
  20   10   23 1
  21   10   44 1
  22   12   15 1
  23   12   45 1
  24   12   46 1
  25   13   14 1
  26   13   23 1
  27   13   47 1
  28   13   48 1
  29   14   15 1
  30   14   16 1
  31   14   49 1
  32   15   50 1
  33   15   51 1
  34   16   52 1
  35   16   53 1
  36   16   54 1
  37   17   22 ar
  38   18   25 1
  39   18   28 1
  40   18   55 1
  41   19   20 ar
  42   19   35 1
  43   20   21 ar
  44   20   56 1
  45   21   22 ar
  46   21   57 1
  47   22   58 1
  48   23   59 1
  49   23   60 1
  50   24   61 1
  51   25   26 1
  52   25   62 1
  53   25   63 1
  54   26   27 1
  55   27   64 1
  56   27   65 1
  57   27   66 1
  58   28   29 1
  59   28   67 1
  60   28   68 1
  61   29   30 ar
  62   29   34 ar
  63   30   31 ar
  64   30   69 1
  65   31   32 ar
  66   31   70 1
  67   32   33 ar
  68   32   71 1
  69   33   34 ar
  70   33   72 1
  71   34   73 1
  72   35   36 1
  73   35   37 1
  74   35   38 1
  75   39   40 2
  76   39   41 1
  77   41   74 1

#	End of record

