#	Name: ASD01028142
#	Creating user name:	WinNT
#	Creation time:	15. 06. 2019 18:56

#	Modifying user name:	WinNT
#	Modification time:	15. 06. 2019 18:56

#	Program:	/corina/corina34_cracker 3.40 0067  02.08.2006

@<TRIPOS>MOLECULE
ASD01028142
  54   56    0    0    0
SMALL
NO_CHARGES


@<TRIPOS>ATOM
   1 C1             0.6084     0.8905    -1.1050 C.3     
   2 C2             1.7183     3.0852    -0.6648 C.3     
   3 C3             1.9530     1.5924    -0.9047 C.3     
   4 N4             2.8382     5.2164    -0.2348 N.am    
   5 N5             2.1336     7.6513    -3.6854 N.pl3   
   6 C6             1.0895     7.1103    -2.9261 C.ar    
   7 C7             1.3706     6.3675    -1.7873 C.ar    
   8 C8             2.8008     6.1436    -1.3684 C.3     
   9 C9            -0.2312     7.3210    -3.3083 C.ar    
  10 C10           -1.2645     6.7813    -2.5502 C.ar    
  11 C11           -0.9737     6.0367    -1.4169 C.ar    
  12 C12            0.3399     5.8337    -1.0373 C.ar    
  13 O13           -0.7716     8.0039    -4.3609 O.3     
  14 C14           -2.1286     7.5343    -4.4670 C.3     
  15 O15           -2.4539     7.1250    -3.1254 O.3     
  16 C16            3.0629     3.7871    -0.4645 C.3     
  17 C17            2.6658     5.6784     1.0196 C.2     
  18 C18            0.8431    -0.6023    -1.3449 C.3     
  19 O19           -0.4128    -1.2579    -1.5319 O.3     
  20 O20            2.5986     4.8160     2.0513 O.3     
  21 O21            2.5712     6.8732     1.2193 O.2     
  22 C22            2.4119     5.3842     3.3744 C.3     
  23 C23            2.3608     4.2760     4.3944 C.ar    
  24 C24            3.5245     3.8390     4.9991 C.ar    
  25 C25            3.4775     2.8224     5.9347 C.ar    
  26 C26            2.2668     2.2433     6.2659 C.ar    
  27 C27            1.1030     2.6810     5.6618 C.ar    
  28 C28            1.1494     3.7005     4.7294 C.ar    
  29 H29           -0.0068     1.0231    -0.2150 H       
  30 H30            0.0984     1.3212    -1.9666 H       
  31 H31            1.2083     3.5159    -1.5264 H       
  32 H32            1.1031     3.2178     0.2252 H       
  33 H33            2.4630     1.1617    -0.0431 H       
  34 H34            2.5682     1.4598    -1.7947 H       
  35 H35            3.0497     7.5715    -3.3767 H       
  36 H36            1.9411     8.1060    -4.5203 H       
  37 H37            3.2466     7.0941    -1.0753 H       
  38 H38            3.3616     5.7210    -2.2021 H       
  39 H39           -1.7757     5.6174    -0.8275 H       
  40 H40            0.5615     5.2531    -0.1540 H       
  41 H41           -2.7881     8.3387    -4.7927 H       
  42 H42           -2.1886     6.6877    -5.1510 H       
  43 H43            3.5729     3.3564     0.3971 H       
  44 H44            3.6781     3.6545    -1.3545 H       
  45 H45            1.4582    -0.7349    -2.2349 H       
  46 H46            1.3531    -1.0330    -0.4833 H       
  47 H47           -0.3402    -2.2092    -1.6895 H       
  48 H48            3.2430     6.0512     3.6039 H       
  49 H49            1.4778     5.9453     3.4003 H       
  50 H50            4.4704     4.2914     4.7403 H       
  51 H51            4.3868     2.4805     6.4066 H       
  52 H52            2.2303     1.4486     6.9963 H       
  53 H53            0.1572     2.2283     5.9204 H       
  54 H54            0.2402     4.0424     4.2575 H       
@<TRIPOS>BOND
   1    1   18 1
   2    1    3 1
   3    1   29 1
   4    1   30 1
   5    2    3 1
   6    2   16 1
   7    2   31 1
   8    2   32 1
   9    3   33 1
  10    3   34 1
  11    4   16 1
  12    4   17 am
  13    4    8 1
  14    5    6 1
  15    5   35 1
  16    5   36 1
  17    6    7 ar
  18    6    9 ar
  19    7    8 1
  20    7   12 ar
  21    8   37 1
  22    8   38 1
  23    9   10 ar
  24    9   13 1
  25   10   11 ar
  26   10   15 1
  27   11   12 ar
  28   11   39 1
  29   12   40 1
  30   13   14 1
  31   14   15 1
  32   14   41 1
  33   14   42 1
  34   16   43 1
  35   16   44 1
  36   17   20 1
  37   17   21 2
  38   18   19 1
  39   18   45 1
  40   18   46 1
  41   19   47 1
  42   20   22 1
  43   22   23 1
  44   22   48 1
  45   22   49 1
  46   23   24 ar
  47   23   28 ar
  48   24   25 ar
  49   24   50 1
  50   25   26 ar
  51   25   51 1
  52   26   27 ar
  53   26   52 1
  54   27   28 ar
  55   27   53 1
  56   28   54 1

#	End of record

