#	Name: ASD04590877
#	Creating user name:	WinNT
#	Creation time:	15. 06. 2019 20:51

#	Modifying user name:	WinNT
#	Modification time:	15. 06. 2019 20:51

#	Program:	/corina/corina34_cracker 3.40 0067  02.08.2006

@<TRIPOS>MOLECULE
ASD04590877
  57   62    0    0    0
SMALL
NO_CHARGES


@<TRIPOS>ATOM
   1 N1            -0.0038     1.2664     0.4421 N.ar    
   2 C2             0.0024    -0.0449     0.2413 C.ar    
   3 N3             1.1196    -0.7538     0.2306 N.ar    
   4 C4             2.2962    -0.1650     0.4244 C.ar    
   5 C5             2.3227     1.2264     0.6403 C.ar    
   6 C6             1.1235     1.9299     0.6429 C.ar    
   7 N7             3.5860    -0.6338     0.4653 N.pl3   
   8 C8             4.4716     0.4054     0.7023 C.ar    
   9 C9             3.7367     1.5949     0.8206 C.ar    
  10 C10            5.8561     0.4451     0.8288 C.ar    
  11 C11            6.4938     1.6436     1.0683 C.ar    
  12 C12            5.7664     2.8179     1.1850 C.ar    
  13 C13            4.3936     2.7988     1.0622 C.ar    
  14 N14           -1.2038    -0.6953     0.0360 N.pl3   
  15 C15           -2.4031     0.0082     0.1462 C.ar    
  16 N16           -2.3876     1.2676     0.5520 N.ar    
  17 C17           -3.4975     1.9715     0.6710 C.ar    
  18 C18           -4.7293     1.4090     0.3721 C.ar    
  19 C19           -4.7850     0.0843    -0.0585 C.ar    
  20 C20           -3.6008    -0.6201    -0.1770 C.ar    
  21 N21           -5.9023     2.1620     0.5017 N.3     
  22 C22            3.9717    -2.0354     0.2839 C.3     
  23 C23            3.2504    -2.9205     1.3212 C.3     
  24 C24            3.5244    -2.5300    -1.1029 C.3     
  25 C25            2.5468    -3.6983    -0.8598 C.3     
  26 C26            2.0035    -3.4481     0.5689 C.3     
  27 C27           -7.0191     1.3232     0.9743 C.3     
  28 C28           -7.5588     1.9673     2.2686 C.3     
  29 C29           -7.0902     3.4412     2.1473 C.3     
  30 C30           -5.7142     3.2761     1.4552 C.3     
  31 O31           -6.9461     4.0404     3.4366 O.3     
  32 H32            1.1122     2.9975     0.8058 H       
  33 H33            6.4322    -0.4640     0.7396 H       
  34 H34            7.5690     1.6679     1.1663 H       
  35 H35            6.2770     3.7509     1.3727 H       
  36 H36            3.8290     3.7150     1.1530 H       
  37 H37           -1.2141    -1.6399    -0.1844 H       
  38 H38           -3.4459     2.9972     1.0052 H       
  39 H39           -5.7303    -0.3797    -0.2982 H       
  40 H40           -3.6069    -1.6481    -0.5082 H       
  41 H41            5.0515    -2.1416     0.3877 H       
  42 H42            3.8901    -3.7484     1.6269 H       
  43 H43            2.9518    -2.3283     2.1862 H       
  44 H44            3.0203    -1.7271    -1.6409 H       
  45 H45            4.3870    -2.8770    -1.6717 H       
  46 H46            1.7348    -3.6738    -1.5865 H       
  47 H47            3.0729    -4.6519    -0.9063 H       
  48 H48            1.6475    -4.3767     1.0149 H       
  49 H49            1.2137    -2.6969     0.5557 H       
  50 H50           -7.8050     1.2927     0.2196 H       
  51 H51           -6.6628     0.3144     1.1827 H       
  52 H52           -8.6468     1.9103     2.3028 H       
  53 H53           -7.1193     1.4942     3.1467 H       
  54 H54           -7.7737     4.0182     1.5245 H       
  55 H55           -4.9485     3.0228     2.1885 H       
  56 H56           -5.4447     4.1889     0.9239 H       
  57 H57           -7.7664     4.0767     3.9473 H       
@<TRIPOS>BOND
   1    1    2 ar
   2    1    6 ar
   3    2    3 ar
   4    2   14 1
   5    3    4 ar
   6    4    5 ar
   7    4    7 1
   8    5    6 ar
   9    5    9 1
  10    6   32 1
  11    7    8 1
  12    7   22 1
  13    8    9 ar
  14    8   10 ar
  15    9   13 ar
  16   10   11 ar
  17   10   33 1
  18   11   12 ar
  19   11   34 1
  20   12   13 ar
  21   12   35 1
  22   13   36 1
  23   14   15 1
  24   14   37 1
  25   15   16 ar
  26   15   20 ar
  27   16   17 ar
  28   17   18 ar
  29   17   38 1
  30   18   19 ar
  31   18   21 1
  32   19   20 ar
  33   19   39 1
  34   20   40 1
  35   21   27 1
  36   21   30 1
  37   22   24 1
  38   22   23 1
  39   22   41 1
  40   23   26 1
  41   23   42 1
  42   23   43 1
  43   24   25 1
  44   24   44 1
  45   24   45 1
  46   25   26 1
  47   25   46 1
  48   25   47 1
  49   26   48 1
  50   26   49 1
  51   27   28 1
  52   27   50 1
  53   27   51 1
  54   28   29 1
  55   28   52 1
  56   28   53 1
  57   29   30 1
  58   29   31 1
  59   29   54 1
  60   30   55 1
  61   30   56 1
  62   31   57 1

#	End of record

