#	Name: ASD03090787
#	Creating user name:	WinNT
#	Creation time:	15. 06. 2019 20:29

#	Modifying user name:	WinNT
#	Modification time:	15. 06. 2019 20:29

#	Program:	/corina/corina34_cracker 3.40 0067  02.08.2006

@<TRIPOS>MOLECULE
ASD03090787
  38   41    0    0    0
SMALL
NO_CHARGES


@<TRIPOS>ATOM
   1 N1            -1.9022    -2.7435     0.7276 N.am    
   2 C2            -0.8838    -1.9296     0.3420 C.2     
   3 N3            -1.0512    -0.6877     0.0039 N.2     
   4 C4            -2.2777    -0.1067     0.0128 C.ar    
   5 C5            -3.3969    -0.8766     0.4002 C.ar    
   6 C6            -3.1737    -2.2818     0.7719 C.2     
   7 O7            -4.0954    -2.9992     1.1150 O.2     
   8 C8            -2.4567     1.2300    -0.3507 C.ar    
   9 C9            -3.7064     1.7801    -0.3291 C.ar    
  10 C10           -4.8150     1.0245     0.0526 C.ar    
  11 C11           -4.6660    -0.3027     0.4177 C.ar    
  12 N12           -6.0837     1.6107     0.0669 N.3     
  13 C13           -1.6217    -4.1343     1.0927 C.3     
  14 C14           -6.2093     2.6204    -0.9933 C.3     
  15 C15           -7.5920     3.2740    -0.9427 C.3     
  16 N16           -7.8213     3.8059     0.4183 N.3     
  17 C17           -7.8653     2.6465     1.3523 C.3     
  18 C18           -6.3749     2.2114     1.3862 C.3     
  19 C19           -6.6242     4.5814     0.8266 C.3     
  20 C20           -5.6356     3.5722     1.4415 C.3     
  21 H21            0.1159    -2.3373     0.3159 H       
  22 H22           -1.6078     1.8278    -0.6482 H       
  23 H23           -3.8381     2.8143    -0.6109 H       
  24 H24           -5.5249    -0.8870     0.7131 H       
  25 H25           -0.5535    -4.3275     0.9938 H       
  26 H26           -1.9283    -4.3081     2.1241 H       
  27 H27           -2.1744    -4.8020     0.4319 H       
  28 H28           -5.4439     3.3844    -0.8567 H       
  29 H29           -6.0707     2.1438    -1.9638 H       
  30 H30           -7.6374     4.0887    -1.6654 H       
  31 H31           -8.3552     2.5322    -1.1781 H       
  32 H32           -8.2043     2.9549     2.3412 H       
  33 H33           -8.4953     1.8501     0.9562 H       
  34 H34           -6.1401     1.5472     2.2180 H       
  35 H35           -6.1755     5.0612    -0.0432 H       
  36 H36           -6.9003     5.3323     1.5669 H       
  37 H37           -5.4118     3.8409     2.4739 H       
  38 H38           -4.7196     3.5308     0.8521 H       
@<TRIPOS>BOND
   1    1    2 1
   2    1   13 1
   3    1    6 am
   4    2    3 2
   5    2   21 1
   6    3    4 1
   7    4    5 ar
   8    4    8 ar
   9    5    6 1
  10    5   11 ar
  11    6    7 2
  12    8    9 ar
  13    8   22 1
  14    9   10 ar
  15    9   23 1
  16   10   11 ar
  17   10   12 1
  18   11   24 1
  19   12   14 1
  20   12   18 1
  21   13   25 1
  22   13   26 1
  23   13   27 1
  24   14   15 1
  25   14   28 1
  26   14   29 1
  27   15   16 1
  28   15   30 1
  29   15   31 1
  30   16   17 1
  31   16   19 1
  32   17   18 1
  33   17   32 1
  34   17   33 1
  35   18   20 1
  36   18   34 1
  37   19   20 1
  38   19   35 1
  39   19   36 1
  40   20   37 1
  41   20   38 1

#	End of record

