#	Name: ASD01900027
#	Creating user name:	WinNT
#	Creation time:	15. 06. 2019 19:51

#	Modifying user name:	WinNT
#	Modification time:	15. 06. 2019 19:51

#	Program:	/corina/corina34_cracker 3.40 0067  02.08.2006

@<TRIPOS>MOLECULE
ASD01900027
  35   36    0    0    0
SMALL
NO_CHARGES


@<TRIPOS>ATOM
   1 C1            -0.0187     1.5258     0.0104 C.3     
   2 C2             0.0021    -0.0041     0.0020 C.3     
   3 C3             0.7182    -0.4975    -1.2568 C.3     
   4 C4             2.1536     0.0321    -1.2676 C.3     
   5 C5             2.1328     1.5619    -1.2592 C.3     
   6 C6             1.4167     2.0553    -0.0004 C.3     
   7 C7             3.5467     2.0836    -1.2699 C.2     
   8 C8             2.8825    -0.4671    -0.0468 C.2     
   9 O9             3.7740     3.4064    -1.2650 O.3     
  10 N10            3.0256    -1.7915     0.1581 N.am    
  11 O11            4.4755     1.3110    -1.2829 O.2     
  12 O12            3.3403     0.3229     0.7515 O.2     
  13 C13            3.7341    -2.2768     1.3449 C.3     
  14 H14            1.6057     1.9230    -2.1423 H       
  15 H15            2.6638    -0.3194    -2.1644 H       
  16 C16            3.3193    -3.6943     1.7734 C.3     
  17 C17            4.8054    -3.9542     2.0714 C.3     
  18 C18            5.1229    -2.8612     1.0373 C.3     
  19 H19           -0.5459     1.8868    -0.8726 H       
  20 H20           -0.5289     1.8773     0.9072 H       
  21 H21            0.5293    -0.3651     0.8851 H       
  22 H22           -1.0205    -0.3814     0.0098 H       
  23 H23            0.7330    -1.5874    -1.2628 H       
  24 H24            0.1910    -0.1364    -2.1398 H       
  25 H25            1.4019     3.1452     0.0056 H       
  26 H26            1.9439     1.6943     0.8826 H       
  27 H27            4.6975     3.6932    -1.2723 H       
  28 H28            2.6595    -2.4234    -0.4804 H       
  29 H29            3.7337    -1.5559     2.1624 H       
  30 H30            2.6860    -3.7146     2.6603 H       
  31 H31            2.9254    -4.2995     0.9569 H       
  32 H32            5.0992    -3.6921     3.0878 H       
  33 H33            5.1430    -4.9472     1.7749 H       
  34 H34            5.2221    -3.2387     0.0195 H       
  35 H35            5.9457    -2.2090     1.3299 H       
@<TRIPOS>BOND
   1    1    2 1
   2    1    6 1
   3    1   19 1
   4    1   20 1
   5    2    3 1
   6    2   21 1
   7    2   22 1
   8    3    4 1
   9    3   23 1
  10    3   24 1
  11    4    5 1
  12    4    8 1
  13    4   15 1
  14    5    6 1
  15    5    7 1
  16    5   14 1
  17    6   25 1
  18    6   26 1
  19    7    9 1
  20    7   11 2
  21    8   10 am
  22    8   12 2
  23    9   27 1
  24   10   13 1
  25   10   28 1
  26   13   16 1
  27   13   18 1
  28   13   29 1
  29   16   17 1
  30   16   30 1
  31   16   31 1
  32   17   18 1
  33   17   32 1
  34   17   33 1
  35   18   34 1
  36   18   35 1

#	End of record

