#	Name: ASD01916038
#	Creating user name:	WinNT
#	Creation time:	15. 06. 2019 20:06

#	Modifying user name:	WinNT
#	Modification time:	15. 06. 2019 20:06

#	Program:	/corina/corina34_cracker 3.40 0067  02.08.2006

@<TRIPOS>MOLECULE
ASD01916038
  35   36    0    0    0
SMALL
NO_CHARGES


@<TRIPOS>ATOM
   1 C1            -0.0169     1.3977     0.0097 C.ar    
   2 C2             0.0021    -0.0041     0.0020 C.ar    
   3 C3            -1.2047    -0.6766     0.0100 C.ar    
   4 C4            -2.3925     0.0553     0.0253 C.ar    
   5 C5            -3.6890    -0.6577     0.0339 C.2     
   6 N6            -4.8419     0.0402     0.0487 N.am    
   7 O7            -3.7144    -1.8729     0.0276 O.2     
   8 C8             1.2071     2.1408     0.0020 C.1     
   9 C9             2.2107     2.7500    -0.0043 C.1     
  10 C10            3.4348     3.4932    -0.0120 C.ar    
  11 C11            3.4269     4.8950    -0.0044 C.ar    
  12 C12            5.8289     3.5962    -0.0281 C.ar    
  13 C13            4.6290     5.5702    -0.0117 C.ar    
  14 N14           -2.3753     1.3838     0.0327 N.ar    
  15 C15           -1.2511     2.0611     0.0192 C.ar    
  16 C16            4.6744     2.8395    -0.0214 C.ar    
  17 N17            5.7748     4.9157    -0.0257 N.ar    
  18 C18           -6.1256    -0.6657     0.0572 C.3     
  19 C19           -7.1965     0.2307     0.6820 C.3     
  20 C20           -6.5256    -1.0139    -1.3779 C.3     
  21 F21           -7.3158     1.4062    -0.0672 F       
  22 F22           -8.4223    -0.4434     0.6901 F       
  23 F23           -6.8307     0.5491     1.9942 F       
  24 Cl24           7.3728     2.8026    -0.0463 Cl      
  25 H25            0.9369    -0.5448    -0.0102 H       
  26 H26           -1.2284    -1.7563     0.0040 H       
  27 H27           -4.8217     1.0100     0.0537 H       
  28 H28            2.4934     5.4379     0.0067 H       
  29 H29            4.6330     6.6502    -0.0063 H       
  30 H30           -1.2775     3.1408     0.0262 H       
  31 H31            4.7256     1.7607    -0.0230 H       
  32 H32           -6.0326    -1.5816     0.6409 H       
  33 H33           -6.6185    -0.0981    -1.9616 H       
  34 H34           -5.7627    -1.6526    -1.8230 H       
  35 H35           -7.4807    -1.5392    -1.3716 H       
@<TRIPOS>BOND
   1    1    2 ar
   2    1    8 1
   3    1   15 ar
   4    2    3 ar
   5    2   25 1
   6    3    4 ar
   7    3   26 1
   8    4   14 ar
   9    4    5 1
  10    5    6 am
  11    5    7 2
  12    6   18 1
  13    6   27 1
  14    8    9 3
  15    9   10 1
  16   10   11 ar
  17   10   16 ar
  18   11   13 ar
  19   11   28 1
  20   12   17 ar
  21   12   24 1
  22   12   16 ar
  23   13   17 ar
  24   13   29 1
  25   14   15 ar
  26   15   30 1
  27   16   31 1
  28   18   20 1
  29   18   19 1
  30   18   32 1
  31   19   21 1
  32   19   22 1
  33   19   23 1
  34   20   33 1
  35   20   34 1
  36   20   35 1

#	End of record

