#	Name: ASD01948324
#	Creating user name:	WinNT
#	Creation time:	15. 06. 2019 20:14

#	Modifying user name:	WinNT
#	Modification time:	15. 06. 2019 20:14

#	Program:	/corina/corina34_cracker 3.40 0067  02.08.2006

@<TRIPOS>MOLECULE
ASD01948324
  56   59    0    0    0
SMALL
NO_CHARGES


@<TRIPOS>ATOM
   1 C1             0.5443     1.9295     0.0155 C.2     
   2 N2             0.7361     0.5914    -0.1693 N.am    
   3 C3             1.9737     0.0639    -0.1989 C.2     
   4 C4             2.9141     2.2464     0.1481 C.2     
   5 C5             1.5975     2.7651     0.1740 C.2     
   6 C6             3.4215     4.2508    -1.7253 C.ar    
   7 C7             4.2297     4.1240    -0.6034 C.ar    
   8 N8             4.0057     3.0869     0.3083 N.pl3   
   9 C9             3.6453     5.2755    -2.6242 C.ar    
  10 C10            4.6733     6.1757    -2.4086 C.ar    
  11 C11            5.4812     6.0535    -1.2924 C.ar    
  12 C12            5.2629     5.0301    -0.3884 C.ar    
  13 N13            1.3846     4.1402     0.3638 N.am    
  14 S14           -0.1575     4.7431     0.3935 S.o2    
  15 C15           -0.9013     4.0108     1.8771 C.3     
  16 O16            2.1193    -1.1380    -0.3655 O.2     
  17 C17           -0.4249    -0.2861    -0.3379 C.3     
  18 F18            6.0515     4.9108     0.7020 F       
  19 I19            5.0075     7.7276    -3.7757 I       
  20 O20            0.0167     6.1432     0.5623 O.2     
  21 O21           -0.7623     4.2162    -0.7794 O.2     
  22 C22            3.0951     0.8865    -0.0402 C.2     
  23 O23           -1.6288     0.4894    -0.3056 O.3     
  24 F24            4.3389     0.3600    -0.0695 F       
  25 C25           -2.3239     4.4411     2.2401 C.3     
  26 C26           -2.0681     3.0415     1.6775 C.3     
  27 C27            0.0658     3.7254     3.0279 C.3     
  28 C28            0.6627     5.0414     3.5307 C.3     
  29 C29            1.5288     4.7709     4.7625 C.3     
  30 C30           -2.3189     0.3766    -1.5603 C.3     
  31 C31           -1.8432    -0.9688    -2.1642 C.3     
  32 C32           -0.3574    -0.9857    -1.7124 C.3     
  33 H33           -0.4596     2.3275     0.0310 H       
  34 H34            2.6213     3.5462    -1.8973 H       
  35 H35            4.6137     2.9557     1.0526 H       
  36 H36            3.0168     5.3739    -3.4970 H       
  37 H37            6.2835     6.7574    -1.1272 H       
  38 H38            2.1409     4.7369     0.4775 H       
  39 H39           -0.4436    -1.0312     0.4574 H       
  40 H40           -2.5710     4.5206     3.2987 H       
  41 H41           -2.8129     5.1643     1.5874 H       
  42 H42           -2.3889     2.8439     0.6547 H       
  43 H43           -2.1470     2.2002     2.3660 H       
  44 H44           -0.4709     3.2360     3.8406 H       
  45 H45            0.8661     3.0740     2.6769 H       
  46 H46            1.2754     5.4856     2.7462 H       
  47 H47           -0.1417     5.7275     3.7957 H       
  48 H48            1.9541     5.7084     5.1207 H       
  49 H49            0.9161     4.3267     5.5470 H       
  50 H50            2.3333     4.0848     4.4975 H       
  51 H51           -3.3967     0.3589    -1.3991 H       
  52 H52           -2.0473     1.2031    -2.2171 H       
  53 H53           -2.3933    -1.8073    -1.7371 H       
  54 H54           -1.9232    -0.9616    -3.2512 H       
  55 H55            0.2653    -0.4201    -2.4055 H       
  56 H56            0.0051    -2.0085    -1.6096 H       
@<TRIPOS>BOND
   1    1    2 1
   2    1    5 2
   3    1   33 1
   4    2    3 am
   5    2   17 1
   6    3   22 1
   7    3   16 2
   8    4    5 1
   9    4    8 1
  10    4   22 2
  11    5   13 1
  12    6    7 ar
  13    6    9 ar
  14    6   34 1
  15    7    8 1
  16    7   12 ar
  17    8   35 1
  18    9   10 ar
  19    9   36 1
  20   10   11 ar
  21   10   19 1
  22   11   12 ar
  23   11   37 1
  24   12   18 1
  25   13   14 am
  26   13   38 1
  27   14   15 1
  28   14   20 2
  29   14   21 2
  30   15   25 1
  31   15   27 1
  32   15   26 1
  33   17   23 1
  34   17   32 1
  35   17   39 1
  36   22   24 1
  37   23   30 1
  38   25   26 1
  39   25   40 1
  40   25   41 1
  41   26   42 1
  42   26   43 1
  43   27   28 1
  44   27   44 1
  45   27   45 1
  46   28   29 1
  47   28   46 1
  48   28   47 1
  49   29   48 1
  50   29   49 1
  51   29   50 1
  52   30   31 1
  53   30   51 1
  54   30   52 1
  55   31   32 1
  56   31   53 1
  57   31   54 1
  58   32   55 1
  59   32   56 1

#	End of record

