#	Name: ASD05130098
#	Creating user name:	WinNT
#	Creation time:	15. 06. 2019 20:56

#	Modifying user name:	WinNT
#	Modification time:	15. 06. 2019 20:56

#	Program:	/corina/corina34_cracker 3.40 0067  02.08.2006

@<TRIPOS>MOLECULE
ASD05130098
  60   63    0    0    0
SMALL
NO_CHARGES


@<TRIPOS>ATOM
   1 C1            -2.2713     1.4530     0.1144 C.2     
   2 C2            -2.2400    -0.0537     0.1188 C.3     
   3 O3            -3.3339     2.0375     0.1237 O.2     
   4 N4            -1.1184     2.1510     0.1056 N.am    
   5 O5            -3.5770    -0.5578     0.1345 O.3     
   6 C6            -3.6603    -1.9844     0.1399 C.3     
   7 N7             1.1496     6.3886     0.0789 N.am    
   8 C8             1.0999     7.7308    -0.0300 C.2     
   9 C9            -0.1815     8.4067    -0.2480 C.2     
  10 C10           -1.3279     7.6660    -0.3409 C.2     
  11 C11           -1.2491     6.2576    -0.2237 C.ar    
  12 C12           -2.3969     5.4602    -0.3129 C.ar    
  13 N13           -2.3060     4.1530    -0.2018 N.ar    
  14 C14           -1.1455     3.5382    -0.0037 C.ar    
  15 C15            0.0395     4.2511     0.0968 C.ar    
  16 C16            0.0011     5.6369    -0.0135 C.ar    
  17 O17            2.1243     8.3846     0.0536 O.2     
  18 C18            2.4378     5.7241     0.2912 C.3     
  19 C19            2.7073     5.6019     1.7924 C.3     
  20 C20           -0.2354     9.8826    -0.3667 C.ar    
  21 C21            0.1991    10.5068    -1.5371 C.ar    
  22 C22            0.1481    11.8828    -1.6457 C.ar    
  23 C23           -0.3334    12.6459    -0.5963 C.ar    
  24 C24           -0.7684    12.0309     0.5735 C.ar    
  25 C25           -0.7256    10.6508     0.6879 C.ar    
  26 N26           -1.2551    12.8070     1.6339 N.am    
  27 C27           -2.2610    12.3435     2.4019 C.2     
  28 O28           -2.6907    11.2195     2.2277 O.2     
  29 N29           -2.7905    13.1260     3.3631 N.am    
  30 C30           -3.7686    12.6134     4.2226 C.ar    
  31 C31           -3.8115    13.0207     5.5495 C.ar    
  32 C32           -4.7781    12.5128     6.3953 C.ar    
  33 C33           -5.7025    11.5997     5.9221 C.ar    
  34 C34           -5.6624    11.1921     4.6013 C.ar    
  35 C35           -4.7019    11.7006     3.7490 C.ar    
  36 F36           -0.3807    13.9915    -0.7078 F       
  37 Cl37           0.8043     9.5538    -2.8559 Cl      
  38 H38           -1.7282    -0.4091    -0.7755 H       
  39 H39           -1.7094    -0.4034     1.0044 H       
  40 H40           -0.2697     1.6865     0.1755 H       
  41 H41           -3.1779    -2.3799    -0.7539 H       
  42 H42           -3.1591    -2.3742     1.0260 H       
  43 H43           -4.7073    -2.2872     0.1519 H       
  44 H44           -2.2802     8.1495    -0.5012 H       
  45 H45           -3.3606     5.9207    -0.4728 H       
  46 H46            0.9765     3.7388     0.2582 H       
  47 H47            2.4118     4.7301    -0.1553 H       
  48 H48            3.2302     6.3107    -0.1736 H       
  49 H49            1.9148     5.0153     2.2572 H       
  50 H50            3.6657     5.1074     1.9504 H       
  51 H51            2.7332     6.5958     2.2389 H       
  52 H52            0.4850    12.3644    -2.5518 H       
  53 H53           -1.0670    10.1717     1.5936 H       
  54 H54           -0.8681    13.6778     1.8151 H       
  55 H55           -2.4937    14.0444     3.4591 H       
  56 H56           -3.0896    13.7335     5.9198 H       
  57 H57           -4.8118    12.8290     7.4275 H       
  58 H58           -6.4571    11.2038     6.5856 H       
  59 H59           -6.3858    10.4789     4.2347 H       
  60 H60           -4.6741    11.3855     2.7164 H       
@<TRIPOS>BOND
   1    1    2 1
   2    1    3 2
   3    1    4 am
   4    2    5 1
   5    2   38 1
   6    2   39 1
   7    4   14 1
   8    4   40 1
   9    5    6 1
  10    6   41 1
  11    6   42 1
  12    6   43 1
  13    7    8 am
  14    7   16 1
  15    7   18 1
  16    8    9 1
  17    8   17 2
  18    9   10 2
  19    9   20 1
  20   10   11 1
  21   10   44 1
  22   11   12 ar
  23   11   16 ar
  24   12   13 ar
  25   12   45 1
  26   13   14 ar
  27   14   15 ar
  28   15   16 ar
  29   15   46 1
  30   18   19 1
  31   18   47 1
  32   18   48 1
  33   19   49 1
  34   19   50 1
  35   19   51 1
  36   20   21 ar
  37   20   25 ar
  38   21   22 ar
  39   21   37 1
  40   22   23 ar
  41   22   52 1
  42   23   24 ar
  43   23   36 1
  44   24   25 ar
  45   24   26 1
  46   25   53 1
  47   26   27 am
  48   26   54 1
  49   27   28 2
  50   27   29 am
  51   29   30 1
  52   29   55 1
  53   30   31 ar
  54   30   35 ar
  55   31   32 ar
  56   31   56 1
  57   32   33 ar
  58   32   57 1
  59   33   34 ar
  60   33   58 1
  61   34   35 ar
  62   34   59 1
  63   35   60 1

#	End of record

