#	Name: ASD05062023
#	Creating user name:	WinNT
#	Creation time:	15. 06. 2019 20:56

#	Modifying user name:	WinNT
#	Modification time:	15. 06. 2019 20:56

#	Program:	/corina/corina34_cracker 3.40 0067  02.08.2006

@<TRIPOS>MOLECULE
ASD05062023
  27   28    0    0    0
SMALL
NO_CHARGES


@<TRIPOS>ATOM
   1 C1            -0.0167     1.3824     0.0096 C.ar    
   2 C2             0.0021    -0.0041     0.0020 C.ar    
   3 C3             1.2065    -0.6840    -0.0131 C.ar    
   4 C4             2.4040     0.0352    -0.0207 C.ar    
   5 C5             2.3820     1.4377    -0.0129 C.ar    
   6 C6             1.1587     2.1017     0.0023 C.ar    
   7 C7             3.8277    -0.3472    -0.0371 C.2     
   8 C8             4.5408     0.8184    -0.0380 C.2     
   9 N9             3.6914     1.8733    -0.0238 N.pl3   
  10 O10            1.2247    -2.0426    -0.0201 O.3     
  11 C11            4.3721    -1.7115    -0.0495 C.2     
  12 O12            3.6181    -2.6681    -0.0466 O.2     
  13 C13            5.8248    -1.9220    -0.0653 C.2     
  14 C14            6.3260    -3.1780    -0.0767 C.2     
  15 O15            5.4879    -4.2413    -0.0735 O.3     
  16 C16            7.7902    -3.3901    -0.0927 C.2     
  17 O17            8.5419    -2.4365    -0.0956 O.2     
  18 O18            8.2895    -4.6414    -0.1040 O.3     
  19 H19           -0.9624     1.9040     0.0169 H       
  20 H20           -0.9269    -0.5549     0.0083 H       
  21 H21            1.1307     3.1813     0.0080 H       
  22 H22            5.6185     0.8879    -0.0482 H       
  23 H23            3.9650     2.8039    -0.0222 H       
  24 H24            1.2214    -2.4314    -0.9055 H       
  25 H25            6.4933    -1.0738    -0.0679 H       
  26 H26            5.9381    -5.0970    -0.0824 H       
  27 H27            9.2524    -4.7298    -0.1143 H       
@<TRIPOS>BOND
   1    1    2 ar
   2    1    6 ar
   3    1   19 1
   4    2    3 ar
   5    2   20 1
   6    3    4 ar
   7    3   10 1
   8    4    5 ar
   9    4    7 1
  10    5    6 ar
  11    5    9 1
  12    6   21 1
  13    7    8 2
  14    7   11 1
  15    8    9 1
  16    8   22 1
  17    9   23 1
  18   10   24 1
  19   11   12 2
  20   11   13 1
  21   13   14 2
  22   13   25 1
  23   14   15 1
  24   14   16 1
  25   15   26 1
  26   16   17 2
  27   16   18 1
  28   18   27 1

#	End of record

