#	Name: ASD03200021
#	Creating user name:	WinNT
#	Creation time:	15. 06. 2019 20:34

#	Modifying user name:	WinNT
#	Modification time:	15. 06. 2019 20:34

#	Program:	/corina/corina34_cracker 3.40 0067  02.08.2006

@<TRIPOS>MOLECULE
ASD03200021
  51   54    0    0    0
SMALL
NO_CHARGES


@<TRIPOS>ATOM
   1 C1             0.9662    -1.0292    -0.1620 C.3     
   2 N2            -0.0316     0.0366    -0.0040 N.3     
   3 C3             0.2999     0.9107     1.1284 C.3     
   4 C4             1.6482     1.5884     0.8736 C.3     
   5 C5             2.7277     0.5167     0.6989 C.3     
   6 C6             2.3344    -0.4094    -0.4553 C.3     
   7 C7            -1.3129    -0.4951     0.1338 C.ar    
   8 C8            -2.0182    -0.3608     1.3271 C.ar    
   9 C9            -3.2846    -0.9008     1.4239 C.ar    
  10 N10           -3.8306    -1.5387     0.4059 N.ar    
  11 C11           -3.1993    -1.6900    -0.7433 C.ar    
  12 C12           -1.9273    -1.1733    -0.9258 C.ar    
  13 N13           -1.2615    -1.3361    -2.1481 N.am    
  14 C14           -1.4475    -2.4573    -2.8727 C.2     
  15 C15           -0.8522    -2.5748    -4.2066 C.2     
  16 O16           -2.1101    -3.3723    -2.4190 O.2     
  17 C17           -0.9597    -3.6652    -5.0614 C.2     
  18 N18           -0.2575    -3.3477    -6.1863 N.pl3   
  19 C19            0.2613    -2.0897    -6.0087 C.2     
  20 N20           -0.0999    -1.6363    -4.8353 N.2     
  21 C21            1.0921    -1.3596    -6.9902 C.ar    
  22 N22            1.9894     2.4465     2.0161 N.3     
  23 N23           -1.6423    -4.8384    -4.8192 N.pl3   
  24 C24            1.5639    -0.0798    -6.6947 C.ar    
  25 C25            2.3389     0.5958    -7.6146 C.ar    
  26 C26            2.6483     0.0075    -8.8280 C.ar    
  27 C27            2.1833    -1.2607    -9.1273 C.ar    
  28 C28            1.4126    -1.9496    -8.2136 C.ar    
  29 H29            1.0216    -1.6138     0.7562 H       
  30 H30            0.6767    -1.6780    -0.9886 H       
  31 H31           -0.4734     1.6709     1.2390 H       
  32 H32            0.3585     0.3170     2.0406 H       
  33 H33            1.5863     2.1934    -0.0309 H       
  34 H34            3.6817     0.9937     0.4743 H       
  35 H35            2.8169    -0.0636     1.6173 H       
  36 H36            3.0777    -1.2000    -0.5571 H       
  37 H37            2.2832     0.1642    -1.3808 H       
  38 H38           -1.5796     0.1590     2.1661 H       
  39 H39           -3.8369    -0.8001     2.3466 H       
  40 H40           -3.6818    -2.2189    -1.5519 H       
  41 H41           -0.6668    -0.6420    -2.4727 H       
  42 H42           -0.1448    -3.9090    -6.9693 H       
  43 H43            2.8764     2.9054     1.8715 H       
  44 H44            1.2589     3.1195     2.1938 H       
  45 H45           -2.1115    -4.9620    -3.9794 H       
  46 H46           -1.6532    -5.5402    -5.4888 H       
  47 H47            1.3225     0.3807    -5.7481 H       
  48 H48            2.7047     1.5862    -7.3871 H       
  49 H49            3.2550     0.5408    -9.5449 H       
  50 H50            2.4280    -1.7143   -10.0765 H       
  51 H51            1.0505    -2.9396    -8.4483 H       
@<TRIPOS>BOND
   1    1    2 1
   2    1    6 1
   3    1   29 1
   4    1   30 1
   5    2    3 1
   6    2    7 1
   7    3    4 1
   8    3   31 1
   9    3   32 1
  10    4    5 1
  11    4   22 1
  12    4   33 1
  13    5    6 1
  14    5   34 1
  15    5   35 1
  16    6   36 1
  17    6   37 1
  18    7    8 ar
  19    7   12 ar
  20    8    9 ar
  21    8   38 1
  22    9   10 ar
  23    9   39 1
  24   10   11 ar
  25   11   12 ar
  26   11   40 1
  27   12   13 1
  28   13   14 am
  29   13   41 1
  30   14   15 1
  31   14   16 2
  32   15   17 2
  33   15   20 1
  34   17   18 1
  35   17   23 1
  36   18   19 1
  37   18   42 1
  38   19   20 2
  39   19   21 1
  40   21   24 ar
  41   21   28 ar
  42   22   43 1
  43   22   44 1
  44   23   45 1
  45   23   46 1
  46   24   25 ar
  47   24   47 1
  48   25   26 ar
  49   25   48 1
  50   26   27 ar
  51   26   49 1
  52   27   28 ar
  53   27   50 1
  54   28   51 1

#	End of record

