#	Name: ASD05430579
#	Creating user name:	WinNT
#	Creation time:	15. 06. 2019 21:00

#	Modifying user name:	WinNT
#	Modification time:	15. 06. 2019 21:00

#	Program:	/corina/corina34_cracker 3.40 0067  02.08.2006

@<TRIPOS>MOLECULE
ASD05430579
  33   34    0    0    0
SMALL
NO_CHARGES


@<TRIPOS>ATOM
   1 N1            -0.0153     1.2790     0.0091 N.ar    
   2 N2             0.0021    -0.0041     0.0020 N.ar    
   3 C3             1.0969     1.9963     0.0023 C.ar    
   4 C4             2.3144     1.3568    -0.0132 C.ar    
   5 C5             2.3467    -0.0371    -0.0287 C.ar    
   6 C6             1.1207    -0.7010    -0.0165 C.ar    
   7 C7             1.0298     3.5018     0.0110 C.3     
   8 C8             1.0748    -2.2073    -0.0240 C.3     
   9 C9             0.3544    -2.7018     1.2320 C.3     
  10 C10            0.3223    -2.6885    -1.2662 C.3     
  11 C11            0.2747     3.9858    -1.2286 C.3     
  12 C12            0.2985     3.9725     1.2698 C.3     
  13 C13            3.7496     1.8333    -0.0082 C.3     
  14 C14            4.5147     0.5415     0.3689 C.3     
  15 O15            3.6204    -0.4992    -0.0638 O.3     
  16 H16            2.0402     3.9106     0.0035 H       
  17 H17            2.0908    -2.6017    -0.0391 H       
  18 H18           -0.6616    -2.3074     1.2472 H       
  19 H19            0.3212    -3.7913     1.2266 H       
  20 H20            0.8905    -2.3590     2.1170 H       
  21 H21            0.8355    -2.3362    -2.1610 H       
  22 H22            0.2891    -3.7780    -1.2716 H       
  23 H23           -0.6937    -2.2941    -1.2511 H       
  24 H24           -0.7357     3.5771    -1.2211 H       
  25 H25            0.2262     5.0747    -1.2223 H       
  26 H26            0.7957     3.6505    -2.1253 H       
  27 H27            0.2500     5.0614     1.2761 H       
  28 H28           -0.7119     3.5637     1.2772 H       
  29 H29            0.8365     3.6277     2.1528 H       
  30 H30            4.0459     2.1872    -0.9957 H       
  31 H31            3.9001     2.6085     0.7431 H       
  32 H32            5.4620     0.4837    -0.1672 H       
  33 H33            4.6757     0.4889     1.4457 H       
@<TRIPOS>BOND
   1    1    2 ar
   2    1    3 ar
   3    2    6 ar
   4    3    4 ar
   5    3    7 1
   6    4    5 ar
   7    4   13 1
   8    5    6 ar
   9    5   15 1
  10    6    8 1
  11    7   11 1
  12    7   12 1
  13    7   16 1
  14    8    9 1
  15    8   10 1
  16    8   17 1
  17    9   18 1
  18    9   19 1
  19    9   20 1
  20   10   21 1
  21   10   22 1
  22   10   23 1
  23   11   24 1
  24   11   25 1
  25   11   26 1
  26   12   27 1
  27   12   28 1
  28   12   29 1
  29   13   14 1
  30   13   30 1
  31   13   31 1
  32   14   15 1
  33   14   32 1
  34   14   33 1

#	End of record

