#	Name: ASD01230847
#	Creating user name:	WinNT
#	Creation time:	15. 06. 2019 19:15

#	Modifying user name:	WinNT
#	Modification time:	15. 06. 2019 19:15

#	Program:	/corina/corina34_cracker 3.40 0067  02.08.2006

@<TRIPOS>MOLECULE
ASD01230847
  49   52    0    0    0
SMALL
NO_CHARGES


@<TRIPOS>ATOM
   1 C1            -0.2123     2.2466     0.4924 C.3     
   2 C2            -0.3694     0.9094     1.2213 C.3     
   3 C3            -1.8373     0.5525     1.4081 C.3     
   4 C4            -2.7290     1.1485     0.3277 C.3     
   5 N5            -1.9925     1.3434    -0.9233 N.pl3   
   6 C6            -0.8394     2.0835    -0.8816 C.2     
   7 C7            -2.4608     0.7340    -2.1655 C.3     
   8 C8            -2.5507     1.8032    -3.2556 C.3     
   9 S9            -0.9492     2.6363    -3.4131 S.o2    
  10 N10           -0.3114     2.6497    -1.8947 N.am    
  11 C11            1.2492     2.5868     0.3527 C.ar    
  12 O12           -0.0453     1.8356    -4.1621 O.2     
  13 O13           -1.1336     4.0105    -3.7241 O.2     
  14 C14            1.7440     3.7492     0.9148 C.ar    
  15 C15            3.0833     4.0631     0.7887 C.ar    
  16 C16            3.9323     3.2107     0.0972 C.ar    
  17 C17            3.4331     2.0448    -0.4659 C.ar    
  18 C18            2.0941     1.7331    -0.3323 C.ar    
  19 O19            5.2500     3.5174    -0.0287 O.3     
  20 C20            6.0997     3.0941     0.9445 C.ar    
  21 C21            7.4338     3.4804     0.9189 C.ar    
  22 C22            8.2983     3.0496     1.9093 C.ar    
  23 C23            7.8360     2.2341     2.9260 C.ar    
  24 C24            6.5032     1.8465     2.9548 C.ar    
  25 C25            5.6340     2.2811     1.9666 C.ar    
  26 Cl26           8.9233     1.6940     4.1669 Cl      
  27 F27            7.8873     4.2767    -0.0738 F       
  28 O28            6.0498     1.0443     3.9546 O.3     
  29 C29            4.6671     0.6849     3.9214 C.3     
  30 H30           -0.7254     3.0336     1.0452 H       
  31 H31            0.1173     0.1263     0.6399 H       
  32 H32            0.1088     0.9769     2.1985 H       
  33 H33           -1.9407    -0.5324     1.3908 H       
  34 H34           -2.1680     0.9200     2.3795 H       
  35 H35           -3.5680     0.4767     0.1467 H       
  36 H36           -3.1107     2.1102     0.6705 H       
  37 H37           -1.7618    -0.0428    -2.4752 H       
  38 H38           -3.4453     0.2943    -2.0058 H       
  39 H39           -2.8115     1.3342    -4.2044 H       
  40 H40           -3.3152     2.5324    -2.9877 H       
  41 H41            1.0827     4.4124     1.4526 H       
  42 H42            3.4692     4.9713     1.2276 H       
  43 H43            4.0918     1.3798    -1.0046 H       
  44 H44            1.7050     0.8258    -0.7704 H       
  45 H45            9.3354     3.3502     1.8883 H       
  46 H46            4.5970     1.9802     1.9881 H       
  47 H47            4.4375     0.0448     4.7732 H       
  48 H48            4.0562     1.5864     3.9693 H       
  49 H49            4.4529     0.1496     2.9964 H       
@<TRIPOS>BOND
   1    1    2 1
   2    1   11 1
   3    1    6 1
   4    1   30 1
   5    2    3 1
   6    2   31 1
   7    2   32 1
   8    3    4 1
   9    3   33 1
  10    3   34 1
  11    4    5 1
  12    4   35 1
  13    4   36 1
  14    5    6 1
  15    5    7 1
  16    6   10 2
  17    7    8 1
  18    7   37 1
  19    7   38 1
  20    8    9 1
  21    8   39 1
  22    8   40 1
  23    9   10 am
  24    9   12 2
  25    9   13 2
  26   11   14 ar
  27   11   18 ar
  28   14   15 ar
  29   14   41 1
  30   15   16 ar
  31   15   42 1
  32   16   17 ar
  33   16   19 1
  34   17   18 ar
  35   17   43 1
  36   18   44 1
  37   19   20 1
  38   20   21 ar
  39   20   25 ar
  40   21   22 ar
  41   21   27 1
  42   22   23 ar
  43   22   45 1
  44   23   24 ar
  45   23   26 1
  46   24   25 ar
  47   24   28 1
  48   25   46 1
  49   28   29 1
  50   29   47 1
  51   29   48 1
  52   29   49 1

#	End of record

