#	Name: ASD01813684
#	Creating user name:	WinNT
#	Creation time:	15. 06. 2019 19:30

#	Modifying user name:	WinNT
#	Modification time:	15. 06. 2019 19:30

#	Program:	/corina/corina34_cracker 3.40 0067  02.08.2006

@<TRIPOS>MOLECULE
ASD01813684
  50   52    0    0    0
SMALL
NO_CHARGES


@<TRIPOS>ATOM
   1 C1             0.0979     1.4669     0.3533 C.ar    
   2 C2             0.0800     0.0797     0.3433 C.ar    
   3 C3             1.2506    -0.6389     0.2154 C.ar    
   4 C4             2.4681     0.0303     0.0944 C.ar    
   5 C5             2.4815     1.4350     0.1050 C.ar    
   6 C6             1.2895     2.1477     0.2351 C.ar    
   7 N7             3.6456    -0.6754    -0.0336 N.pl3   
   8 C8             4.8390    -0.0803    -0.1518 C.2     
   9 C9             4.9789     1.2932    -0.1546 C.2     
  10 C10            3.7757     2.1306    -0.0237 C.2     
  11 F11            1.2176    -1.9895     0.2077 F       
  12 O12            3.8459     3.3471    -0.0210 O.2     
  13 C13            6.3071     1.9087    -0.2856 C.2     
  14 O14            6.4307     3.2510    -0.2870 O.3     
  15 O15            7.2942     1.2073    -0.3927 O.2     
  16 C16            3.5885    -2.1393    -0.0402 C.3     
  17 C17            3.4449    -2.6301    -1.4578 C.ar    
  18 C18            4.5543    -2.7765    -2.2715 C.ar    
  19 C19            4.3823    -3.2319    -3.5739 C.ar    
  20 N20            3.1751    -3.5223    -4.0323 N.ar    
  21 C21            2.0993    -3.3926    -3.2795 C.ar    
  22 C22            2.1971    -2.9511    -1.9750 C.ar    
  23 N23            5.4914    -3.3835    -4.4046 N.am    
  24 C24            5.3457    -3.9211    -5.6319 C.2     
  25 O25            6.4289    -4.1621    -6.3943 O.3     
  26 O26            4.2367    -4.1882    -6.0504 O.2     
  27 C27            6.1968    -4.7422    -7.7049 C.3     
  28 C28            5.3145    -3.8027    -8.5295 C.3     
  29 C29            7.5353    -4.9421    -8.4185 C.3     
  30 C30            5.4959    -6.0931    -7.5478 C.3     
  31 H31           -0.8273     2.0157     0.4498 H       
  32 H32           -0.8604    -0.4431     0.4370 H       
  33 H33            1.3008     3.2276     0.2428 H       
  34 H34            5.7217    -0.6951    -0.2478 H       
  35 H35            7.3244     3.6095    -0.3756 H       
  36 H36            4.5050    -2.5406     0.3922 H       
  37 H37            2.7332    -2.4722     0.5479 H       
  38 H38            5.5404    -2.5398    -1.9001 H       
  39 H39            1.1303    -3.6388    -3.6878 H       
  40 H40            1.3111    -2.8482    -1.3660 H       
  41 H41            6.3681    -3.1021    -4.0994 H       
  42 H42            5.8139    -2.8403    -8.6414 H       
  43 H43            5.1403    -4.2382    -9.5134 H       
  44 H44            4.3609    -3.6603    -8.0211 H       
  45 H45            8.1639    -5.6114    -7.8311 H       
  46 H46            7.3611    -5.3776    -9.4024 H       
  47 H47            8.0347    -3.9797    -8.5305 H       
  48 H48            4.5423    -5.9507    -7.0394 H       
  49 H49            5.3216    -6.5286    -8.5317 H       
  50 H50            6.1244    -6.7624    -6.9604 H       
@<TRIPOS>BOND
   1    1    2 ar
   2    1    6 ar
   3    1   31 1
   4    2    3 ar
   5    2   32 1
   6    3    4 ar
   7    3   11 1
   8    4    5 ar
   9    4    7 1
  10    5    6 ar
  11    5   10 1
  12    6   33 1
  13    7    8 1
  14    7   16 1
  15    8    9 2
  16    8   34 1
  17    9   10 1
  18    9   13 1
  19   10   12 2
  20   13   14 1
  21   13   15 2
  22   14   35 1
  23   16   17 1
  24   16   36 1
  25   16   37 1
  26   17   18 ar
  27   17   22 ar
  28   18   19 ar
  29   18   38 1
  30   19   20 ar
  31   19   23 1
  32   20   21 ar
  33   21   22 ar
  34   21   39 1
  35   22   40 1
  36   23   24 am
  37   23   41 1
  38   24   25 1
  39   24   26 2
  40   25   27 1
  41   27   28 1
  42   27   29 1
  43   27   30 1
  44   28   42 1
  45   28   43 1
  46   28   44 1
  47   29   45 1
  48   29   46 1
  49   29   47 1
  50   30   48 1
  51   30   49 1
  52   30   50 1

#	End of record

