#	Name: ASD00120020
#	Creating user name:	WinNT
#	Creation time:	15. 06. 2019 18:31

#	Modifying user name:	WinNT
#	Modification time:	15. 06. 2019 18:31

#	Program:	/corina/corina34_cracker 3.40 0067  02.08.2006

@<TRIPOS>MOLECULE
ASD00120020
  29   30    0    0    0
SMALL
NO_CHARGES


@<TRIPOS>ATOM
   1 C1            -0.0187     1.5277     0.0104 C.3     
   2 C2             0.0021    -0.0041     0.0020 C.3     
   3 C3             1.4219     2.0472    -0.0005 C.3     
   4 C4             1.4598    -0.4787     0.0073 C.3     
   5 C5             2.1713     0.1235     1.2239 C.3     
   6 O6             2.1119     1.5495     1.1483 O.3     
   7 C7             1.4811    -0.3492     2.5049 C.3     
   8 C8             3.6333    -0.3274     1.2353 C.3     
   9 C9             2.1495     0.0242    -1.2663 C.3     
  10 C10            2.1271     1.5557    -1.2679 C.3     
  11 C11            1.4150     3.5768     0.0290 C.3     
  12 H12           -0.5437     1.8901    -0.8734 H       
  13 H13           -0.5267     1.8805     0.9080 H       
  14 H14           -0.5081    -0.3812     0.8884 H       
  15 H15           -0.4984    -0.3713    -0.8940 H       
  16 H16            1.4965    -1.5670     0.0558 H       
  17 H17            1.5242    -1.4369     2.5607 H       
  18 H18            1.9874     0.0793     3.3698 H       
  19 H19            0.4399    -0.0268     2.4968 H       
  20 H20            4.1249     0.0106     0.3231 H       
  21 H21            4.1389     0.1011     2.1007 H       
  22 H22            3.6776    -1.4151     1.2904 H       
  23 H23            3.1815    -0.3261    -1.2856 H       
  24 H24            1.6182    -0.3498    -2.1415 H       
  25 H25            1.5884     1.9115    -2.1461 H       
  26 H26            3.1488     1.9351    -1.2870 H       
  27 H27            0.9126     3.9205     0.9331 H       
  28 H28            2.4409     3.9450     0.0211 H       
  29 H29            0.8867     3.9548    -0.8463 H       
@<TRIPOS>BOND
   1    1    2 1
   2    1    3 1
   3    1   12 1
   4    1   13 1
   5    2    4 1
   6    2   14 1
   7    2   15 1
   8    3    6 1
   9    3   10 1
  10    3   11 1
  11    4    5 1
  12    4    9 1
  13    4   16 1
  14    5    7 1
  15    5    8 1
  16    5    6 1
  17    7   17 1
  18    7   18 1
  19    7   19 1
  20    8   20 1
  21    8   21 1
  22    8   22 1
  23    9   10 1
  24    9   23 1
  25    9   24 1
  26   10   25 1
  27   10   26 1
  28   11   27 1
  29   11   28 1
  30   11   29 1

#	End of record

