#	Name: ASD01811384
#	Creating user name:	WinNT
#	Creation time:	15. 06. 2019 19:26

#	Modifying user name:	WinNT
#	Modification time:	15. 06. 2019 19:26

#	Program:	/corina/corina34_cracker 3.40 0067  02.08.2006

@<TRIPOS>MOLECULE
ASD01811384
  17   17    0    0    0
SMALL
NO_CHARGES


@<TRIPOS>ATOM
   1 C1            -0.0452     1.3261    -0.0237 C.ar    
   2 C2             0.0347    -0.0540    -0.0494 C.ar    
   3 C3             1.2819    -0.6592    -0.0297 C.ar    
   4 C4             2.4077     0.1488     0.0154 C.ar    
   5 C5             2.2515     1.5217     0.0389 C.ar    
   6 N6             1.0488     2.0648     0.0191 N.ar    
   7 N7             1.4086    -2.1336    -0.0555 N.pl3   
   8 O8             2.3174    -2.6560    -0.6759 O.2     
   9 O9             0.6041    -2.8246     0.5435 O.2     
  10 C10            3.7848    -0.4626     0.0388 C.3     
  11 Br11          -1.7393     2.1655    -0.0582 Br      
  12 O12            0.9283     3.4754     0.0444 O.3     
  13 H13           -0.8633    -0.6531    -0.0841 H       
  14 H14            3.1237     2.1576     0.0740 H       
  15 H15            4.1035    -0.6795    -0.9807 H       
  16 H16            4.4848     0.2360     0.4973 H       
  17 H17            3.7624    -1.3864     0.6168 H       
@<TRIPOS>BOND
   1    1    2 ar
   2    1    6 ar
   3    1   11 1
   4    2    3 ar
   5    2   13 1
   6    3    4 ar
   7    3    7 1
   8    4    5 ar
   9    4   10 1
  10    5    6 ar
  11    5   14 1
  12    6   12 1
  13    7    8 2
  14    7    9 2
  15   10   15 1
  16   10   16 1
  17   10   17 1

#	End of record

