#	Name: ASD01920039
#	Creating user name:	WinNT
#	Creation time:	15. 06. 2019 20:11

#	Modifying user name:	WinNT
#	Modification time:	15. 06. 2019 20:11

#	Program:	/corina/corina34_cracker 3.40 0067  02.08.2006

@<TRIPOS>MOLECULE
ASD01920039
  53   55    0    0    0
SMALL
NO_CHARGES


@<TRIPOS>ATOM
   1 N1            -0.1167     1.4238    -0.8660 N.pl3   
   2 C2            -0.1056     0.0623    -0.9870 C.2     
   3 C3            -1.3510    -0.4069    -0.8021 C.2     
   4 C4            -2.2015     0.7633    -0.5457 C.2     
   5 C5            -1.3617     1.8606    -0.5961 C.2     
   6 C6             1.1098    -0.7785    -1.2816 C.3     
   7 C7            -1.7703     3.2970    -0.3934 C.3     
   8 C8             1.0102     2.2486    -0.9983 C.ar    
   9 C9            -3.6421     0.7664    -0.2842 C.2     
  10 O10           -4.2209     1.8148    -0.0881 O.2     
  11 C11           -4.4060    -0.5324    -0.2586 C.3     
  12 S12           -6.1551    -0.1983     0.0875 S.3     
  13 C13           -6.8751    -1.8065     0.0783 C.ar    
  14 C14           -8.2362    -1.9598     0.3117 C.ar    
  15 C15           -8.7999    -3.2199     0.3044 C.ar    
  16 C16           -8.0067    -4.3342     0.0642 C.ar    
  17 C17           -6.6464    -4.1814    -0.1692 C.ar    
  18 C18           -6.0830    -2.9212    -0.1681 C.ar    
  19 N19           -8.5793    -5.6134     0.0578 N.am    
  20 C20           -9.8253    -5.7916    -0.4241 C.2     
  21 O21          -10.4830    -4.8343    -0.7737 O.2     
  22 C22          -10.4013    -7.1802    -0.5286 C.3     
  23 C23            1.4766     2.9674     0.0940 C.ar    
  24 C24            1.6628     2.3419    -2.2201 C.ar    
  25 C25            2.7719     3.1539    -2.3498 C.ar    
  26 C26            3.2345     3.8762    -1.2593 C.ar    
  27 C27            2.5858     3.7791    -0.0367 C.ar    
  28 O28            4.3271     4.6748    -1.3873 O.3     
  29 C29            4.7482     5.3895    -0.2237 C.3     
  30 F30            3.7160     6.2306     0.2060 F       
  31 F31            5.0634     4.4814     0.7928 F       
  32 H32           -1.6648    -1.4398    -0.8358 H       
  33 H33            1.5861    -1.0693    -0.3453 H       
  34 H34            0.8095    -1.6719    -1.8292 H       
  35 H35            1.8128    -0.2026    -1.8834 H       
  36 H36           -1.6896     3.5520     0.6633 H       
  37 H37           -1.1159     3.9464    -0.9749 H       
  38 H38           -2.8009     3.4314    -0.7220 H       
  39 H39           -4.3150    -1.0265    -1.2259 H       
  40 H40           -3.9986    -1.1783     0.5191 H       
  41 H41           -8.8530    -1.0934     0.4992 H       
  42 H42           -9.8578    -3.3392     0.4858 H       
  43 H43           -6.0298    -5.0483    -0.3556 H       
  44 H44           -5.0250    -2.8024    -0.3500 H       
  45 H45           -8.0788    -6.3705     0.4001 H       
  46 H46          -10.9202    -7.4289     0.3971 H       
  47 H47          -11.1038    -7.2205    -1.3611 H       
  48 H48           -9.5964    -7.8957    -0.6975 H       
  49 H49            0.9718     2.8919     1.0458 H       
  50 H50            1.3032     1.7792    -3.0689 H       
  51 H51            3.2796     3.2266    -3.3003 H       
  52 H52            2.9461     4.3418     0.8118 H       
  53 H53            5.6279     5.9870    -0.4628 H       
@<TRIPOS>BOND
   1    1    2 1
   2    1    8 1
   3    1    5 1
   4    2    3 2
   5    2    6 1
   6    3    4 1
   7    3   32 1
   8    4    5 2
   9    4    9 1
  10    5    7 1
  11    6   33 1
  12    6   34 1
  13    6   35 1
  14    7   36 1
  15    7   37 1
  16    7   38 1
  17    8   24 ar
  18    8   23 ar
  19    9   10 2
  20    9   11 1
  21   11   12 1
  22   11   39 1
  23   11   40 1
  24   12   13 1
  25   13   14 ar
  26   13   18 ar
  27   14   15 ar
  28   14   41 1
  29   15   16 ar
  30   15   42 1
  31   16   17 ar
  32   16   19 1
  33   17   18 ar
  34   17   43 1
  35   18   44 1
  36   19   20 am
  37   19   45 1
  38   20   21 2
  39   20   22 1
  40   22   46 1
  41   22   47 1
  42   22   48 1
  43   23   27 ar
  44   23   49 1
  45   24   25 ar
  46   24   50 1
  47   25   26 ar
  48   25   51 1
  49   26   27 ar
  50   26   28 1
  51   27   52 1
  52   28   29 1
  53   29   30 1
  54   29   31 1
  55   29   53 1

#	End of record

