#	Name: ASD01913184
#	Creating user name:	WinNT
#	Creation time:	15. 06. 2019 20:01

#	Modifying user name:	WinNT
#	Modification time:	15. 06. 2019 20:01

#	Program:	/corina/corina34_cracker 3.40 0067  02.08.2006

@<TRIPOS>MOLECULE
ASD01913184
  52   55    0    0    0
SMALL
NO_CHARGES


@<TRIPOS>ATOM
   1 C1            -0.1537    -0.6954     1.5653 C.3     
   2 N2            -0.5148    -0.0166     0.3161 N.am    
   3 C3            -0.5294     1.4557     0.3277 C.3     
   4 C4            -1.6237     1.9065     1.2940 C.3     
   5 C5            -1.5315     1.1560     2.5965 C.ar    
   6 C6            -2.1564     1.7132     3.7064 C.ar    
   7 C7            -2.1199     1.0760     4.9291 C.ar    
   8 C8            -1.4574    -0.1297     5.0577 C.ar    
   9 C9            -0.8302    -0.6875     3.9565 C.ar    
  10 C10           -0.8647    -0.0408     2.7229 C.ar    
  11 C11           -0.8204    -0.7122    -0.7971 C.2     
  12 C12           -0.6691    -2.1807    -0.8147 C.ar    
  13 C13           -1.5676    -2.9655    -1.5362 C.ar    
  14 C14           -1.4194    -4.3507    -1.5494 C.ar    
  15 C15           -0.3658    -4.9458    -0.8359 C.ar    
  16 C16            0.5220    -4.1548    -0.1212 C.ar    
  17 C17            0.3790    -2.7842    -0.1125 C.ar    
  18 O18           -1.2207    -0.1304    -1.7867 O.2     
  19 C19           -2.3378    -5.1647    -2.2873 C.1     
  20 C20           -3.0907    -5.8321    -2.8922 C.1     
  21 C21           -4.0092    -6.6462    -3.6301 C.ar    
  22 C22           -3.8534    -8.0352    -3.6383 C.ar    
  23 C23           -4.7489    -8.8067    -4.3557 C.ar    
  24 C24           -5.7728    -8.1683    -5.0434 C.ar    
  25 C25           -5.8691    -6.7899    -4.9930 C.ar    
  26 N26           -5.0073    -6.0757    -4.2982 N.ar    
  27 O27           -0.2168    -6.2937    -0.8454 O.3     
  28 C28            0.8763    -6.8308    -0.0980 C.3     
  29 O29           -0.1771    -1.8729     4.0796 O.3     
  30 C30           -0.1795    -2.4838     5.3715 C.3     
  31 H31           -0.4462    -1.7438     1.5060 H       
  32 H32            0.9237    -0.6281     1.7164 H       
  33 H33            0.4371     1.8315     0.6637 H       
  34 H34           -0.7438     1.8304    -0.6732 H       
  35 H35           -1.5144     2.9737     1.4867 H       
  36 H36           -2.5986     1.7225     0.8425 H       
  37 H37           -2.6755     2.6554     3.6102 H       
  38 H38           -2.6081     1.5188     5.7846 H       
  39 H39           -1.4286    -0.6342     6.0122 H       
  40 H40           -2.3756    -2.5015    -2.0823 H       
  41 H41            1.3310    -4.6146     0.4270 H       
  42 H42            1.0765    -2.1740     0.4420 H       
  43 H43           -3.0452    -8.4990    -3.0924 H       
  44 H44           -4.6539    -9.8822    -4.3811 H       
  45 H45           -6.4875    -8.7436    -5.6130 H       
  46 H46           -6.6647    -6.2920    -5.5272 H       
  47 H47            0.8805    -7.9169    -0.1898 H       
  48 H48            1.8130    -6.4298    -0.4852 H       
  49 H49            0.7693    -6.5553     0.9512 H       
  50 H50            0.3750    -3.4213     5.3311 H       
  51 H51            0.2912    -1.8139     6.0910 H       
  52 H52           -1.2066    -2.6821     5.6777 H       
@<TRIPOS>BOND
   1    1    2 1
   2    1   10 1
   3    1   31 1
   4    1   32 1
   5    2    3 1
   6    2   11 am
   7    3    4 1
   8    3   33 1
   9    3   34 1
  10    4    5 1
  11    4   35 1
  12    4   36 1
  13    5    6 ar
  14    5   10 ar
  15    6    7 ar
  16    6   37 1
  17    7    8 ar
  18    7   38 1
  19    8    9 ar
  20    8   39 1
  21    9   10 ar
  22    9   29 1
  23   11   12 1
  24   11   18 2
  25   12   13 ar
  26   12   17 ar
  27   13   14 ar
  28   13   40 1
  29   14   15 ar
  30   14   19 1
  31   15   16 ar
  32   15   27 1
  33   16   17 ar
  34   16   41 1
  35   17   42 1
  36   19   20 3
  37   20   21 1
  38   21   22 ar
  39   21   26 ar
  40   22   23 ar
  41   22   43 1
  42   23   24 ar
  43   23   44 1
  44   24   25 ar
  45   24   45 1
  46   25   26 ar
  47   25   46 1
  48   27   28 1
  49   28   47 1
  50   28   48 1
  51   28   49 1
  52   29   30 1
  53   30   50 1
  54   30   51 1
  55   30   52 1

#	End of record

