#	Name: ASD01914598
#	Creating user name:	WinNT
#	Creation time:	15. 06. 2019 20:03

#	Modifying user name:	WinNT
#	Modification time:	15. 06. 2019 20:03

#	Program:	/corina/corina34_cracker 3.40 0067  02.08.2006

@<TRIPOS>MOLECULE
ASD01914598
  29   30    0    0    0
SMALL
NO_CHARGES


@<TRIPOS>ATOM
   1 C1            -0.0170     1.3855     0.0178 C.ar    
   2 C2            -0.0897     0.1356    -0.5841 C.ar    
   3 C3            -1.2767    -0.5698    -0.5672 C.ar    
   4 C4            -2.3932    -0.0334     0.0477 C.ar    
   5 C5            -2.3248     1.2115     0.6480 C.ar    
   6 C6            -1.1374     1.9195     0.6401 C.ar    
   7 N7             1.1841     2.1021     0.0020 N.am    
   8 C8             1.1656     3.4464    -0.0923 C.2     
   9 N9             2.3150     4.1446     0.0017 N.2     
  10 O10            0.1112     4.0301    -0.2623 O.2     
  11 C11            2.2970     5.4501    -0.0900 C.2     
  12 C12            3.4819     6.3922    -0.0083 C.3     
  13 N13            2.8791     7.7254    -0.1749 N.am    
  14 C14            1.5558     7.5411    -0.3259 C.2     
  15 N15            1.2088     6.2494    -0.2850 N.am    
  16 C16            3.5865     9.0083    -0.1754 C.3     
  17 O17            0.7625     8.4479    -0.4860 O.2     
  18 Cl18          -3.7290     1.8814     1.4183 Cl      
  19 H19            0.7814    -0.2839    -1.0652 H       
  20 H20           -1.3333    -1.5415    -1.0351 H       
  21 H21           -3.3204    -0.5871     0.0592 H       
  22 H22           -1.0840     2.8910     1.1089 H       
  23 H23            2.0304     1.6315     0.0590 H       
  24 H24            3.9699     6.3109     0.9630 H       
  25 H25            4.1895     6.1884    -0.8120 H       
  26 H26            0.2997     5.9237    -0.3762 H       
  27 H27            3.8882     9.2565    -1.1930 H       
  28 H28            2.9272     9.7869     0.2082 H       
  29 H29            4.4705     8.9361     0.4582 H       
@<TRIPOS>BOND
   1    1    2 ar
   2    1    7 1
   3    1    6 ar
   4    2    3 ar
   5    2   19 1
   6    3    4 ar
   7    3   20 1
   8    4    5 ar
   9    4   21 1
  10    5    6 ar
  11    5   18 1
  12    6   22 1
  13    7    8 am
  14    7   23 1
  15    8    9 1
  16    8   10 2
  17    9   11 2
  18   11   12 1
  19   11   15 1
  20   12   13 1
  21   12   24 1
  22   12   25 1
  23   13   14 am
  24   13   16 1
  25   14   15 am
  26   14   17 2
  27   15   26 1
  28   16   27 1
  29   16   28 1
  30   16   29 1

#	End of record

