#	Name: ASD01903214
#	Creating user name:	WinNT
#	Creation time:	15. 06. 2019 19:54

#	Modifying user name:	WinNT
#	Modification time:	15. 06. 2019 19:54

#	Program:	/corina/corina34_cracker 3.40 0067  02.08.2006

@<TRIPOS>MOLECULE
ASD01903214
  33   35    0    0    0
SMALL
NO_CHARGES


@<TRIPOS>ATOM
   1 S1            -0.0242     1.7576    -0.0301 S.3     
   2 C2             0.0013    -0.0032    -0.0097 C.2     
   3 N3             1.2320    -0.4153    -0.0142 N.2     
   4 C4             2.1769     0.5142    -0.0322 C.2     
   5 C5             1.7377     1.7832    -0.0437 C.2     
   6 N6            -1.1185    -0.8216     0.0087 N.pl3   
   7 C7            -2.3870    -0.2623     0.1288 C.ar    
   8 C8             3.6232     0.1751    -0.0387 C.2     
   9 C9             4.1737    -1.1208    -0.0277 C.2     
  10 N10            5.4760    -1.0096    -0.0392 N.2     
  11 N11            5.8058     0.3511    -0.0578 N.pl3   
  12 C12            4.6585     1.0624    -0.0624 C.2     
  13 N13           -2.5133     1.0402     0.3305 N.ar    
  14 C14           -3.6974     1.6102     0.4494 C.ar    
  15 C15           -4.8548     0.8623     0.3671 C.ar    
  16 C16           -4.7658    -0.5075     0.1563 C.ar    
  17 C17           -3.5112    -1.0759     0.0303 C.ar    
  18 C18            3.3966    -2.4118    -0.0060 C.3     
  19 O19            3.1400    -2.8359    -1.3463 O.3     
  20 C20            2.4044    -4.0575    -1.4386 C.3     
  21 H21            2.3577     2.6674    -0.0587 H       
  22 H22           -1.0174    -1.7837    -0.0621 H       
  23 H23            6.7033     0.7189    -0.0688 H       
  24 H24            4.5756     2.1391    -0.0761 H       
  25 H25           -3.7619     2.6757     0.6137 H       
  26 H26           -5.8195     1.3375     0.4661 H       
  27 H27           -5.6564    -1.1146     0.0882 H       
  28 H28           -3.4055    -2.1380    -0.1344 H       
  29 H29            3.9758    -3.1759     0.5123 H       
  30 H30            2.4509    -2.2578     0.5137 H       
  31 H31            2.9630    -4.8558    -0.9500 H       
  32 H32            1.4381    -3.9377    -0.9486 H       
  33 H33            2.2509    -4.3108    -2.4875 H       
@<TRIPOS>BOND
   1    1    2 1
   2    1    5 1
   3    2    3 2
   4    2    6 1
   5    3    4 1
   6    4    5 2
   7    4    8 1
   8    5   21 1
   9    6    7 1
  10    6   22 1
  11    7   13 ar
  12    7   17 ar
  13    8    9 1
  14    8   12 2
  15    9   10 2
  16    9   18 1
  17   10   11 1
  18   11   12 1
  19   11   23 1
  20   12   24 1
  21   13   14 ar
  22   14   15 ar
  23   14   25 1
  24   15   16 ar
  25   15   26 1
  26   16   17 ar
  27   16   27 1
  28   17   28 1
  29   18   19 1
  30   18   29 1
  31   18   30 1
  32   19   20 1
  33   20   31 1
  34   20   32 1
  35   20   33 1

#	End of record

