#	Name: ASD01940066
#	Creating user name:	WinNT
#	Creation time:	15. 06. 2019 20:11

#	Modifying user name:	WinNT
#	Modification time:	15. 06. 2019 20:11

#	Program:	/corina/corina34_cracker 3.40 0067  02.08.2006

@<TRIPOS>MOLECULE
ASD01940066
  40   41    0    0    0
SMALL
NO_CHARGES


@<TRIPOS>ATOM
   1 C1             0.5167     2.0191    -1.3711 C.ar    
   2 C2             1.1433     1.4559    -2.4748 C.ar    
   3 C3             0.4969     1.4288    -3.6954 C.ar    
   4 C4            -0.7734     1.9618    -3.8194 C.ar    
   5 C5            -1.4011     2.5242    -2.7220 C.ar    
   6 C6            -0.7625     2.5495    -1.4971 C.ar    
   7 I7            -1.7490     1.9179    -5.6728 I       
   8 Cl8           -1.5505     3.2547    -0.1204 Cl      
   9 N9             1.1682     2.0476    -0.1344 N.pl3   
  10 C10            2.3889     1.4004     0.0234 C.ar    
  11 C11            3.5827     2.0511    -0.3261 C.ar    
  12 C12            4.8041     1.3902    -0.1630 C.ar    
  13 C13            4.8313     0.1086     0.3381 C.ar    
  14 C14            3.6499    -0.5348     0.6838 C.ar    
  15 C15            2.4337     0.1081     0.5335 C.ar    
  16 F16            1.2890    -0.5243     0.8725 F       
  17 F17            3.6887    -1.7930     1.1743 F       
  18 C18            3.5488     3.4227    -0.8625 C.2     
  19 N19            4.6989     4.0553    -1.1684 N.am    
  20 O20            2.4830     3.9843    -1.0293 O.2     
  21 O21            4.6663     5.3737    -1.6840 O.3     
  22 C22            5.9567     5.9206    -1.9633 C.3     
  23 C23            5.8009     7.3402    -2.5124 C.3     
  24 C24            7.1829     7.9712    -2.6941 C.3     
  25 O25            7.0349     9.3346    -3.0956 O.3     
  26 O26            5.1296     7.2923    -3.7730 O.3     
  27 H27            2.1353     1.0398    -2.3793 H       
  28 H28            0.9842     0.9912    -4.5542 H       
  29 H29           -2.3927     2.9402    -2.8222 H       
  30 H30            0.7687     2.5187     0.6135 H       
  31 H31            5.7260     1.8852    -0.4304 H       
  32 H32            5.7761    -0.3996     0.4627 H       
  33 H33            5.5490     3.6074    -1.0354 H       
  34 H34            6.5458     5.9482    -1.0467 H       
  35 H35            6.4627     5.2989    -2.7019 H       
  36 H36            5.2175     7.9385    -1.8125 H       
  37 H37            7.7291     7.9271    -1.7519 H       
  38 H38            7.7340     7.4248    -3.4595 H       
  39 H39            7.8728     9.7983    -3.2296 H       
  40 H40            5.5931     6.7753    -4.4460 H       
@<TRIPOS>BOND
   1    1    2 ar
   2    1    9 1
   3    1    6 ar
   4    2    3 ar
   5    2   27 1
   6    3    4 ar
   7    3   28 1
   8    4    5 ar
   9    4    7 1
  10    5    6 ar
  11    5   29 1
  12    6    8 1
  13    9   10 1
  14    9   30 1
  15   10   11 ar
  16   10   15 ar
  17   11   12 ar
  18   11   18 1
  19   12   13 ar
  20   12   31 1
  21   13   14 ar
  22   13   32 1
  23   14   15 ar
  24   14   17 1
  25   15   16 1
  26   18   19 am
  27   18   20 2
  28   19   21 1
  29   19   33 1
  30   21   22 1
  31   22   23 1
  32   22   34 1
  33   22   35 1
  34   23   24 1
  35   23   26 1
  36   23   36 1
  37   24   25 1
  38   24   37 1
  39   24   38 1
  40   25   39 1
  41   26   40 1

#	End of record

