#	Name: ASD09890030
#	Creating user name:	WinNT
#	Creation time:	15. 06. 2019 21:24

#	Modifying user name:	WinNT
#	Modification time:	15. 06. 2019 21:24

#	Program:	/corina/corina34_cracker 3.40 0067  02.08.2006

@<TRIPOS>MOLECULE
ASD09890030
  45   47    0    0    0
SMALL
NO_CHARGES


@<TRIPOS>ATOM
   1 C1            -0.0167     1.3784     0.0096 C.ar    
   2 C2             0.0021    -0.0041     0.0020 C.ar    
   3 C3             1.2074    -0.6814    -0.0127 C.ar    
   4 C4             2.3963     0.0221    -0.0203 C.ar    
   5 C5             2.3802     1.4093    -0.0132 C.ar    
   6 C6             1.1695     2.0865     0.0021 C.ar    
   7 O7             3.5484     2.1036    -0.0202 O.3     
   8 C8             3.4557     3.5296    -0.0122 C.3     
   9 C9             4.8408     4.1231    -0.0217 C.2     
  10 N10            5.5772     4.4485    -1.1299 N.pl3   
  11 C11            6.7575     4.9505    -0.6542 C.2     
  12 N12            6.6910     4.9106     0.6565 N.2     
  13 N13            5.5580     4.4273     1.0229 N.2     
  14 S14            8.1106     5.5381    -1.6176 S.3     
  15 C15            9.2522     6.0167    -0.2970 C.3     
  16 C16            5.2001     4.2977    -2.4723 C.ar    
  17 C17            9.6812     4.7720     0.4823 C.3     
  18 C18           10.4852     6.6868    -0.9067 C.3     
  19 C19            4.1376     5.0304    -2.9826 C.ar    
  20 C20            3.7687     4.8801    -4.3054 C.ar    
  21 C21            4.4565     4.0005    -5.1206 C.ar    
  22 C22            5.5157     3.2690    -4.6149 C.ar    
  23 C23            5.8926     3.4193    -3.2948 C.ar    
  24 C24            6.2626     2.3108    -5.5065 C.3     
  25 F25            5.7046     2.3361    -6.7892 F       
  26 F26            7.6075     2.6899    -5.5755 F       
  27 F27            6.1690     1.0170    -4.9827 F       
  28 H28           -0.9595     1.9052     0.0170 H       
  29 H29           -0.9263    -0.5558     0.0080 H       
  30 H30            1.2194    -1.7613    -0.0179 H       
  31 H31            3.3375    -0.5074    -0.0315 H       
  32 H32            1.1543     3.1664     0.0073 H       
  33 H33            2.9113     3.8632    -0.8956 H       
  34 H34            2.9274     3.8543     0.8842 H       
  35 H35            8.7557     6.7144     0.3773 H       
  36 H36           10.1778     4.0743    -0.1921 H       
  37 H37           10.3687     5.0602     1.2775 H       
  38 H38            8.8029     4.2946     0.9166 H       
  39 H39           10.1795     7.5736    -1.4620 H       
  40 H40           11.1726     6.9751    -0.1115 H       
  41 H41           10.9817     5.9891    -1.5811 H       
  42 H42            3.5994     5.7172    -2.3460 H       
  43 H43            2.9420     5.4501    -4.7030 H       
  44 H44            4.1659     3.8841    -6.1542 H       
  45 H45            6.7198     2.8478    -2.9004 H       
@<TRIPOS>BOND
   1    1    2 ar
   2    1    6 ar
   3    1   28 1
   4    2    3 ar
   5    2   29 1
   6    3    4 ar
   7    3   30 1
   8    4    5 ar
   9    4   31 1
  10    5    6 ar
  11    5    7 1
  12    6   32 1
  13    7    8 1
  14    8    9 1
  15    8   33 1
  16    8   34 1
  17    9   10 1
  18    9   13 2
  19   10   11 1
  20   10   16 1
  21   11   12 2
  22   11   14 1
  23   12   13 1
  24   14   15 1
  25   15   17 1
  26   15   18 1
  27   15   35 1
  28   16   19 ar
  29   16   23 ar
  30   17   36 1
  31   17   37 1
  32   17   38 1
  33   18   39 1
  34   18   40 1
  35   18   41 1
  36   19   20 ar
  37   19   42 1
  38   20   21 ar
  39   20   43 1
  40   21   22 ar
  41   21   44 1
  42   22   23 ar
  43   22   24 1
  44   23   45 1
  45   24   25 1
  46   24   26 1
  47   24   27 1

#	End of record

