#	Name: ASD08151073
#	Creating user name:	WinNT
#	Creation time:	15. 06. 2019 21:17

#	Modifying user name:	WinNT
#	Modification time:	15. 06. 2019 21:17

#	Program:	/corina/corina34_cracker 3.40 0067  02.08.2006

@<TRIPOS>MOLECULE
ASD08151073
  43   44    0    0    0
SMALL
NO_CHARGES


@<TRIPOS>ATOM
   1 C1            -0.0170     1.4023     0.0098 C.ar    
   2 C2             0.0021    -0.0041     0.0020 C.ar    
   3 C3             1.2213    -0.6863    -0.0133 C.ar    
   4 C4             2.4103     0.0101    -0.0209 C.ar    
   5 C5             2.4115     1.4072    -0.0129 C.ar    
   6 C6             1.1929     2.1116     0.0020 C.ar    
   7 C7            -1.3060     2.1292     0.0198 C.ar    
   8 C8            -2.1611     2.0229     1.1170 C.ar    
   9 C9            -3.3637     2.7038     1.1213 C.ar    
  10 C10           -3.7210     3.4906     0.0384 C.ar    
  11 C11           -2.8756     3.5996    -1.0536 C.ar    
  12 C12           -1.6678     2.9278    -1.0654 C.ar    
  13 C13           -1.2640    -0.7581     0.0105 C.2     
  14 O14           -2.3244    -0.1649     0.0243 O.2     
  15 O15           -1.2458    -2.1057     0.0031 O.3     
  16 F16           -3.2298     4.3684    -2.1065 F       
  17 F17           -4.1927     2.6017     2.1832 F       
  18 C18            3.6521     2.1223    -0.0200 C.1     
  19 C19            4.6692     2.7086    -0.0258 C.1     
  20 N20            1.1888     3.4786     0.0089 N.2     
  21 N21            2.3039     4.1270     0.0018 N.2     
  22 N22            2.2997     5.5280     0.0089 N.pl3   
  23 C23            1.0288     6.2565     0.0244 C.3     
  24 C24            0.6623     6.6120     1.4667 C.3     
  25 C25            3.5661     6.2644     0.0007 C.3     
  26 C26            3.9304     6.6366    -1.4379 C.3     
  27 Cl27           3.9159    -0.8539    -0.0399 Cl      
  28 H28            1.2319    -1.7662    -0.0188 H       
  29 H29           -1.8838     1.4093     1.9614 H       
  30 H30           -4.6620     4.0205     0.0454 H       
  31 H31           -1.0074     3.0169    -1.9153 H       
  32 H32           -2.1014    -2.5564     0.0092 H       
  33 H33            5.5789     3.2330    -0.0310 H       
  34 H34            1.1267     7.1705    -0.5613 H       
  35 H35            0.2463     5.6314    -0.4057 H       
  36 H36            0.5643     5.6980     2.0525 H       
  37 H37            1.4448     7.2371     1.8969 H       
  38 H38           -0.2833     7.1541     1.4783 H       
  39 H39            3.4626     7.1717     0.5958 H       
  40 H40            4.3524     5.6396     0.4246 H       
  41 H41            3.1441     7.2613    -1.8617 H       
  42 H42            4.8726     7.1845    -1.4439 H       
  43 H43            4.0338     5.7293    -2.0329 H       
@<TRIPOS>BOND
   1    1    2 ar
   2    1    6 ar
   3    1    7 1
   4    2    3 ar
   5    2   13 1
   6    3    4 ar
   7    3   28 1
   8    4    5 ar
   9    4   27 1
  10    5    6 ar
  11    5   18 1
  12    6   20 1
  13    7    8 ar
  14    7   12 ar
  15    8    9 ar
  16    8   29 1
  17    9   10 ar
  18    9   17 1
  19   10   11 ar
  20   10   30 1
  21   11   12 ar
  22   11   16 1
  23   12   31 1
  24   13   14 2
  25   13   15 1
  26   15   32 1
  27   18   19 3
  28   19   33 1
  29   20   21 2
  30   21   22 1
  31   22   23 1
  32   22   25 1
  33   23   24 1
  34   23   34 1
  35   23   35 1
  36   24   36 1
  37   24   37 1
  38   24   38 1
  39   25   26 1
  40   25   39 1
  41   25   40 1
  42   26   41 1
  43   26   42 1
  44   26   43 1

#	End of record

