#	Name: ASD03240360
#	Creating user name:	WinNT
#	Creation time:	15. 06. 2019 20:34

#	Modifying user name:	WinNT
#	Modification time:	15. 06. 2019 20:34

#	Program:	/corina/corina34_cracker 3.40 0067  02.08.2006

@<TRIPOS>MOLECULE
ASD03240360
  73   80    0    0    0
SMALL
NO_CHARGES


@<TRIPOS>ATOM
   1 N1            -0.0621     1.2179     0.2212 N.ar    
   2 C2             0.0617    -0.1044     0.0631 C.ar    
   3 C3             1.3428    -0.6706    -0.1667 C.ar    
   4 N4             2.4203     0.1206    -0.2249 N.ar    
   5 C5             2.2861     1.4246    -0.0683 C.ar    
   6 C6             1.0075     1.9895     0.1628 C.ar    
   7 C7             0.8698     3.4541     0.3375 C.ar    
   8 C8            -0.1471     4.1451    -0.3207 C.ar    
   9 C9            -0.2706     5.5092    -0.1536 C.ar    
  10 C10            0.6121     6.1914     0.6645 C.ar    
  11 C11            1.6231     5.5115     1.3198 C.ar    
  12 C12            1.7530     4.1464     1.1655 C.ar    
  13 C13            3.4786     2.3012    -0.1321 C.ar    
  14 C14            4.6463     1.9449     0.5420 C.ar    
  15 C15            5.7540     2.7653     0.4784 C.ar    
  16 C16            5.7076     3.9394    -0.2518 C.ar    
  17 C17            4.5521     4.2982    -0.9226 C.ar    
  18 C18            3.4399     3.4832    -0.8713 C.ar    
  19 C19            0.4720     7.6813     0.8423 C.3     
  20 N20           -0.4144     7.9574     1.9807 N.3     
  21 C21           -1.6171     7.1165     1.9273 C.3     
  22 C22           -0.7649     9.3822     2.0413 C.3     
  23 C23           -1.5660     9.6580     3.3158 C.3     
  24 C24           -2.8348     8.8008     3.3108 C.3     
  25 C25           -2.4436     7.3247     3.1983 C.3     
  26 N26           -3.5766     9.0172     4.5554 N.am    
  27 C27           -4.8776     9.5049     4.6547 C.ar    
  28 N28           -4.0678     9.0878     6.7002 N.am    
  29 C29           -3.1192     8.7731     5.7980 C.2     
  30 C30           -5.8161     9.9098     3.7177 C.ar    
  31 C31           -7.0542    10.3579     4.1343 C.ar    
  32 C32           -7.3622    10.4046     5.4832 C.ar    
  33 C33           -6.4340    10.0034     6.4238 C.ar    
  34 C34           -5.1882     9.5519     6.0152 C.ar    
  35 O35           -2.0161     8.3341     6.0650 O.2     
  36 C36           -1.0651    -0.9434     0.1223 C.ar    
  37 C37           -0.9222    -2.2858    -0.0401 C.ar    
  38 C38            0.3372    -2.8520    -0.2670 C.ar    
  39 C39            1.4622    -2.0601    -0.3310 C.ar    
  40 N40            0.4550    -4.2389    -0.4304 N.pl3   
  41 C41           -0.5445    -5.1457    -0.4897 C.2     
  42 N42            0.0064    -6.3207    -0.6480 N.2     
  43 N43            1.2857    -6.2188    -0.6929 N.2     
  44 N44            1.6386    -4.9843    -0.5739 N.2     
  45 H45           -0.8364     3.6137    -0.9602 H       
  46 H46           -1.0577     6.0455    -0.6629 H       
  47 H47            2.3094     6.0495     1.9569 H       
  48 H48            2.5399     3.6160     1.6811 H       
  49 H49            4.6835     1.0289     1.1129 H       
  50 H50            6.6589     2.4905     1.0000 H       
  51 H51            6.5769     4.5787    -0.2981 H       
  52 H52            4.5218     5.2162    -1.4908 H       
  53 H53            2.5397     3.7623    -1.3987 H       
  54 H54            1.4525     8.1185     1.0309 H       
  55 H55            0.0479     8.1169    -0.0624 H       
  56 H56           -2.2136     7.3908     1.0572 H       
  57 H57           -1.3249     6.0692     1.8516 H       
  58 H58            0.1462     9.9803     2.0485 H       
  59 H59           -1.3654     9.6458     1.1707 H       
  60 H60           -0.9610     9.4076     4.1872 H       
  61 H61           -1.8394    10.7125     3.3527 H       
  62 H62           -3.4585     9.0782     2.4610 H       
  63 H63           -3.3440     6.7122     3.1513 H       
  64 H64           -1.8525     7.0376     4.0679 H       
  65 H65           -3.9858     9.0030     7.6630 H       
  66 H66           -5.5792     9.8752     2.6646 H       
  67 H67           -7.7852    10.6737     3.4046 H       
  68 H68           -8.3324    10.7565     5.8014 H       
  69 H69           -6.6778    10.0411     7.4752 H       
  70 H70           -2.0439    -0.5217     0.2972 H       
  71 H71           -1.7924    -2.9237     0.0071 H       
  72 H72            2.4304    -2.5051    -0.5069 H       
  73 H73           -1.6021    -4.9386    -0.4188 H       
@<TRIPOS>BOND
   1    1    2 ar
   2    1    6 ar
   3    2    3 ar
   4    2   36 ar
   5    3    4 ar
   6    3   39 ar
   7    4    5 ar
   8    5    6 ar
   9    5   13 1
  10    6    7 1
  11    7    8 ar
  12    7   12 ar
  13    8    9 ar
  14    8   45 1
  15    9   10 ar
  16    9   46 1
  17   10   11 ar
  18   10   19 1
  19   11   12 ar
  20   11   47 1
  21   12   48 1
  22   13   14 ar
  23   13   18 ar
  24   14   15 ar
  25   14   49 1
  26   15   16 ar
  27   15   50 1
  28   16   17 ar
  29   16   51 1
  30   17   18 ar
  31   17   52 1
  32   18   53 1
  33   19   20 1
  34   19   54 1
  35   19   55 1
  36   20   22 1
  37   20   21 1
  38   21   25 1
  39   21   56 1
  40   21   57 1
  41   22   23 1
  42   22   58 1
  43   22   59 1
  44   23   24 1
  45   23   60 1
  46   23   61 1
  47   24   25 1
  48   24   26 1
  49   24   62 1
  50   25   63 1
  51   25   64 1
  52   26   27 1
  53   26   29 am
  54   27   30 ar
  55   27   34 ar
  56   28   29 am
  57   28   34 1
  58   28   65 1
  59   29   35 2
  60   30   31 ar
  61   30   66 1
  62   31   32 ar
  63   31   67 1
  64   32   33 ar
  65   32   68 1
  66   33   34 ar
  67   33   69 1
  68   36   37 ar
  69   36   70 1
  70   37   38 ar
  71   37   71 1
  72   38   39 ar
  73   38   40 1
  74   39   72 1
  75   40   41 1
  76   40   44 1
  77   41   42 2
  78   41   73 1
  79   42   43 1
  80   43   44 2

#	End of record

