#	Name: ASD01840494
#	Creating user name:	WinNT
#	Creation time:	15. 06. 2019 19:37

#	Modifying user name:	WinNT
#	Modification time:	15. 06. 2019 19:37

#	Program:	/corina/corina34_cracker 3.40 0067  02.08.2006

@<TRIPOS>MOLECULE
ASD01840494
  44   47    0    0    0
SMALL
NO_CHARGES


@<TRIPOS>ATOM
   1 C1            -0.1531     1.6392    -0.0459 C.3     
   2 C2            -0.0888     0.1106    -0.0433 C.3     
   3 H3            -1.0886    -0.3011     0.0945 H       
   4 N4             0.4752    -0.3659    -1.3114 N.am    
   5 C5             1.6956    -1.1096    -0.9795 C.3     
   6 C6             1.8603    -1.0743     0.5172 C.ar    
   7 N7             2.7831    -1.5852     1.3213 N.ar    
   8 C8             2.7112    -1.4178     2.6266 C.ar    
   9 C9             3.7827    -2.0166     3.5009 C.3     
  10 N10            1.7302    -0.7420     3.1895 N.ar    
  11 C11            0.7674    -0.1999     2.4481 C.ar    
  12 N12           -0.2639     0.5107     3.0406 N.3     
  13 C13            0.2541     1.6786     3.7773 C.3     
  14 C14           -0.7503     1.3515     4.8912 C.3     
  15 C15           -0.6311    -0.0772     4.3423 C.3     
  16 C16            0.8141    -0.3603     1.0644 C.ar    
  17 C17           -0.0306    -0.1604    -2.5436 C.2     
  18 O18           -1.1054     0.3920    -2.6750 O.2     
  19 C19            0.7218    -0.6069    -3.7356 C.ar    
  20 C20            0.2814    -0.2550    -5.0134 C.ar    
  21 C21            0.9830    -0.6706    -6.1279 C.ar    
  22 C22            2.1231    -1.4364    -5.9879 C.ar    
  23 C23            2.5750    -1.7958    -4.7152 C.ar    
  24 C24            1.8747    -1.3748    -3.5862 C.ar    
  25 C25            3.7577    -2.5902    -4.5713 C.1     
  26 N26            4.6960    -3.2203    -4.4572 N.1     
  27 H27            0.8565     2.0453    -0.1077 H       
  28 H28           -0.7338     1.9770    -0.9043 H       
  29 H29           -0.6279     1.9845     0.8725 H       
  30 H30            1.6024    -2.1420    -1.3167 H       
  31 H31            2.5557    -0.6402    -1.4571 H       
  32 H32            4.5901    -1.2961     3.6311 H       
  33 H33            3.3596    -2.2679     4.4735 H       
  34 H34            4.1732    -2.9190     3.0305 H       
  35 H35            1.2942     1.5714     4.0852 H       
  36 H36            0.0568     2.6282     3.2799 H       
  37 H37           -0.3552     1.4767     5.8993 H       
  38 H38           -1.7330     1.8023     4.7526 H       
  39 H39           -1.5787    -0.6157     4.3238 H       
  40 H40            0.1727    -0.6530     4.8011 H       
  41 H41           -0.6100     0.3433    -5.1302 H       
  42 H42            0.6380    -0.3956    -7.1137 H       
  43 H43            2.6667    -1.7587    -6.8636 H       
  44 H44            2.2218    -1.6462    -2.6002 H       
@<TRIPOS>BOND
   1    1    2 1
   2    1   27 1
   3    1   28 1
   4    1   29 1
   5    2    3 1
   6    2   16 1
   7    2    4 1
   8    4    5 1
   9    4   17 am
  10    5    6 1
  11    5   30 1
  12    5   31 1
  13    6   16 ar
  14    6    7 ar
  15    7    8 ar
  16    8    9 1
  17    8   10 ar
  18    9   32 1
  19    9   33 1
  20    9   34 1
  21   10   11 ar
  22   11   12 1
  23   11   16 ar
  24   12   15 1
  25   12   13 1
  26   13   14 1
  27   13   35 1
  28   13   36 1
  29   14   15 1
  30   14   37 1
  31   14   38 1
  32   15   39 1
  33   15   40 1
  34   17   18 2
  35   17   19 1
  36   19   24 ar
  37   19   20 ar
  38   20   21 ar
  39   20   41 1
  40   21   22 ar
  41   21   42 1
  42   22   23 ar
  43   22   43 1
  44   23   24 ar
  45   23   25 1
  46   24   44 1
  47   25   26 3

#	End of record

