#	Name: ASD03731799
#	Creating user name:	WinNT
#	Creation time:	15. 06. 2019 20:46

#	Modifying user name:	WinNT
#	Modification time:	15. 06. 2019 20:46

#	Program:	/corina/corina34_cracker 3.40 0067  02.08.2006

@<TRIPOS>MOLECULE
ASD03731799
  33   34    0    0    0
SMALL
NO_CHARGES


@<TRIPOS>ATOM
   1 C1             0.3768     1.0944     1.9785 C.2     
   2 C2             0.2927    -0.2819     1.4518 C.ar    
   3 C3             1.3751    -0.8356     0.7625 C.ar    
   4 C4             1.2927    -2.1208     0.2730 C.ar    
   5 C5             0.1338    -2.8666     0.4643 C.ar    
   6 C6            -0.9442    -2.3186     1.1488 C.ar    
   7 C7            -0.8670    -1.0364     1.6462 C.ar    
   8 O8             1.3887     1.7479     1.8129 O.2     
   9 N9            -0.6700     1.6287     2.6381 N.am    
  10 S10           -0.5757     3.1728     3.2290 S.o2    
  11 O11           -1.8265     3.3795     3.8707 O.2     
  12 O12            0.6384     3.1919     3.9671 O.2     
  13 C13           -0.4385     4.2154     1.7509 C.3     
  14 O14            0.0558    -4.1323    -0.0192 O.3     
  15 C15           -1.1300    -4.7862     0.0932 C.ar    
  16 C16           -2.0841    -4.6714    -0.9075 C.ar    
  17 C17           -3.2905    -5.3382    -0.7903 C.ar    
  18 C18           -3.5449    -6.1191     0.3252 C.ar    
  19 C19           -2.5948    -6.2333     1.3224 C.ar    
  20 C20           -1.3860    -5.5742     1.2061 C.ar    
  21 F21           -4.2207    -5.2275    -1.7637 F       
  22 Cl22           2.6359    -2.8101    -0.5840 Cl      
  23 H23            2.2747    -0.2568     0.6136 H       
  24 H24           -1.8422    -2.9004     1.2951 H       
  25 H25           -1.7036    -0.6132     2.1822 H       
  26 H26           -1.4787     1.1087     2.7668 H       
  27 H27           -1.3180     4.0731     1.1230 H       
  28 H28           -0.3706     5.2616     2.0493 H       
  29 H29            0.4555     3.9381     1.1924 H       
  30 H30           -1.8855    -4.0618    -1.7766 H       
  31 H31           -4.4872    -6.6390     0.4159 H       
  32 H32           -2.7956    -6.8424     2.1914 H       
  33 H33           -0.6424    -5.6686     1.9837 H       
@<TRIPOS>BOND
   1    1    2 1
   2    1    8 2
   3    1    9 am
   4    2    3 ar
   5    2    7 ar
   6    3    4 ar
   7    3   23 1
   8    4    5 ar
   9    4   22 1
  10    5    6 ar
  11    5   14 1
  12    6    7 ar
  13    6   24 1
  14    7   25 1
  15    9   10 am
  16    9   26 1
  17   10   11 2
  18   10   12 2
  19   10   13 1
  20   13   27 1
  21   13   28 1
  22   13   29 1
  23   14   15 1
  24   15   16 ar
  25   15   20 ar
  26   16   17 ar
  27   16   30 1
  28   17   18 ar
  29   17   21 1
  30   18   19 ar
  31   18   31 1
  32   19   20 ar
  33   19   32 1
  34   20   33 1

#	End of record

