#	Name: ASD01880794
#	Creating user name:	WinNT
#	Creation time:	15. 06. 2019 19:41

#	Modifying user name:	WinNT
#	Modification time:	15. 06. 2019 19:41

#	Program:	/corina/corina34_cracker 3.40 0067  02.08.2006

@<TRIPOS>MOLECULE
ASD01880794
  48   53    0    0    0
SMALL
NO_CHARGES


@<TRIPOS>ATOM
   1 C1            -0.0169     1.3933     0.0097 C.ar    
   2 C2             0.0021    -0.0041     0.0020 C.ar    
   3 C3             1.2141    -0.6909    -0.0127 C.ar    
   4 C4             2.4024     0.0193    -0.0202 C.ar    
   5 C5             2.3728     1.4248    -0.0129 C.ar    
   6 C6             1.1520     2.1002     0.0023 C.ar    
   7 N7             3.6290    -0.6376    -0.0344 N.pl3   
   8 C8             4.7931     0.0691    -0.0413 C.2     
   9 N9             4.8013     1.4565    -0.0353 N.am    
  10 C10            3.6498     2.1586    -0.0207 C.2     
  11 N11            3.9500    -2.0025    -0.0432 N.2     
  12 C12            5.2613    -2.1197    -0.0550 C.2     
  13 C13            5.8183    -0.8295    -0.0542 C.2     
  14 O14            3.6656     3.3753    -0.0157 O.2     
  15 C15           -1.2732    -0.7589     0.0101 C.ar    
  16 C16            6.0205    -3.3947    -0.0672 C.ar    
  17 C17           -2.4819    -0.0731     0.0252 C.ar    
  18 C18           -3.6752    -0.7829     0.0323 C.ar    
  19 C19           -3.6438    -2.1905     0.0239 C.ar    
  20 C20           -2.4193    -2.8651     0.0087 C.ar    
  21 C21           -1.2535    -2.1586    -0.0035 C.ar    
  22 C22            5.3426    -4.6121    -0.0672 C.ar    
  23 C23            7.4137    -3.3788    -0.0844 C.ar    
  24 C24            8.1147    -4.5677    -0.0957 C.ar    
  25 C25            7.4367    -5.7734    -0.0898 C.ar    
  26 C26            6.0537    -5.7949    -0.0785 C.ar    
  27 C27            6.0808     2.1701    -0.0433 C.3     
  28 N28           -5.0003    -0.4062     0.0468 N.pl3   
  29 C29           -5.7989    -1.5164     0.0478 C.2     
  30 C30           -5.0415    -2.6258     0.0345 C.2     
  31 H31           -0.9612     1.9173     0.0170 H       
  32 H32            1.2266    -1.7708    -0.0179 H       
  33 H33            1.1312     3.1800     0.0076 H       
  34 H34            6.8719    -0.5919    -0.0626 H       
  35 H35           -2.4930     1.0068     0.0318 H       
  36 H36           -2.3970    -3.9449     0.0024 H       
  37 H37           -0.3088    -2.6819    -0.0156 H       
  38 H38            4.2628    -4.6300    -0.0580 H       
  39 H39            7.9440    -2.4380    -0.0893 H       
  40 H40            9.1945    -4.5566    -0.1094 H       
  41 H41            7.9892    -6.7013    -0.0987 H       
  42 H42            5.5294    -6.7391    -0.0736 H       
  43 H43            6.3891     2.3515    -1.0729 H       
  44 H44            5.9692     3.1220     0.4757 H       
  45 H45            6.8360     1.5675     0.4613 H       
  46 H46           -5.3193     0.5098     0.0550 H       
  47 H47           -6.8788    -1.5033     0.0583 H       
  48 H48           -5.3966    -3.6458     0.0316 H       
@<TRIPOS>BOND
   1    1    2 ar
   2    1    6 ar
   3    1   31 1
   4    2    3 ar
   5    2   15 1
   6    3    4 ar
   7    3   32 1
   8    4    5 ar
   9    4    7 1
  10    5    6 ar
  11    5   10 1
  12    6   33 1
  13    7    8 1
  14    7   11 1
  15    8    9 1
  16    8   13 2
  17    9   10 am
  18    9   27 1
  19   10   14 2
  20   11   12 2
  21   12   13 1
  22   12   16 1
  23   13   34 1
  24   15   17 ar
  25   15   21 ar
  26   16   22 ar
  27   16   23 ar
  28   17   18 ar
  29   17   35 1
  30   18   19 ar
  31   18   28 1
  32   19   20 ar
  33   19   30 1
  34   20   21 ar
  35   20   36 1
  36   21   37 1
  37   22   26 ar
  38   22   38 1
  39   23   24 ar
  40   23   39 1
  41   24   25 ar
  42   24   40 1
  43   25   26 ar
  44   25   41 1
  45   26   42 1
  46   27   43 1
  47   27   44 1
  48   27   45 1
  49   28   29 1
  50   28   46 1
  51   29   30 2
  52   29   47 1
  53   30   48 1

#	End of record

