#	Name: ASD01870079
#	Creating user name:	WinNT
#	Creation time:	15. 06. 2019 19:38

#	Modifying user name:	WinNT
#	Modification time:	15. 06. 2019 19:38

#	Program:	/corina/corina34_cracker 3.40 0067  02.08.2006

@<TRIPOS>MOLECULE
ASD01870079
  33   35    0    0    0
SMALL
NO_CHARGES


@<TRIPOS>ATOM
   1 C1            -0.0168     1.3887     0.0097 C.ar    
   2 C2             0.0021    -0.0041     0.0020 C.ar    
   3 C3            -1.1546    -0.7231     0.0092 C.ar    
   4 C4            -2.3911    -0.0572     0.0250 C.ar    
   5 C5            -2.4085     1.3609     0.0333 C.ar    
   6 C6            -1.1955     2.0705     0.0303 C.ar    
   7 N7            -3.5394    -0.7455     0.0317 N.ar    
   8 C8            -4.7021    -0.1451     0.0461 C.ar    
   9 C9            -4.8040     1.2618     0.0547 C.ar    
  10 C10           -3.6431     2.0311     0.0492 C.ar    
  11 C11           -6.1236     1.9100     0.0694 C.2     
  12 Cl12          -6.1511    -1.1012     0.0541 Cl      
  13 C13           -6.2139     3.2569     0.0776 C.2     
  14 C14           -7.5280     3.9024     0.0922 C.2     
  15 O15           -8.5405     3.2236     0.0970 O.2     
  16 C16            1.2834     2.1505     0.0014 C.3     
  17 C17           -7.6261     5.3658     0.1011 C.2     
  18 C18           -8.7909     6.0830     0.1149 C.2     
  19 C19           -8.5914     7.4427     0.1215 C.2     
  20 C20           -7.3094     7.8288     0.1135 C.2     
  21 S21           -6.2655     6.4794     0.1035 S.3     
  22 H22            0.9495    -0.5223    -0.0102 H       
  23 H23           -1.1211    -1.8026     0.0023 H       
  24 H24           -1.1981     3.1505     0.0365 H       
  25 H25           -3.6905     3.1100     0.0558 H       
  26 H26           -7.0207     1.3086     0.0736 H       
  27 H27           -5.3169     3.8583     0.0733 H       
  28 H28            1.5871     2.3397    -1.0283 H       
  29 H29            1.1520     3.0993     0.5216 H       
  30 H30            2.0517     1.5635     0.5047 H       
  31 H31           -9.7696     5.6263     0.1197 H       
  32 H32           -9.4090     8.1483     0.1320 H       
  33 H33           -6.9801     8.8573     0.1171 H       
@<TRIPOS>BOND
   1    1    2 ar
   2    1   16 1
   3    1    6 ar
   4    2    3 ar
   5    2   22 1
   6    3    4 ar
   7    3   23 1
   8    4    5 ar
   9    4    7 ar
  10    5    6 ar
  11    5   10 ar
  12    6   24 1
  13    7    8 ar
  14    8    9 ar
  15    8   12 1
  16    9   10 ar
  17    9   11 1
  18   10   25 1
  19   11   13 2
  20   11   26 1
  21   13   14 1
  22   13   27 1
  23   14   15 2
  24   14   17 1
  25   16   28 1
  26   16   29 1
  27   16   30 1
  28   17   18 2
  29   17   21 1
  30   18   19 1
  31   18   31 1
  32   19   20 2
  33   19   32 1
  34   20   21 1
  35   20   33 1

#	End of record

