#	Name: ASD01410060
#	Creating user name:	WinNT
#	Creation time:	15. 06. 2019 19:16

#	Modifying user name:	WinNT
#	Modification time:	15. 06. 2019 19:16

#	Program:	/corina/corina34_cracker 3.40 0067  02.08.2006

@<TRIPOS>MOLECULE
ASD01410060
  37   39    0    0    0
SMALL
NO_CHARGES


@<TRIPOS>ATOM
   1 C1           -10.0383    -3.3890     0.3481 C.ar    
   2 C2            -8.9747    -4.2798     0.2701 C.ar    
   3 C3            -7.6794    -3.8025     0.1790 C.ar    
   4 C4            -7.4498    -2.4208     0.1662 C.ar    
   5 C5            -8.5250    -1.5203     0.2450 C.ar    
   6 C6            -9.8173    -2.0199     0.3305 C.ar    
   7 C7            -6.2284    -1.6044     0.0817 C.2     
   8 C8            -6.7088    -0.2156     0.1197 C.2     
   9 O9            -8.0589    -0.2524     0.2154 O.3     
  10 O10           -5.0756    -1.9930    -0.0006 O.2     
  11 C11           -5.9386     0.9013     0.0688 C.2     
  12 C12           -6.5683     2.2230    -0.0300 C.ar    
  13 O13          -11.3069    -3.8636     0.4368 O.3     
  14 O14           -6.6372    -4.6680     0.1031 O.3     
  15 C15           -7.9535     2.3296    -0.2124 C.ar    
  16 C16           -8.5353     3.5622    -0.3033 C.ar    
  17 C17           -7.7541     4.7116    -0.2150 C.ar    
  18 C18           -6.3770     4.6106    -0.0341 C.ar    
  19 C19           -5.7871     3.3824     0.0637 C.ar    
  20 N20           -8.3513     5.9649    -0.3081 N.pl3   
  21 C21           -9.7773     6.0750    -0.6250 C.3     
  22 C22           -7.5540     7.1743    -0.0893 C.3     
  23 H23           -9.1591    -5.3439     0.2809 H       
  24 H24          -10.6538    -1.3394     0.3913 H       
  25 H25           -4.8623     0.8169     0.1009 H       
  26 H26          -11.6119    -4.0036     1.3437 H       
  27 H27           -6.3978    -4.9169    -0.8001 H       
  28 H28           -8.5601     1.4387    -0.2814 H       
  29 H29           -9.6029     3.6454    -0.4443 H       
  30 H30           -5.7751     5.5048     0.0335 H       
  31 H31           -4.7191     3.3050     0.2043 H       
  32 H32          -10.3563     6.0695     0.2985 H       
  33 H33           -9.9593     7.0058    -1.1624 H       
  34 H34          -10.0775     5.2318    -1.2471 H       
  35 H35           -6.5074     6.9003     0.0441 H       
  36 H36           -7.6499     7.8337    -0.9519 H       
  37 H37           -7.9114     7.6886     0.8028 H       
@<TRIPOS>BOND
   1    1    2 ar
   2    1   13 1
   3    1    6 ar
   4    2    3 ar
   5    2   23 1
   6    3    4 ar
   7    3   14 1
   8    4    5 ar
   9    4    7 1
  10    5    6 ar
  11    5    9 1
  12    6   24 1
  13    7    8 1
  14    7   10 2
  15    8    9 1
  16    8   11 2
  17   11   12 1
  18   11   25 1
  19   12   15 ar
  20   12   19 ar
  21   13   26 1
  22   14   27 1
  23   15   16 ar
  24   15   28 1
  25   16   17 ar
  26   16   29 1
  27   17   18 ar
  28   17   20 1
  29   18   19 ar
  30   18   30 1
  31   19   31 1
  32   20   21 1
  33   20   22 1
  34   21   32 1
  35   21   33 1
  36   21   34 1
  37   22   35 1
  38   22   36 1
  39   22   37 1

#	End of record

