#	Name: ASD00800001
#	Creating user name:	WinNT
#	Creation time:	15. 06. 2019 18:37

#	Modifying user name:	WinNT
#	Modification time:	15. 06. 2019 18:37

#	Program:	/corina/corina34_cracker 3.40 0067  02.08.2006

@<TRIPOS>MOLECULE
ASD00800001
  79   80    0    0    0
SMALL
NO_CHARGES


@<TRIPOS>ATOM
   1 C1             0.3204     2.0749     0.2122 C.3     
   2 C2             0.0957     0.5422     0.3186 C.3     
   3 C3             1.8339     2.2851     0.0293 C.3     
   4 O4            -0.1291     2.7289     1.4282 O.3     
   5 C5             0.7775    -0.0348    -0.9140 C.2     
   6 C6            -1.3999     0.2204     0.3001 C.3     
   7 O7             2.0801     3.0096    -1.1875 O.3     
   8 C8             2.3842     3.0801     1.2151 C.3     
   9 C9            -0.5870     3.9852     1.3108 C.2     
  10 O10            0.4395     0.4685    -2.1187 O.3     
  11 O11            1.5971    -0.9171    -0.8160 O.2     
  12 C12           -1.6020    -1.2786     0.5307 C.3     
  13 C13            2.4817     2.4735    -2.3082 C.2     
  14 C14           -1.0707     4.7279     2.5296 C.3     
  15 O15           -0.6115     4.5206     0.2279 O.2     
  16 C16            1.4759     0.3525    -3.1369 C.3     
  17 C17           -3.0976    -1.6004     0.5123 C.3     
  18 C18            2.7369     1.0324    -2.5941 C.3     
  19 O19            2.6690     3.2378    -3.2251 O.2     
  20 C20           -1.5354     6.1277     2.1229 C.3     
  21 C21            1.7629    -1.1235    -3.4196 C.3     
  22 C22           -3.2996    -3.0994     0.7429 C.3     
  23 N23            3.1520     0.3624    -1.3593 N.am    
  24 C24           -2.1413     6.8365     3.3359 C.3     
  25 C25           -0.3405     6.9318     1.6066 C.3     
  26 C26            4.4040    -0.1231    -1.2442 C.2     
  27 C27            4.8221    -0.7979    -0.0005 C.ar    
  28 O28            5.1889    -0.0050    -2.1652 O.2     
  29 C29            6.1219    -1.3035     0.1227 C.ar    
  30 C30            3.9244    -0.9305     1.0625 C.ar    
  31 C31            6.5051    -1.9386     1.3015 C.ar    
  32 O32            7.0035    -1.1758    -0.9013 O.3     
  33 C33            4.3178    -1.5609     2.2231 C.ar    
  34 C34            5.6008    -2.0670     2.3443 C.ar    
  35 N35            7.8040    -2.4480     1.4332 N.am    
  36 C36            8.4174    -2.4278     2.6331 C.2     
  37 O37            7.8872    -1.8792     3.5760 O.2     
  38 C38           -4.7953    -3.4212     0.7244 C.3     
  39 C39           -4.9973    -4.9202     0.9550 C.3     
  40 H40           -0.2184     2.4724    -0.6479 H       
  41 H41            0.5582     0.1527     1.2255 H       
  42 H42            2.3312     1.3164    -0.0187 H       
  43 H43           -1.9018     0.7803     1.0892 H       
  44 H44           -1.8196     0.4991    -0.6665 H       
  45 H45            2.2024     2.5289     2.1377 H       
  46 H46            3.4562     3.2294     1.0862 H       
  47 H47            1.8860     4.0482     1.2660 H       
  48 H48           -1.1000    -1.8385    -0.2584 H       
  49 H49           -1.1823    -1.5573     1.4973 H       
  50 H50           -1.9023     4.1854     2.9794 H       
  51 H51           -0.2579     4.8102     3.2512 H       
  52 H52            1.1522     0.8481    -4.0521 H       
  53 H53           -3.5995    -1.0405     1.3014 H       
  54 H54           -3.5173    -1.3217    -0.4543 H       
  55 H55            3.5348     0.9492    -3.3320 H       
  56 H56           -2.2861     6.0472     1.3367 H       
  57 H57            0.8537    -1.6090    -3.7743 H       
  58 H58            2.5383    -1.2034    -4.1814 H       
  59 H59            2.1010    -1.6097    -2.5045 H       
  60 H60           -2.7977    -3.6593    -0.0462 H       
  61 H61           -2.8799    -3.3781     1.7095 H       
  62 H62            2.5258     0.2682    -0.6245 H       
  63 H63           -1.3906     6.9170     4.1221 H       
  64 H64           -2.4723     7.8337     3.0461 H       
  65 H65           -2.9926     6.2636     3.7037 H       
  66 H66            0.4102     7.0123     2.3928 H       
  67 H67            0.0912     6.4268     0.7425 H       
  68 H68           -0.6715     7.9290     1.3169 H       
  69 H69            2.9219    -0.5383     0.9744 H       
  70 H70            7.5289    -0.3646    -0.8690 H       
  71 H71            3.6214    -1.6608     3.0426 H       
  72 H72            5.8999    -2.5601     3.2574 H       
  73 H73            8.2616    -2.8152     0.6607 H       
  74 H74            9.3810    -2.9001     2.7550 H       
  75 H75           -5.2972    -2.8613     1.5135 H       
  76 H76           -5.2150    -3.1425    -0.2422 H       
  77 H77           -6.0628    -5.1495     0.9419 H       
  78 H78           -4.4954    -5.4801     0.1659 H       
  79 H79           -4.5776    -5.1989     1.9216 H       
@<TRIPOS>BOND
   1    1    2 1
   2    1    3 1
   3    1    4 1
   4    1   40 1
   5    2    5 1
   6    2    6 1
   7    2   41 1
   8    3    7 1
   9    3    8 1
  10    3   42 1
  11    4    9 1
  12    5   10 1
  13    5   11 2
  14    6   12 1
  15    6   43 1
  16    6   44 1
  17    7   13 1
  18    8   45 1
  19    8   46 1
  20    8   47 1
  21    9   14 1
  22    9   15 2
  23   10   16 1
  24   12   17 1
  25   12   48 1
  26   12   49 1
  27   13   18 1
  28   13   19 2
  29   14   20 1
  30   14   50 1
  31   14   51 1
  32   16   21 1
  33   16   18 1
  34   16   52 1
  35   17   22 1
  36   17   53 1
  37   17   54 1
  38   18   23 1
  39   18   55 1
  40   20   24 1
  41   20   25 1
  42   20   56 1
  43   21   57 1
  44   21   58 1
  45   21   59 1
  46   22   38 1
  47   22   60 1
  48   22   61 1
  49   23   26 am
  50   23   62 1
  51   24   63 1
  52   24   64 1
  53   24   65 1
  54   25   66 1
  55   25   67 1
  56   25   68 1
  57   26   27 1
  58   26   28 2
  59   27   29 ar
  60   27   30 ar
  61   29   31 ar
  62   29   32 1
  63   30   33 ar
  64   30   69 1
  65   31   34 ar
  66   31   35 1
  67   32   70 1
  68   33   34 ar
  69   33   71 1
  70   34   72 1
  71   35   36 am
  72   35   73 1
  73   36   37 2
  74   36   74 1
  75   38   39 1
  76   38   75 1
  77   38   76 1
  78   39   77 1
  79   39   78 1
  80   39   79 1

#	End of record

