#	Name: ASD03731677
#	Creating user name:	WinNT
#	Creation time:	15. 06. 2019 20:46

#	Modifying user name:	WinNT
#	Modification time:	15. 06. 2019 20:46

#	Program:	/corina/corina34_cracker 3.40 0067  02.08.2006

@<TRIPOS>MOLECULE
ASD03731677
  36   37    0    0    0
SMALL
NO_CHARGES


@<TRIPOS>ATOM
   1 C1            -0.4037     1.1044    -1.9605 C.2     
   2 C2            -0.2822    -0.2736    -1.4502 C.ar    
   3 C3             0.9016    -0.9939    -1.6486 C.ar    
   4 C4             1.0105    -2.2837    -1.1689 C.ar    
   5 C5            -0.0518    -2.8662    -0.4909 C.ar    
   6 C6            -1.2312    -2.1531    -0.2915 C.ar    
   7 C7            -1.3469    -0.8629    -0.7617 C.ar    
   8 O8             0.5253     1.6168    -2.5547 O.2     
   9 N9            -1.5465     1.7940    -1.7732 N.am    
  10 O10            0.0593    -4.1350    -0.0213 O.3     
  11 C11            1.2617    -4.7565    -0.1411 C.ar    
  12 C12            2.2135    -4.6281     0.8606 C.ar    
  13 C13            3.4346    -5.2613     0.7366 C.ar    
  14 C14            3.7095    -6.0224    -0.3849 C.ar    
  15 C15            2.7631    -6.1520    -1.3843 C.ar    
  16 C16            1.5378    -5.5254    -1.2625 C.ar    
  17 C17            4.4687    -5.1222     1.8240 C.3     
  18 F18            4.2976    -6.1444     2.7637 F       
  19 F19            5.7481    -5.2119     1.2651 F       
  20 F20            4.3203    -3.8813     2.4526 F       
  21 S21           -1.6830     3.3416    -2.3464 S.o2    
  22 O22           -2.9852     3.7488    -1.9493 O.2     
  23 O23           -0.5262     4.0019    -1.8514 O.2     
  24 C24           -1.5931     3.1661    -4.1496 C.3     
  25 F25           -2.2618    -2.7252     0.3686 F       
  26 F26            1.9356    -0.4279    -2.3087 F       
  27 H27            1.9232    -2.8406    -1.3216 H       
  28 H28           -2.2603    -0.3092    -0.6022 H       
  29 H29           -2.2889     1.3838    -1.3027 H       
  30 H30            1.9996    -4.0332     1.7363 H       
  31 H31            4.6653    -6.5162    -0.4803 H       
  32 H32            2.9803    -6.7467    -2.2592 H       
  33 H33            0.7971    -5.6306    -2.0414 H       
  34 H34           -2.4094     2.5311    -4.4940 H       
  35 H35           -1.6757     4.1484    -4.6149 H       
  36 H36           -0.6402     2.7133    -4.4236 H       
@<TRIPOS>BOND
   1    1    2 1
   2    1    8 2
   3    1    9 am
   4    2    3 ar
   5    2    7 ar
   6    3    4 ar
   7    3   26 1
   8    4    5 ar
   9    4   27 1
  10    5    6 ar
  11    5   10 1
  12    6    7 ar
  13    6   25 1
  14    7   28 1
  15    9   21 am
  16    9   29 1
  17   10   11 1
  18   11   12 ar
  19   11   16 ar
  20   12   13 ar
  21   12   30 1
  22   13   14 ar
  23   13   17 1
  24   14   15 ar
  25   14   31 1
  26   15   16 ar
  27   15   32 1
  28   16   33 1
  29   17   18 1
  30   17   19 1
  31   17   20 1
  32   21   22 2
  33   21   23 2
  34   21   24 1
  35   24   34 1
  36   24   35 1
  37   24   36 1

#	End of record

