#	Name: ASD05313025
#	Creating user name:	WinNT
#	Creation time:	15. 06. 2019 20:58

#	Modifying user name:	WinNT
#	Modification time:	15. 06. 2019 20:58

#	Program:	/corina/corina34_cracker 3.40 0067  02.08.2006

@<TRIPOS>MOLECULE
ASD05313025
  37   39    0    0    0
SMALL
NO_CHARGES


@<TRIPOS>ATOM
   1 C1            -0.0736     0.8190     1.0170 C.2     
   2 C2             0.1127    -0.6176     0.5915 C.3     
   3 N3             0.9409     1.7391     1.0431 N.pl3   
   4 N4             1.4569    -0.7161    -0.0086 N.am    
   5 C5             2.5718    -0.0378     0.6692 C.3     
   6 C6             2.3263     1.4760     0.6588 C.3     
   7 N7            -0.8911     2.6464     1.6949 N.2     
   8 N8            -1.1510     1.4151     1.4166 N.2     
   9 C9             0.3833     2.8947     1.4833 C.2     
  10 N10            1.0321     4.1040     1.6757 N.pl3   
  11 C11            0.2848     5.2674     2.1595 C.3     
  12 C12            1.6577    -1.4093    -1.1468 C.2     
  13 O13            2.7498    -1.3983    -1.6806 O.2     
  14 C14            0.5503    -2.1828    -1.7459 C.ar    
  15 C15            0.3185    -2.1255    -3.1227 C.ar    
  16 C16           -0.7185    -2.8513    -3.6753 C.ar    
  17 C17           -1.5262    -3.6324    -2.8688 C.ar    
  18 C18           -1.3019    -3.6927    -1.5046 C.ar    
  19 C19           -0.2657    -2.9784    -0.9400 C.ar    
  20 C20           -0.9709    -2.7916    -5.1598 C.3     
  21 F21           -2.0647    -3.6030    -5.4799 F       
  22 F22           -1.2443    -1.4714    -5.5336 F       
  23 F23            0.1621    -3.2448    -5.8440 F       
  24 Cl24           1.3310    -1.1445    -4.1358 Cl      
  25 H25            0.0430    -1.2746     1.4584 H       
  26 H26           -0.6442    -0.8890    -0.1443 H       
  27 H27            2.6389    -0.3884     1.6991 H       
  28 H28            3.5031    -0.2588     0.1478 H       
  29 H29            2.5075     1.8678    -0.3421 H       
  30 H30            2.9990     1.9589     1.3675 H       
  31 H31            1.9812     4.1801     1.4901 H       
  32 H32           -0.5125     5.5055     1.4554 H       
  33 H33           -0.1470     5.0422     3.1346 H       
  34 H34            0.9577     6.1203     2.2483 H       
  35 H35           -2.3361    -4.1978    -3.3057 H       
  36 H36           -1.9371    -4.3043    -0.8810 H       
  37 H37           -0.0891    -3.0309     0.1242 H       
@<TRIPOS>BOND
   1    1    2 1
   2    1    3 1
   3    1    8 2
   4    2    4 1
   5    2   25 1
   6    2   26 1
   7    3    6 1
   8    3    9 1
   9    4    5 1
  10    4   12 am
  11    5    6 1
  12    5   27 1
  13    5   28 1
  14    6   29 1
  15    6   30 1
  16    7    8 1
  17    7    9 2
  18    9   10 1
  19   10   11 1
  20   10   31 1
  21   11   32 1
  22   11   33 1
  23   11   34 1
  24   12   13 2
  25   12   14 1
  26   14   15 ar
  27   14   19 ar
  28   15   16 ar
  29   15   24 1
  30   16   17 ar
  31   16   20 1
  32   17   18 ar
  33   17   35 1
  34   18   19 ar
  35   18   36 1
  36   19   37 1
  37   20   21 1
  38   20   22 1
  39   20   23 1

#	End of record

