#	Name: ASD00960213
#	Creating user name:	WinNT
#	Creation time:	15. 06. 2019 18:53

#	Modifying user name:	WinNT
#	Modification time:	15. 06. 2019 18:53

#	Program:	/corina/corina34_cracker 3.40 0067  02.08.2006

@<TRIPOS>MOLECULE
ASD00960213
  46   48    0    0    0
SMALL
NO_CHARGES


@<TRIPOS>ATOM
   1 C1            -0.0170     1.4010     0.0097 C.2     
   2 C2             0.0021    -0.0041     0.0020 C.2     
   3 N3             1.2765     1.8417    -0.0002 N.pl3   
   4 C4             2.1136     0.7543    -0.0141 C.2     
   5 C5             1.3422    -0.3976    -0.0129 C.2     
   6 N6             1.8450     3.1236     0.0008 N.2     
   7 C7             3.1443     3.2640    -0.0112 C.2     
   8 N8             3.9681     2.2205    -0.0247 N.2     
   9 C9             3.5132     0.9800    -0.0262 C.2     
  10 N10            4.3913    -0.0849    -0.0399 N.pl3   
  11 C11           -1.1384    -0.8700     0.0087 C.1     
  12 C12           -2.0734    -1.5799     0.0141 C.1     
  13 Si13          -3.5867    -2.7289     0.0229 Si      
  14 C14           -3.0192    -4.5033     0.0078 C.3     
  15 C15           -4.5972    -2.4131     1.5559 C.3     
  16 C16           -4.6273    -2.3968    -1.4862 C.3     
  17 C17           -1.1729     2.2167     0.0199 C.2     
  18 O18           -2.2779     1.7062     0.0230 O.2     
  19 O19           -1.0504     3.5610     0.0261 O.3     
  20 C20           -2.2595     4.3226     0.0362 C.3     
  21 C21           -1.9273     5.7925     0.0419 C.ar    
  22 C22           -1.7811     6.4727    -1.1526 C.ar    
  23 C23           -1.4763     7.8211    -1.1473 C.ar    
  24 C24           -1.3182     8.4892     0.0525 C.ar    
  25 C25           -1.4653     7.8092     1.2470 C.ar    
  26 C26           -1.7743     6.4618     1.2417 C.ar    
  27 H27            1.7100    -1.4130    -0.0215 H       
  28 H28            3.5623     4.2598    -0.0105 H       
  29 H29            5.3479     0.0754    -0.0485 H       
  30 H30            4.0518    -0.9935    -0.0410 H       
  31 H31           -2.4104    -4.6976     0.8908 H       
  32 H32           -3.8873    -5.1624     0.0129 H       
  33 H33           -2.4280    -4.6880    -0.8891 H       
  34 H34           -4.9292    -1.3749     1.5647 H       
  35 H35           -5.4653    -3.0722     1.5609 H       
  36 H36           -3.9883    -2.6074     2.4388 H       
  37 H37           -4.0361    -2.5815    -2.3831 H       
  38 H38           -5.4954    -3.0559    -1.4811 H       
  39 H39           -4.9593    -1.3586    -1.4773 H       
  40 H40           -2.8454     4.0860    -0.8520 H       
  41 H41           -2.8362     4.0769     0.9279 H       
  42 H42           -1.9047     5.9507    -2.0899 H       
  43 H43           -1.3614     8.3524    -2.0805 H       
  44 H44           -1.0794     9.5425     0.0566 H       
  45 H45           -1.3414     8.3311     2.1843 H       
  46 H46           -1.8929     5.9314     2.1749 H       
@<TRIPOS>BOND
   1    1    2 2
   2    1    3 1
   3    1   17 1
   4    2   11 1
   5    2    5 1
   6    3    4 1
   7    3    6 1
   8    4    5 2
   9    4    9 1
  10    5   27 1
  11    6    7 2
  12    7    8 1
  13    7   28 1
  14    8    9 2
  15    9   10 1
  16   10   29 1
  17   10   30 1
  18   11   12 3
  19   12   13 1
  20   13   14 1
  21   13   15 1
  22   13   16 1
  23   14   31 1
  24   14   32 1
  25   14   33 1
  26   15   34 1
  27   15   35 1
  28   15   36 1
  29   16   37 1
  30   16   38 1
  31   16   39 1
  32   17   18 2
  33   17   19 1
  34   19   20 1
  35   20   21 1
  36   20   40 1
  37   20   41 1
  38   21   22 ar
  39   21   26 ar
  40   22   23 ar
  41   22   42 1
  42   23   24 ar
  43   23   43 1
  44   24   25 ar
  45   24   44 1
  46   25   26 ar
  47   25   45 1
  48   26   46 1

#	End of record

