#	Name: ASD05143326
#	Creating user name:	WinNT
#	Creation time:	15. 06. 2019 20:57

#	Modifying user name:	WinNT
#	Modification time:	15. 06. 2019 20:57

#	Program:	/corina/corina34_cracker 3.40 0067  02.08.2006

@<TRIPOS>MOLECULE
ASD05143326
  52   54    0    0    0
SMALL
NO_CHARGES


@<TRIPOS>ATOM
   1 C1            -0.0088     1.4391     0.1554 C.2     
   2 N2             0.0652     0.1228     0.1715 N.2     
   3 S3            -1.5410    -0.4291     0.1203 S.3     
   4 C4            -2.2327     1.1477     0.0795 C.2     
   5 N5            -1.2126     1.9765     0.1123 N.2     
   6 N6            -3.5759     1.4730     0.0279 N.pl3   
   7 C7            -3.9754     2.8092     0.1202 C.ar    
   8 C8            -5.3243     3.1274     0.2184 C.ar    
   9 C9            -5.7155     4.4485     0.3094 C.ar    
  10 C10           -4.7664     5.4545     0.3024 C.ar    
  11 C11           -3.4232     5.1414     0.2044 C.ar    
  12 C12           -3.0245     3.8217     0.1197 C.ar    
  13 C13            1.2029    -0.6424     0.2197 C.ar    
  14 C14            2.2488    -0.4001    -0.6705 C.ar    
  15 C15            1.3223    -1.6671     1.1669 C.ar    
  16 C16            2.4739    -2.4339     1.2078 C.ar    
  17 C17            3.5028    -2.1880     0.3165 C.ar    
  18 C18            3.3910    -1.1734    -0.6172 C.ar    
  19 C19            1.2096     2.2798     0.1904 C.ar    
  20 C20            1.3766     3.3150    -0.7366 C.ar    
  21 C21            2.1932     2.0479     1.1505 C.ar    
  22 C22            3.3266     2.8349     1.1789 C.ar    
  23 C23            3.4908     3.8541     0.2576 C.ar    
  24 C24            2.5195     4.0966    -0.6958 C.ar    
  25 O25            0.3114    -1.9075     2.0429 O.3     
  26 C26            0.5038    -2.9686     2.9804 C.3     
  27 O27            0.4217     3.5521    -1.6731 O.3     
  28 C28            0.7115     4.5462    -2.6579 C.3     
  29 C29           -6.3592     2.0320     0.2251 C.3     
  30 H30           -4.2407     0.7738    -0.0724 H       
  31 H31           -6.7639     4.6965     0.3858 H       
  32 H32           -5.0751     6.4870     0.3734 H       
  33 H33           -2.6847     5.9294     0.1985 H       
  34 H34           -1.9752     3.5777     0.0435 H       
  35 H35            2.1650     0.3912    -1.4007 H       
  36 H36            2.5694    -3.2249     1.9369 H       
  37 H37            4.3998    -2.7884     0.3526 H       
  38 H38            4.1988    -0.9882    -1.3097 H       
  39 H39            2.0684     1.2536     1.8715 H       
  40 H40            4.0881     2.6548     1.9233 H       
  41 H41            4.3804     4.4658     0.2859 H       
  42 H42            2.6538     4.8936    -1.4121 H       
  43 H43            0.6548    -3.9050     2.4433 H       
  44 H44            1.3792    -2.7567     3.5944 H       
  45 H45           -0.3757    -3.0535     3.6187 H       
  46 H46            0.7984     5.5202    -2.1764 H       
  47 H47            1.6500     4.3019    -3.1556 H       
  48 H48           -0.0929     4.5748    -3.3930 H       
  49 H49           -6.5465     1.7154     1.2512 H       
  50 H50           -7.2845     2.4037    -0.2151 H       
  51 H51           -5.9951     1.1847    -0.3559 H       
  52 Br52           9.3998    11.4870     8.6187 Br      
@<TRIPOS>BOND
   1    1    2 2
   2    1   19 1
   3    1    5 1
   4    2    3 1
   5    2   13 1
   6    3    4 1
   7    4    5 2
   8    4    6 1
   9    6    7 1
  10    6   30 1
  11    7    8 ar
  12    7   12 ar
  13    8    9 ar
  14    8   29 1
  15    9   10 ar
  16    9   31 1
  17   10   11 ar
  18   10   32 1
  19   11   12 ar
  20   11   33 1
  21   12   34 1
  22   13   14 ar
  23   13   15 ar
  24   14   18 ar
  25   14   35 1
  26   15   16 ar
  27   15   25 1
  28   16   17 ar
  29   16   36 1
  30   17   18 ar
  31   17   37 1
  32   18   38 1
  33   19   20 ar
  34   19   21 ar
  35   20   27 1
  36   20   24 ar
  37   21   22 ar
  38   21   39 1
  39   22   23 ar
  40   22   40 1
  41   23   24 ar
  42   23   41 1
  43   24   42 1
  44   25   26 1
  45   26   43 1
  46   26   44 1
  47   26   45 1
  48   27   28 1
  49   28   46 1
  50   28   47 1
  51   28   48 1
  52   29   49 1
  53   29   50 1
  54   29   51 1

#	End of record

