#	Name: ASD01209028
#	Creating user name:	WinNT
#	Creation time:	15. 06. 2019 19:10

#	Modifying user name:	WinNT
#	Modification time:	15. 06. 2019 19:10

#	Program:	/corina/corina34_cracker 3.40 0067  02.08.2006

@<TRIPOS>MOLECULE
ASD01209028
  58   62    0    0    0
SMALL
NO_CHARGES


@<TRIPOS>ATOM
   1 S1            -0.9515    -0.3920     0.8194 S.o2    
   2 C2            -3.6190    -0.8631    -5.6190 C.3     
   3 C3            -4.9920    -0.4284    -5.1025 C.3     
   4 C4            -4.8267     0.7591    -4.1520 C.3     
   5 C5            -6.1848     1.2836    -3.7625 C.2     
   6 O6            -6.5681     1.1823    -2.6164 O.2     
   7 N7            -4.1073     0.3270    -2.9511 N.pl3   
   8 C8            -2.9119     0.8323    -2.5189 C.ar    
   9 C9            -2.5857     0.1393    -1.3377 C.ar    
  10 C10           -3.6688    -0.8086    -1.1020 C.2     
  11 N11           -4.5370    -0.6630    -2.0620 N.2     
  12 N12           -6.9733     1.8652    -4.6879 N.am    
  13 N13           -2.0948     1.7713    -2.9842 N.ar    
  14 C14           -0.9711     2.0760    -2.3606 C.ar    
  15 C15           -0.5918     1.4244    -1.1843 C.ar    
  16 C16           -1.3968     0.4508    -0.6625 C.ar    
  17 C17           -8.1752     2.4591    -4.3056 C.ar    
  18 C18           -2.2310     0.0853     2.0135 C.3     
  19 C19           -2.0652    -0.3955     3.4565 C.3     
  20 C20           -1.8390     1.0775     3.1102 C.3     
  21 O21           -1.0675    -1.7689     0.4879 O.2     
  22 O22            0.3021     0.1716     1.1799 O.2     
  23 C23           -3.7645    -2.1451    -6.4447 C.3     
  24 C24           -2.3995    -2.5285    -7.0222 C.3     
  25 O25           -1.8975    -1.4484    -7.8119 O.3     
  26 C26           -1.6964    -0.2363    -7.0820 C.3     
  27 C27           -3.0331     0.2391    -6.5068 C.3     
  28 C28           -8.4078     2.7651    -2.9679 C.ar    
  29 N29           -9.5467     3.3277    -2.6099 N.ar    
  30 C30          -10.4659     3.6005    -3.5203 C.ar    
  31 C31          -10.2383     3.2975    -4.8500 C.ar    
  32 N32           -9.0978     2.7389    -5.2166 N.ar    
  33 N33           -0.1490     3.0644    -2.8854 N.pl3   
  34 H34           -2.9533    -1.0461    -4.7756 H       
  35 H35           -5.6207    -0.1359    -5.9435 H       
  36 H36           -5.4592    -1.2572    -4.5706 H       
  37 H37           -4.2620     1.5472    -4.6499 H       
  38 H38           -3.7399    -1.5032    -0.2781 H       
  39 H39           -6.7045     1.8706    -5.6199 H       
  40 H40            0.3315     1.6886    -0.6903 H       
  41 H41           -3.2444     0.1474     1.6169 H       
  42 H42           -2.9696    -0.6494     4.0094 H       
  43 H43           -1.1874    -0.9986     3.6883 H       
  44 H44           -0.8123     1.4435     3.1142 H       
  45 H45           -2.5945     1.7927     3.4352 H       
  46 H46           -4.1290    -2.9500    -5.8064 H       
  47 H47           -4.4699    -1.9762    -7.2583 H       
  48 H48           -1.7056    -2.7365    -6.2078 H       
  49 H49           -2.5051    -3.4162    -7.6458 H       
  50 H50           -0.9933    -0.4144    -6.2684 H       
  51 H51           -1.2953     0.5271    -7.7487 H       
  52 H52           -3.7237     0.4561    -7.3217 H       
  53 H53           -2.8745     1.1394    -5.9131 H       
  54 H54           -7.6574     2.5422    -2.2238 H       
  55 H55          -11.3970     4.0610    -3.2245 H       
  56 H56          -10.9918     3.5211    -5.5906 H       
  57 H57           -0.4023     3.5231    -3.7017 H       
  58 H58            0.6786     3.2962    -2.4357 H       
@<TRIPOS>BOND
   1    1   21 2
   2    1   22 2
   3    1   16 1
   4    1   18 1
   5    2    3 1
   6    2   23 1
   7    2   27 1
   8    2   34 1
   9    3    4 1
  10    3   35 1
  11    3   36 1
  12    4    7 1
  13    4    5 1
  14    4   37 1
  15    5    6 2
  16    5   12 am
  17    7    8 1
  18    7   11 1
  19    8    9 ar
  20    8   13 ar
  21    9   10 1
  22    9   16 ar
  23   10   11 2
  24   10   38 1
  25   12   17 1
  26   12   39 1
  27   13   14 ar
  28   14   15 ar
  29   14   33 1
  30   15   16 ar
  31   15   40 1
  32   17   28 ar
  33   17   32 ar
  34   18   19 1
  35   18   20 1
  36   18   41 1
  37   19   20 1
  38   19   42 1
  39   19   43 1
  40   20   44 1
  41   20   45 1
  42   23   24 1
  43   23   46 1
  44   23   47 1
  45   24   25 1
  46   24   48 1
  47   24   49 1
  48   25   26 1
  49   26   27 1
  50   26   50 1
  51   26   51 1
  52   27   52 1
  53   27   53 1
  54   28   29 ar
  55   28   54 1
  56   29   30 ar
  57   30   31 ar
  58   30   55 1
  59   31   32 ar
  60   31   56 1
  61   33   57 1
  62   33   58 1

#	End of record

