#	Name: ASD01140039
#	Creating user name:	WinNT
#	Creation time:	15. 06. 2019 18:59

#	Modifying user name:	WinNT
#	Modification time:	15. 06. 2019 18:59

#	Program:	/corina/corina34_cracker 3.40 0067  02.08.2006

@<TRIPOS>MOLECULE
ASD01140039
  25   25    0    0    0
SMALL
NO_CHARGES


@<TRIPOS>ATOM
   1 C1            -0.0167     1.3833     0.0096 C.ar    
   2 C2             0.0021    -0.0041     0.0020 C.ar    
   3 C3             1.2081    -0.6771    -0.0131 C.ar    
   4 C4             1.2293    -2.1840    -0.0214 C.3     
   5 C5             2.3962     0.0305    -0.0211 C.ar    
   6 C6             2.3801     1.4128    -0.0135 C.ar    
   7 C7             1.1763     2.0908     0.0021 C.ar    
   8 C8             1.1596     3.5977     0.0098 C.3     
   9 C9             1.8867     4.1094     1.2549 C.3     
  10 C10            1.8634     4.1220    -1.2434 C.3     
  11 O11           -1.2021     2.0479     0.0189 O.3     
  12 H12           -0.9255    -0.5572     0.0083 H       
  13 H13            1.2246    -2.5417    -1.0510 H       
  14 H14            2.1291    -2.5375     0.4820 H       
  15 H15            0.3494    -2.5626     0.4988 H       
  16 H16            3.3382    -0.4976    -0.0329 H       
  17 H17            3.3093     1.9633    -0.0198 H       
  18 H18            0.1280     3.9495     0.0212 H       
  19 H19            2.9183     3.7576     1.2435 H       
  20 H20            1.8746     5.1994     1.2605 H       
  21 H21            1.3853     3.7359     2.1477 H       
  22 H22            1.3453     3.7575    -2.1305 H       
  23 H23            1.8512     5.2120    -1.2378 H       
  24 H24            2.8950     3.7702    -1.2549 H       
  25 H25           -1.5410     2.2354     0.9049 H       
@<TRIPOS>BOND
   1    1    2 ar
   2    1    7 ar
   3    1   11 1
   4    2    3 ar
   5    2   12 1
   6    3    4 1
   7    3    5 ar
   8    4   13 1
   9    4   14 1
  10    4   15 1
  11    5    6 ar
  12    5   16 1
  13    6    7 ar
  14    6   17 1
  15    7    8 1
  16    8    9 1
  17    8   10 1
  18    8   18 1
  19    9   19 1
  20    9   20 1
  21    9   21 1
  22   10   22 1
  23   10   23 1
  24   10   24 1
  25   11   25 1

#	End of record

