#	Name: ASD01708051
#	Creating user name:	WinNT
#	Creation time:	15. 06. 2019 19:22

#	Modifying user name:	WinNT
#	Modification time:	15. 06. 2019 19:22

#	Program:	/corina/corina34_cracker 3.40 0067  02.08.2006

@<TRIPOS>MOLECULE
ASD01708051
  66   71    0    0    0
SMALL
NO_CHARGES


@<TRIPOS>ATOM
   1 C1            -0.0162     1.3436     0.0094 C.2     
   2 N2            -0.0696    -0.0029     0.0369 N.am    
   3 O3             1.0598     1.9089    -0.0062 O.2     
   4 C4            -1.3440    -0.7130     0.1875 C.3     
   5 C5            -1.1878    -1.8314     1.1881 C.ar    
   6 C6             0.0445    -2.2331     1.6565 C.ar    
   7 C7            -2.3429    -2.4616     1.6356 C.ar    
   8 C8            -2.2747    -3.4957     2.5436 C.ar    
   9 C9            -1.0286    -3.9151     3.0180 C.ar    
  10 C10            0.1265    -3.2772     2.5683 C.ar    
  11 Cl11           1.6783    -3.7923     3.1517 Cl      
  12 Cl12          -3.7263    -4.2720     3.0949 Cl      
  13 C13           -0.9365    -5.0249     3.9882 C.2     
  14 N14           -0.9727    -4.7684     5.3108 N.am    
  15 O15           -0.8279    -6.1697     3.5938 O.2     
  16 C16           -0.8812    -5.8692     6.2732 C.3     
  17 C17           -2.2511    -6.4565     6.4963 C.2     
  18 O18           -2.4106    -7.4843     7.3447 O.3     
  19 O19           -3.2057    -6.0021     5.9114 O.2     
  20 C20           -1.2661     2.1326    -0.0079 C.2     
  21 C21           -0.3300    -5.3424     7.5997 C.3     
  22 C22           -1.3531     3.5248     0.0864 C.2     
  23 C23            1.1080    -4.8600     7.3988 C.3     
  24 C24            1.6509    -4.3411     8.7053 C.ar    
  25 C25            2.3186    -5.1971     9.5990 C.ar    
  26 C26            1.3337    -1.5826     1.2276 C.3     
  27 C27            1.1483    -0.8206    -0.0893 C.3     
  28 C28           -2.6959     3.8637     0.0310 C.2     
  29 N29           -3.4077     2.6969    -0.0946 N.pl3   
  30 N30           -2.4903     1.6389    -0.1211 N.2     
  31 C31           -3.3734     5.0990     0.0795 C.2     
  32 C32           -4.7310     5.1156     0.0005 C.2     
  33 C33           -5.4338     3.9057    -0.1277 C.2     
  34 C34           -4.7710     2.7316    -0.1737 C.2     
  35 C35            2.8078    -4.6508    10.8139 C.ar    
  36 N36            2.6136    -3.3489    11.0566 N.ar    
  37 C37            1.9828    -2.6007    10.1834 C.ar    
  38 N38            1.5166    -3.0724     9.0365 N.ar    
  39 C39            2.5107    -6.5594     9.3247 C.ar    
  40 C40            3.1651    -7.3395    10.2296 C.ar    
  41 C41            3.6455    -6.8040    11.4231 C.ar    
  42 C42            3.4767    -5.4857    11.7210 C.ar    
  43 H43           -2.1075    -0.0179     0.5368 H       
  44 H44           -1.6445    -1.1270    -0.7750 H       
  45 H45           -3.3050    -2.1368     1.2678 H       
  46 H46           -1.0592    -3.8550     5.6255 H       
  47 H47           -0.2152    -6.6386     5.8829 H       
  48 H48           -3.3080    -7.8272     7.4550 H       
  49 H49           -0.9466    -4.5128     7.9456 H       
  50 H50           -0.3451    -6.1405     8.3420 H       
  51 H51           -0.5249     4.2111     0.1846 H       
  52 H52            1.7246    -5.6896     7.0529 H       
  53 H53            1.1231    -4.0619     6.6565 H       
  54 H54            1.6602    -0.8889     2.0024 H       
  55 H55            2.0948    -2.3508     1.0915 H       
  56 H56            1.0407    -1.5271    -0.9123 H       
  57 H57            2.0087    -0.1753    -0.2663 H       
  58 H58           -2.8207     6.0216     0.1785 H       
  59 H59           -5.2658     6.0533     0.0364 H       
  60 H60           -6.5119     3.9157    -0.1903 H       
  61 H61           -5.3241     1.8092    -0.2727 H       
  62 H62            1.8409    -1.5537    10.4072 H       
  63 H63            2.1424    -6.9863     8.4036 H       
  64 H64            3.3134    -8.3883    10.0191 H       
  65 H65            4.1606    -7.4449    12.1233 H       
  66 H66            3.8549    -5.0858    12.6503 H       
@<TRIPOS>BOND
   1    1    2 am
   2    1    3 2
   3    1   20 1
   4    2    4 1
   5    2   27 1
   6    4    5 1
   7    4   43 1
   8    4   44 1
   9    5    6 ar
  10    5    7 ar
  11    6   26 1
  12    6   10 ar
  13    7    8 ar
  14    7   45 1
  15    8    9 ar
  16    8   12 1
  17    9   10 ar
  18    9   13 1
  19   10   11 1
  20   13   14 am
  21   13   15 2
  22   14   16 1
  23   14   46 1
  24   16   17 1
  25   16   21 1
  26   16   47 1
  27   17   18 1
  28   17   19 2
  29   18   48 1
  30   20   22 1
  31   20   30 2
  32   21   23 1
  33   21   49 1
  34   21   50 1
  35   22   28 2
  36   22   51 1
  37   23   24 1
  38   23   52 1
  39   23   53 1
  40   24   25 ar
  41   24   38 ar
  42   25   35 ar
  43   25   39 ar
  44   26   27 1
  45   26   54 1
  46   26   55 1
  47   27   56 1
  48   27   57 1
  49   28   29 1
  50   28   31 1
  51   29   30 1
  52   29   34 1
  53   31   32 2
  54   31   58 1
  55   32   33 1
  56   32   59 1
  57   33   34 2
  58   33   60 1
  59   34   61 1
  60   35   36 ar
  61   35   42 ar
  62   36   37 ar
  63   37   38 ar
  64   37   62 1
  65   39   40 ar
  66   39   63 1
  67   40   41 ar
  68   40   64 1
  69   41   42 ar
  70   41   65 1
  71   42   66 1

#	End of record

