#	Name: ASD01917508
#	Creating user name:	WinNT
#	Creation time:	15. 06. 2019 20:09

#	Modifying user name:	WinNT
#	Modification time:	15. 06. 2019 20:09

#	Program:	/corina/corina34_cracker 3.40 0067  02.08.2006

@<TRIPOS>MOLECULE
ASD01917508
  53   56    0    0    0
SMALL
NO_CHARGES


@<TRIPOS>ATOM
   1 C1            -0.0168     1.3902     0.0097 C.ar    
   2 C2             0.0021    -0.0041     0.0020 C.ar    
   3 N3             1.1281     2.0669     0.0024 N.ar    
   4 N4             1.1562    -0.6463    -0.0125 N.ar    
   5 C5             2.2907     0.0310    -0.0196 C.ar    
   6 C6             2.2753     1.4182    -0.0120 C.ar    
   7 C7            -1.3085     2.1156     0.0197 C.2     
   8 O8            -2.3536     1.4956     0.0213 O.2     
   9 N9            -1.3245     3.4633     0.0271 N.am    
  10 C10           -2.6019     4.1806     0.0371 C.3     
  11 C11           -3.4773     3.8434    -1.1826 C.3     
  12 C12           -4.8692     4.4447    -0.9789 C.3     
  13 C13           -4.7669     5.9505    -0.7283 C.3     
  14 C14           -3.8361     6.1969     0.4719 C.3     
  15 C15           -4.2366     5.1973     1.5813 C.3     
  16 C16           -3.4395     3.8875     1.3032 C.3     
  17 C17           -2.4224     5.7218     0.0441 C.3     
  18 C18           -5.0549     9.5455     1.8034 C.ar    
  19 C19           -6.2567    10.1077     2.2280 C.ar    
  20 C20           -6.2677    11.4235     2.6631 C.ar    
  21 C21           -5.0759    12.1315     2.6583 C.ar    
  22 C22           -3.9176    11.5085     2.2223 C.ar    
  23 N23           -3.9355    10.2582     1.8145 N.ar    
  24 C24           -5.0251     8.1380     1.3411 C.2     
  25 O25           -6.0462     7.4793     1.3334 O.2     
  26 N26           -3.8655     7.5885     0.9290 N.am    
  27 C27           -2.6196    12.2741     2.2152 C.3     
  28 C28            3.6053    -0.7056    -0.0362 C.3     
  29 H29           -0.9252    -0.5578     0.0083 H       
  30 H30            3.2051     1.9676    -0.0183 H       
  31 H31           -0.4903     3.9582     0.0259 H       
  32 H32           -3.0268     4.2633    -2.0821 H       
  33 H33           -3.5588     2.7613    -1.2850 H       
  34 H34           -5.4726     4.2674    -1.8691 H       
  35 H35           -5.3461     3.9681    -0.1224 H       
  36 H36           -4.3594     6.4405    -1.6125 H       
  37 H37           -5.7566     6.3520    -0.5107 H       
  38 H38           -3.9693     5.5965     2.5597 H       
  39 H39           -5.3073     4.9980     1.5373 H       
  40 H40           -4.1264     3.0623     1.1152 H       
  41 H41           -2.7830     3.6460     2.1391 H       
  42 H42           -1.6618     6.0234     0.7644 H       
  43 H43           -2.1830     6.0919    -0.9527 H       
  44 H44           -7.1670     9.5265     2.2180 H       
  45 H45           -7.1840    11.8868     2.9979 H       
  46 H46           -5.0506    13.1587     2.9908 H       
  47 H47           -3.0505     8.1144     0.9351 H       
  48 H48           -2.1153    12.1431     3.1726 H       
  49 H49           -1.9816    11.9002     1.4144 H       
  50 H50           -2.8229    13.3326     2.0535 H       
  51 H51            3.9124    -0.8777    -1.0677 H       
  52 H52            4.3622    -0.1096     0.4737 H       
  53 H53            3.4921    -1.6624     0.4736 H       
@<TRIPOS>BOND
   1    1    2 ar
   2    1    3 ar
   3    1    7 1
   4    2    4 ar
   5    2   29 1
   6    3    6 ar
   7    4    5 ar
   8    5    6 ar
   9    5   28 1
  10    6   30 1
  11    7    8 2
  12    7    9 am
  13    9   10 1
  14    9   31 1
  15   10   11 1
  16   10   16 1
  17   10   17 1
  18   11   12 1
  19   11   32 1
  20   11   33 1
  21   12   13 1
  22   12   34 1
  23   12   35 1
  24   13   14 1
  25   13   36 1
  26   13   37 1
  27   14   15 1
  28   14   17 1
  29   14   26 1
  30   15   16 1
  31   15   38 1
  32   15   39 1
  33   16   40 1
  34   16   41 1
  35   17   42 1
  36   17   43 1
  37   18   19 ar
  38   18   23 ar
  39   18   24 1
  40   19   20 ar
  41   19   44 1
  42   20   21 ar
  43   20   45 1
  44   21   22 ar
  45   21   46 1
  46   22   23 ar
  47   22   27 1
  48   24   25 2
  49   24   26 am
  50   26   47 1
  51   27   48 1
  52   27   49 1
  53   27   50 1
  54   28   51 1
  55   28   52 1
  56   28   53 1

#	End of record

