#	Name: ASD01812518
#	Creating user name:	WinNT
#	Creation time:	15. 06. 2019 19:28

#	Modifying user name:	WinNT
#	Modification time:	15. 06. 2019 19:28

#	Program:	/corina/corina34_cracker 3.40 0067  02.08.2006

@<TRIPOS>MOLECULE
ASD01812518
  55   60    0    0    0
SMALL
NO_CHARGES


@<TRIPOS>ATOM
   1 C1            -0.0177     1.4558     0.0100 C.ar    
   2 C2             0.0021    -0.0041     0.0020 C.ar    
   3 C3            -1.2308    -0.7011     0.0105 C.ar    
   4 C4            -2.4445     0.0178     0.0269 C.ar    
   5 C5            -2.4563     1.3720     0.0348 C.ar    
   6 C6            -1.2628     2.1110     0.0315 C.ar    
   7 C7            -1.2222    -2.1043     0.0029 C.ar    
   8 C8            -0.0348    -2.7735    -0.0125 C.ar    
   9 C9             1.1743    -2.0857    -0.0203 C.ar    
  10 C10            1.2025    -0.7215    -0.0133 C.ar    
  11 N11            1.1115     2.1836     0.0032 N.2     
  12 C12            1.0872     3.4846     0.0109 C.2     
  13 N13           -0.0648     4.2046     0.0267 N.am    
  14 C14           -1.2648     3.5791     0.0393 C.2     
  15 C15           -3.7504    -0.7341     0.0354 C.3     
  16 C16           -4.1099    -1.1006     1.4522 C.ar    
  17 C17           -3.6804    -2.2958     1.9943 C.ar    
  18 C18           -4.8714    -0.2379     2.2282 C.ar    
  19 C19           -5.1790    -0.6134     3.5245 C.ar    
  20 C20           -4.7181    -1.8333     4.0020 C.ar    
  21 N21           -3.9900    -2.6264     3.2335 N.ar    
  22 O22           -2.3064     4.2098     0.0577 O.2     
  23 O23           -5.0125    -2.2126     5.2710 O.3     
  24 C24           -4.5094    -3.4785     5.7029 C.3     
  25 C25           -0.0101     5.6030     0.0346 C.2     
  26 N26            1.0860     6.3241     0.0280 N.2     
  27 N27            0.6856     7.6701     0.0393 N.pl3   
  28 C28           -0.6616     7.6666     0.0522 C.2     
  29 N29           -1.0661     6.4225     0.0442 N.2     
  30 C30            1.5221     8.7946     0.0420 C.ar    
  31 C31            2.9014     8.6357     0.0272 C.ar    
  32 C32            3.7231     9.7458     0.0294 C.ar    
  33 C33            3.1734    11.0146     0.0468 C.ar    
  34 C34            1.8002    11.1761     0.0620 C.ar    
  35 C35            0.9732    10.0699     0.0536 C.ar    
  36 H36           -3.4021     1.8934     0.0469 H       
  37 H37           -2.1530    -2.6520     0.0096 H       
  38 H38           -0.0327    -3.8535    -0.0183 H       
  39 H39            2.1022    -2.6382    -0.0322 H       
  40 H40            2.1472    -0.1983    -0.0202 H       
  41 H41            2.0268     4.0169     0.0047 H       
  42 H42           -4.5343    -0.1057    -0.3874 H       
  43 H43           -3.6512    -1.6414    -0.5606 H       
  44 H44           -3.0838    -2.9687     1.3962 H       
  45 H45           -5.2158     0.7050     1.8298 H       
  46 H46           -5.7693     0.0339     4.1562 H       
  47 H47           -4.9073    -4.2654     5.0623 H       
  48 H48           -3.4210    -3.4766     5.6428 H       
  49 H49           -4.8160    -3.6590     6.7332 H       
  50 H50           -1.2974     8.5396     0.0634 H       
  51 H51            3.3312     7.6450     0.0144 H       
  52 H52            4.7960     9.6228     0.0180 H       
  53 H53            3.8180    11.8811     0.0489 H       
  54 H54            1.3739    12.1683     0.0759 H       
  55 H55           -0.0993    10.1968     0.0606 H       
@<TRIPOS>BOND
   1    1    2 ar
   2    1   11 1
   3    1    6 ar
   4    2   10 ar
   5    2    3 ar
   6    3    4 ar
   7    3    7 ar
   8    4    5 ar
   9    4   15 1
  10    5    6 ar
  11    5   36 1
  12    6   14 1
  13    7    8 ar
  14    7   37 1
  15    8    9 ar
  16    8   38 1
  17    9   10 ar
  18    9   39 1
  19   10   40 1
  20   11   12 2
  21   12   13 1
  22   12   41 1
  23   13   14 am
  24   13   25 1
  25   14   22 2
  26   15   16 1
  27   15   42 1
  28   15   43 1
  29   16   18 ar
  30   16   17 ar
  31   17   21 ar
  32   17   44 1
  33   18   19 ar
  34   18   45 1
  35   19   20 ar
  36   19   46 1
  37   20   21 ar
  38   20   23 1
  39   23   24 1
  40   24   47 1
  41   24   48 1
  42   24   49 1
  43   25   26 2
  44   25   29 1
  45   26   27 1
  46   27   28 1
  47   27   30 1
  48   28   29 2
  49   28   50 1
  50   30   31 ar
  51   30   35 ar
  52   31   32 ar
  53   31   51 1
  54   32   33 ar
  55   32   52 1
  56   33   34 ar
  57   33   53 1
  58   34   35 ar
  59   34   54 1
  60   35   55 1

#	End of record

