#	Name: ASD01884203
#	Creating user name:	WinNT
#	Creation time:	15. 06. 2019 19:47

#	Modifying user name:	WinNT
#	Modification time:	15. 06. 2019 19:47

#	Program:	/corina/corina34_cracker 3.40 0067  02.08.2006

@<TRIPOS>MOLECULE
ASD01884203
  36   39    0    0    0
SMALL
NO_CHARGES


@<TRIPOS>ATOM
   1 S1            -0.0219     1.7672     0.0118 S.3     
   2 C2             0.0021    -0.0041     0.0020 C.2     
   3 N3             1.2907    -0.3577    -0.0122 N.am    
   4 C4             2.2517     0.6358    -0.0160 C.ar    
   5 C5             1.7392     1.9355    -0.0042 C.ar    
   6 C6             2.5664     3.0406    -0.0061 C.ar    
   7 C7             3.9501     2.8707    -0.0202 C.ar    
   8 C8             4.4768     1.5777    -0.0322 C.ar    
   9 C9             3.6481     0.4838    -0.0306 C.ar    
  10 O10           -0.9607    -0.7487     0.0078 O.2     
  11 C11            4.8502     4.0471    -0.0230 C.ar    
  12 C12            5.4957     6.1735    -0.9366 C.ar    
  13 C13            6.5415     6.2546    -0.0274 C.ar    
  14 C14            6.7552     5.2412     0.8817 C.ar    
  15 C15            5.9138     4.1268     0.8954 C.ar    
  16 C16            1.6772    -1.7707    -0.0230 C.3     
  17 C17            1.7985    -2.2553    -1.4692 C.3     
  18 C18            2.3090    -3.6795    -1.6966 C.3     
  19 C19            0.8336    -3.3492    -1.9309 C.3     
  20 F20            3.1067    -3.9076    -2.8230 F       
  21 F21            2.6293    -4.4391    -0.5662 F       
  22 C22            4.6527     5.0773    -0.9373 C.ar    
  23 C23            6.1316     3.0715     1.8385 C.1     
  24 N24            6.3044     2.2343     2.5867 N.1     
  25 F25            5.2972     7.1738    -1.8226 F       
  26 H26            2.1429     4.0341     0.0029 H       
  27 H27            5.5475     1.4370    -0.0432 H       
  28 H28            4.0757    -0.5079    -0.0400 H       
  29 H29            7.1918     7.1168    -0.0328 H       
  30 H30            7.5707     5.3108     1.5863 H       
  31 H31            2.6362    -1.8889     0.4814 H       
  32 H32            0.9194    -2.3587     0.4949 H       
  33 H33            2.0844    -1.4959    -2.1970 H       
  34 H34            0.1124    -3.7237    -1.2044 H       
  35 H35            0.4845    -3.3096    -2.9627 H       
  36 H36            3.8412     5.0206    -1.6477 H       
@<TRIPOS>BOND
   1    1    2 1
   2    1    5 1
   3    2    3 am
   4    2   10 2
   5    3    4 1
   6    3   16 1
   7    4    5 ar
   8    4    9 ar
   9    5    6 ar
  10    6    7 ar
  11    6   26 1
  12    7    8 ar
  13    7   11 1
  14    8    9 ar
  15    8   27 1
  16    9   28 1
  17   11   22 ar
  18   11   15 ar
  19   12   13 ar
  20   12   25 1
  21   12   22 ar
  22   13   14 ar
  23   13   29 1
  24   14   15 ar
  25   14   30 1
  26   15   23 1
  27   16   17 1
  28   16   31 1
  29   16   32 1
  30   17   18 1
  31   17   19 1
  32   17   33 1
  33   18   19 1
  34   18   20 1
  35   18   21 1
  36   19   34 1
  37   19   35 1
  38   22   36 1
  39   23   24 3

#	End of record

