#	Name: ASD01208558
#	Creating user name:	WinNT
#	Creation time:	15. 06. 2019 19:10

#	Modifying user name:	WinNT
#	Modification time:	15. 06. 2019 19:10

#	Program:	/corina/corina34_cracker 3.40 0067  02.08.2006

@<TRIPOS>MOLECULE
ASD01208558
  67   69    0    0    0
SMALL
NO_CHARGES


@<TRIPOS>ATOM
   1 N1            -0.4254     1.0387    -0.9861 N.pl3   
   2 C2            -0.4110    -0.2451    -1.4833 C.2     
   3 C3             0.9062    -0.6219    -1.6528 C.2     
   4 C4             1.7021     0.4497    -1.2523 C.2     
   5 C5             0.8629     1.4641    -0.8446 C.2     
   6 C6            -1.5876    -1.0675    -1.7800 C.2     
   7 O7            -1.4477    -2.1942    -2.2186 O.2     
   8 N8            -2.8244    -0.5760    -1.5670 N.am    
   9 C9             1.2867     2.7873    -0.3400 C.ar    
  10 C10            2.6439     3.0979    -0.2442 C.ar    
  11 C11            3.0367     4.3388     0.2286 C.ar    
  12 C12            2.0830     5.2731     0.6068 C.ar    
  13 C13            0.7325     4.9684     0.5137 C.ar    
  14 C14            0.3309     3.7313     0.0363 C.ar    
  15 O15           -0.1974     5.8865     0.8862 O.3     
  16 C16           -1.7793     6.6203     2.5125 C.ar    
  17 C17           -0.8052     5.7263     2.0911 C.ar    
  18 C18           -0.4600     4.6634     2.9197 C.ar    
  19 C19           -1.1076     4.5415     4.1387 C.ar    
  20 C20           -2.0676     5.4722     4.4889 C.ar    
  21 N21           -2.3719     6.4683     3.6799 N.ar    
  22 S22           -2.8965     5.3254     6.0368 S.o2    
  23 O23           -4.1453     5.9706     5.8282 O.2     
  24 O24           -2.8299     3.9387     6.3399 O.2     
  25 C25           -1.8723     6.2792     7.1909 C.3     
  26 O26            4.3582     4.6419     0.3226 O.3     
  27 C27            4.6917     5.9699     0.7316 C.3     
  28 C28            6.0903     6.3243     0.2225 C.3     
  29 C29            4.6684     6.0542     2.2591 C.3     
  30 O30            7.0551     5.4806     0.8544 O.3     
  31 C31            8.4017     5.7306     0.4466 C.3     
  32 C32           -4.0003    -1.3979    -1.8636 C.3     
  33 C33           -5.1786    -0.9302    -1.0071 C.3     
  34 C34           -4.7763    -0.9510     0.4689 C.3     
  35 C35           -4.3593    -1.2591    -3.3444 C.3     
  36 O36           -5.5424     0.3997    -1.3829 O.3     
  37 H37           -1.2187     1.5556    -0.7756 H       
  38 H38            1.2558    -1.5729    -2.0268 H       
  39 H39            2.7816     0.4799    -1.2600 H       
  40 H40           -2.9359     0.3219    -1.2174 H       
  41 H41            3.3869     2.3712    -0.5380 H       
  42 H42            2.3927     6.2399     0.9751 H       
  43 H43           -0.7205     3.4965    -0.0402 H       
  44 H44           -2.0517     7.4516     1.8791 H       
  45 H45            0.2940     3.9505     2.6201 H       
  46 H46           -0.8654     3.7285     4.8071 H       
  47 H47           -1.8159     7.3149     6.8561 H       
  48 H48           -2.3159     6.2426     8.1859 H       
  49 H49           -0.8696     5.8531     7.2242 H       
  50 H50            3.9662     6.6704     0.3180 H       
  51 H51            6.1317     6.1786    -0.8570 H       
  52 H52            6.3093     7.3659     0.4572 H       
  53 H53            3.6720     5.8018     2.6218 H       
  54 H54            5.3939     5.3537     2.6727 H       
  55 H55            4.9228     7.0672     2.5710 H       
  56 H56            8.6686     6.7599     0.6859 H       
  57 H57            9.0724     5.0500     0.9709 H       
  58 H58            8.4911     5.5726    -0.6282 H       
  59 H59           -3.7800    -2.4417    -1.6395 H       
  60 H60           -6.0273    -1.5964    -1.1618 H       
  61 H61           -3.9276    -0.2847     0.6236 H       
  62 H62           -5.6157    -0.6177     1.0791 H       
  63 H63           -4.4988    -1.9653     0.7556 H       
  64 H64           -3.5198    -1.5924    -3.9546 H       
  65 H65           -5.2342    -1.8706    -3.5650 H       
  66 H66           -4.5796    -0.2154    -3.5685 H       
  67 H67           -6.2846     0.7615    -0.8797 H       
@<TRIPOS>BOND
   1    1    2 1
   2    1    5 1
   3    1   37 1
   4    2    3 2
   5    2    6 1
   6    3    4 1
   7    3   38 1
   8    4    5 2
   9    4   39 1
  10    5    9 1
  11    6    7 2
  12    6    8 am
  13    8   32 1
  14    8   40 1
  15    9   10 ar
  16    9   14 ar
  17   10   11 ar
  18   10   41 1
  19   11   12 ar
  20   11   26 1
  21   12   13 ar
  22   12   42 1
  23   13   14 ar
  24   13   15 1
  25   14   43 1
  26   15   17 1
  27   16   17 ar
  28   16   21 ar
  29   16   44 1
  30   17   18 ar
  31   18   19 ar
  32   18   45 1
  33   19   20 ar
  34   19   46 1
  35   20   21 ar
  36   20   22 1
  37   22   23 2
  38   22   24 2
  39   22   25 1
  40   25   47 1
  41   25   48 1
  42   25   49 1
  43   26   27 1
  44   27   28 1
  45   27   29 1
  46   27   50 1
  47   28   30 1
  48   28   51 1
  49   28   52 1
  50   29   53 1
  51   29   54 1
  52   29   55 1
  53   30   31 1
  54   31   56 1
  55   31   57 1
  56   31   58 1
  57   32   33 1
  58   32   35 1
  59   32   59 1
  60   33   34 1
  61   33   36 1
  62   33   60 1
  63   34   61 1
  64   34   62 1
  65   34   63 1
  66   35   64 1
  67   35   65 1
  68   35   66 1
  69   36   67 1

#	End of record

