#	Name: ASD02690061
#	Creating user name:	WinNT
#	Creation time:	15. 06. 2019 20:26

#	Modifying user name:	WinNT
#	Modification time:	15. 06. 2019 20:26

#	Program:	/corina/corina34_cracker 3.40 0067  02.08.2006

@<TRIPOS>MOLECULE
ASD02690061
  61   63    0    0    0
SMALL
NO_CHARGES


@<TRIPOS>ATOM
   1 C1            -0.0322     1.1768    -0.0403 C.2     
   2 O2            -0.0088    -0.0339     0.0235 O.2     
   3 C3             1.2269     1.9335    -0.1242 C.ar    
   4 C4             2.4513     1.2507    -0.1300 C.ar    
   5 C5             3.6319     1.9863    -0.2100 C.ar    
   6 C6             3.5458     3.3648    -0.2807 C.ar    
   7 C7             2.2977     3.9732    -0.2701 C.ar    
   8 N8             1.1967     3.2613    -0.1996 N.ar    
   9 O9             2.4860    -0.1029    -0.0584 O.3     
  10 C10            3.7747    -0.7203    -0.0700 C.3     
  11 N11           -4.0827     2.0910     0.8777 N.3     
  12 C12           -3.7949     1.7039    -0.5093 C.3     
  13 C13           -2.4486     0.9787    -0.5690 C.3     
  14 C14           -1.3510     1.9060    -0.0400 C.3     
  15 C15           -1.6992     2.3331     1.3885 C.3     
  16 C16           -3.0672     3.0190     1.3916 C.3     
  17 C17           -6.4479     1.7266     0.3532 C.3     
  18 C18           -5.4292     2.6663     0.9951 C.3     
  19 C19           -5.7920     2.8338     2.4754 C.3     
  20 C20           -7.0809     3.6483     2.5661 C.3     
  21 C21           -8.1429     3.0604     1.6741 C.ar    
  22 C22           -9.4607     3.4344     1.9044 C.ar    
  23 C23          -10.4787     2.9341     1.1196 C.ar    
  24 C24          -10.1860     2.0537     0.0944 C.ar    
  25 C25           -8.8782     1.6801    -0.1350 C.ar    
  26 C26           -7.8518     2.1811     0.6557 C.ar    
  27 O27           -5.9911     1.5499     3.0705 O.3     
  28 H28            4.5919     1.4916    -0.2164 H       
  29 H29            4.4425     3.9635    -0.3433 H       
  30 H30            2.2313     5.0498    -0.3253 H       
  31 H31            3.6597    -1.8024    -0.0078 H       
  32 H32            4.2929    -0.4624    -0.9936 H       
  33 H33            4.3545    -0.3669     0.7827 H       
  34 H34           -4.5807     1.0413    -0.8719 H       
  35 H35           -3.7550     2.5959    -1.1345 H       
  36 H36           -2.4922     0.0792     0.0450 H       
  37 H37           -2.2280     0.7053    -1.6009 H       
  38 H38           -1.2800     2.7873    -0.6776 H       
  39 H39           -1.7310     1.4549     2.0334 H       
  40 H40           -0.9432     3.0274     1.7553 H       
  41 H41           -3.0308     3.9049     0.7575 H       
  42 H42           -3.3246     3.3116     2.4095 H       
  43 H43           -6.2979     1.7173    -0.7264 H       
  44 H44           -6.3041     0.7194     0.7441 H       
  45 H45           -5.4590     3.6355     0.4973 H       
  46 H46           -4.9890     3.3584     2.9931 H       
  47 H47           -7.4356     3.6462     3.5968 H       
  48 H48           -6.8801     4.6743     2.2578 H       
  49 H49           -9.6902     4.1223     2.7047 H       
  50 H50          -11.5010     3.2288     1.3055 H       
  51 H51          -10.9786     1.6596    -0.5243 H       
  52 H52           -8.6504     0.9920    -0.9356 H       
  53 H53           -6.2238     1.5830     4.0085 H       
  54 C54           10.7662    13.1669     9.0363 C.2     
  55 C55           10.7864    11.6728     9.0281 C.2     
  56 O56           11.8078    13.7874     9.0297 O.2     
  57 O57            9.5919    13.8237     9.0454 O.3     
  58 O58            9.7447    11.0523     9.0347 O.2     
  59 O59           11.9606    11.0160     9.0133 O.3     
  60 H60            9.6294    14.7900     9.0505 H       
  61 H61           11.9231    10.0498     9.0085 H       
@<TRIPOS>BOND
   1    1    2 2
   2    1    3 1
   3    1   14 1
   4    3    4 ar
   5    3    8 ar
   6    4    5 ar
   7    4    9 1
   8    5    6 ar
   9    5   28 1
  10    6    7 ar
  11    6   29 1
  12    7    8 ar
  13    7   30 1
  14    9   10 1
  15   10   31 1
  16   10   32 1
  17   10   33 1
  18   11   12 1
  19   11   16 1
  20   11   18 1
  21   12   13 1
  22   12   34 1
  23   12   35 1
  24   13   14 1
  25   13   36 1
  26   13   37 1
  27   14   15 1
  28   14   38 1
  29   15   16 1
  30   15   39 1
  31   15   40 1
  32   16   41 1
  33   16   42 1
  34   17   18 1
  35   17   26 1
  36   17   43 1
  37   17   44 1
  38   18   19 1
  39   18   45 1
  40   19   20 1
  41   19   27 1
  42   19   46 1
  43   20   21 1
  44   20   47 1
  45   20   48 1
  46   21   22 ar
  47   21   26 ar
  48   22   23 ar
  49   22   49 1
  50   23   24 ar
  51   23   50 1
  52   24   25 ar
  53   24   51 1
  54   25   26 ar
  55   25   52 1
  56   27   53 1
  57   54   55 1
  58   54   56 2
  59   54   57 1
  60   55   58 2
  61   55   59 1
  62   57   60 1
  63   59   61 1

#	End of record

