#	Name: ASD01901166
#	Creating user name:	WinNT
#	Creation time:	15. 06. 2019 19:53

#	Modifying user name:	WinNT
#	Modification time:	15. 06. 2019 19:53

#	Program:	/corina/corina34_cracker 3.40 0067  02.08.2006

@<TRIPOS>MOLECULE
ASD01901166
  51   54    0    0    0
SMALL
NO_CHARGES


@<TRIPOS>ATOM
   1 C1             1.7550     1.4750    -1.4439 C.ar    
   2 C2             1.8510     0.1004    -1.5026 C.ar    
   3 C3             1.7668    -0.6526    -0.3446 C.ar    
   4 C4             1.5859    -0.0336     0.8798 C.ar    
   5 C5             1.4882     1.3401     0.9540 C.ar    
   6 C6             1.5727     2.1071    -0.2110 C.ar    
   7 C7             1.4726     3.5340    -0.1419 C.1     
   8 C8             1.3905     4.7037    -0.0853 C.1     
   9 C9             1.2904     6.1305    -0.0162 C.ar    
  10 C10            1.1074     6.7726     1.2174 C.ar    
  11 C11            1.0171     8.1513     1.2321 C.ar    
  12 C12            1.1099     8.8519     0.0329 C.ar    
  13 N13            1.2822     8.2163    -1.1156 N.ar    
  14 C14            1.3793     6.9045    -1.1755 C.ar    
  15 N15            1.0193    10.2458     0.0413 N.am    
  16 C16            2.1397    10.9810     0.1355 C.2     
  17 N17            2.1332    12.3049    -0.0897 N.am    
  18 C18            0.9258    12.9808    -0.5683 C.3     
  19 C19           -0.3080    12.3314     0.0626 C.3     
  20 C20           -0.1884    10.8320    -0.0507 C.2     
  21 O21            3.1841    10.4351     0.4322 O.2     
  22 O22           -1.1797    10.1552    -0.2208 O.2     
  23 C23            3.3511    13.0838     0.1472 C.3     
  24 C24            0.9825    14.4579    -0.1737 C.3     
  25 C25            0.8425    12.8649    -2.0686 C.ar    
  26 Cl26           0.7899     9.0002     2.7293 Cl      
  27 C27           -0.2583    13.3631    -2.7402 C.ar    
  28 C28            1.8694    12.2656    -2.7736 C.ar    
  29 C29            1.7929    12.1593    -4.1498 C.ar    
  30 C30            0.6893    12.6519    -4.8208 C.ar    
  31 C31           -0.3348    13.2568    -4.1163 C.ar    
  32 H32            1.8250     2.0616    -2.3480 H       
  33 H33            1.9919    -0.3896    -2.4547 H       
  34 H34            1.8424    -1.7287    -0.3967 H       
  35 H35            1.5207    -0.6277     1.7793 H       
  36 H36            1.3466     1.8219     1.9102 H       
  37 H37            1.0384     6.2035     2.1327 H       
  38 H38            1.5246     6.4221    -2.1308 H       
  39 H39           -0.3730    12.6167     1.1126 H       
  40 H40           -1.2034    12.6644    -0.4623 H       
  41 H41            4.1430    12.4221     0.4983 H       
  42 H42            3.6626    13.5625    -0.7812 H       
  43 H43            3.1539    13.8462     0.9008 H       
  44 H44            1.0424    14.5421     0.9114 H       
  45 H45            1.8612    14.9206    -0.6230 H       
  46 H46            0.0843    14.9635    -0.5283 H       
  47 H47           -1.0587    13.8350    -2.1897 H       
  48 H48            2.7316    11.8807    -2.2494 H       
  49 H49            2.5955    11.6916    -4.7007 H       
  50 H50            0.6297    12.5692    -5.8960 H       
  51 H51           -1.1950    13.6456    -4.6410 H       
@<TRIPOS>BOND
   1    1    2 ar
   2    1    6 ar
   3    1   32 1
   4    2    3 ar
   5    2   33 1
   6    3    4 ar
   7    3   34 1
   8    4    5 ar
   9    4   35 1
  10    5    6 ar
  11    5   36 1
  12    6    7 1
  13    7    8 3
  14    8    9 1
  15    9   10 ar
  16    9   14 ar
  17   10   11 ar
  18   10   37 1
  19   11   12 ar
  20   11   26 1
  21   12   13 ar
  22   12   15 1
  23   13   14 ar
  24   14   38 1
  25   15   16 am
  26   15   20 am
  27   16   17 am
  28   16   21 2
  29   17   23 1
  30   17   18 1
  31   18   19 1
  32   18   24 1
  33   18   25 1
  34   19   20 1
  35   19   39 1
  36   19   40 1
  37   20   22 2
  38   23   41 1
  39   23   42 1
  40   23   43 1
  41   24   44 1
  42   24   45 1
  43   24   46 1
  44   25   28 ar
  45   25   27 ar
  46   27   31 ar
  47   27   47 1
  48   28   29 ar
  49   28   48 1
  50   29   30 ar
  51   29   49 1
  52   30   31 ar
  53   30   50 1
  54   31   51 1

#	End of record

