#	Name: ASD04590805
#	Creating user name:	WinNT
#	Creation time:	15. 06. 2019 20:51

#	Modifying user name:	WinNT
#	Modification time:	15. 06. 2019 20:51

#	Program:	/corina/corina34_cracker 3.40 0067  02.08.2006

@<TRIPOS>MOLECULE
ASD04590805
  67   72    0    0    0
SMALL
NO_CHARGES


@<TRIPOS>ATOM
   1 O1            -0.0173     1.4255     0.0099 O.3     
   2 C2             0.0021    -0.0041     0.0020 C.3     
   3 C3             0.6661    -0.4925    -1.2904 C.3     
   4 N4             1.9690     0.1782    -1.4253 N.am    
   5 C5             2.0101     1.6429    -1.2883 C.3     
   6 C6             1.2777     2.0287     0.0008 C.3     
   7 C7             1.1348     3.5508     0.0701 C.3     
   8 C8             0.4599     3.9353     1.3889 C.3     
   9 N9             1.2682     3.4477     2.5138 N.3     
  10 C10            1.3776     1.9834     2.4945 C.3     
  11 C11            2.0798     1.5400     1.2089 C.3     
  12 C12            3.0913    -0.5279    -1.6667 C.2     
  13 O13            4.1577     0.0444    -1.7748 O.2     
  14 O14            3.0308    -1.8674    -1.7880 O.3     
  15 C15            0.7253     3.9182     3.7952 C.3     
  16 C16            1.4217     3.2076     4.9271 C.ar    
  17 C17            2.5688     3.7460     5.4795 C.ar    
  18 C18            3.2076     3.0942     6.5178 C.ar    
  19 C19            2.6991     1.9042     7.0038 C.ar    
  20 C20            1.5515     1.3663     6.4520 C.ar    
  21 C21            0.9103     2.0203     5.4166 C.ar    
  22 C22            4.2788    -2.5628    -2.0477 C.3     
  23 C23            4.0127    -4.0658    -2.1533 C.3     
  24 C24            5.2771    -4.7911    -2.5439 C.ar    
  25 C25            6.0875    -4.7056    -3.6563 C.ar    
  26 C26            7.2109    -5.5067    -3.7579 C.ar    
  27 C27            7.5233    -6.3952    -2.7446 C.ar    
  28 C28            6.7181    -6.4877    -1.6286 C.ar    
  29 C29            5.5830    -5.6820    -1.5191 C.ar    
  30 C30            4.5593    -5.5760    -0.4501 C.ar    
  31 C31            4.4254    -6.2504     0.7650 C.ar    
  32 C32            3.3638    -5.9651     1.5979 C.ar    
  33 C33            2.4294    -5.0118     1.2346 C.ar    
  34 C34            2.5555    -4.3399     0.0318 C.ar    
  35 C35            3.6138    -4.6187    -0.8071 C.ar    
  36 H36            0.5676    -0.3653     0.8610 H       
  37 H37           -1.0190    -0.3823     0.0522 H       
  38 H38            0.8120    -1.5717    -1.2430 H       
  39 H39            0.0353    -0.2441    -2.1439 H       
  40 H40            3.0460     1.9778    -1.2361 H       
  41 H41            1.5169     2.1055    -2.1432 H       
  42 H42            2.1212     4.0116     0.0182 H       
  43 H43            0.5260     3.8976    -0.7649 H       
  44 H44            0.3712     5.0200     1.4488 H       
  45 H45           -0.5325     3.4868     1.4334 H       
  46 H46            1.9552     1.6510     3.3570 H       
  47 H47            0.3808     1.5442     2.5340 H       
  48 H48            2.1450     0.4522     1.1865 H       
  49 H49            3.0825     1.9661     1.1764 H       
  50 H50            0.8873     4.9922     3.8860 H       
  51 H51           -0.3433     3.7071     3.8364 H       
  52 H52            2.9661     4.6757     5.0998 H       
  53 H53            4.1042     3.5145     6.9489 H       
  54 H54            3.1986     1.3946     7.8145 H       
  55 H55            1.1544     0.4364     6.8315 H       
  56 H56            0.0116     1.6019     4.9879 H       
  57 H57            4.7073    -2.2031    -2.9831 H       
  58 H58            4.9765    -2.3738    -1.2319 H       
  59 H59            3.2287    -4.2571    -2.8860 H       
  60 H60            5.8454    -4.0127    -4.4485 H       
  61 H61            7.8447    -5.4387    -4.6298 H       
  62 H62            8.4009    -7.0191    -2.8278 H       
  63 H63            6.9654    -7.1828    -0.8400 H       
  64 H64            5.1526    -6.9954     1.0525 H       
  65 H65            3.2616    -6.4878     2.5375 H       
  66 H66            1.6002    -4.7920     1.8907 H       
  67 H67            1.8248    -3.5962    -0.2501 H       
@<TRIPOS>BOND
   1    1    2 1
   2    1    6 1
   3    2    3 1
   4    2   36 1
   5    2   37 1
   6    3    4 1
   7    3   38 1
   8    3   39 1
   9    4    5 1
  10    4   12 am
  11    5    6 1
  12    5   40 1
  13    5   41 1
  14    6    7 1
  15    6   11 1
  16    7    8 1
  17    7   42 1
  18    7   43 1
  19    8    9 1
  20    8   44 1
  21    8   45 1
  22    9   10 1
  23    9   15 1
  24   10   11 1
  25   10   46 1
  26   10   47 1
  27   11   48 1
  28   11   49 1
  29   12   13 2
  30   12   14 1
  31   14   22 1
  32   15   16 1
  33   15   50 1
  34   15   51 1
  35   16   17 ar
  36   16   21 ar
  37   17   18 ar
  38   17   52 1
  39   18   19 ar
  40   18   53 1
  41   19   20 ar
  42   19   54 1
  43   20   21 ar
  44   20   55 1
  45   21   56 1
  46   22   23 1
  47   22   57 1
  48   22   58 1
  49   23   24 1
  50   23   35 1
  51   23   59 1
  52   24   25 ar
  53   24   29 ar
  54   25   26 ar
  55   25   60 1
  56   26   27 ar
  57   26   61 1
  58   27   28 ar
  59   27   62 1
  60   28   29 ar
  61   28   63 1
  62   29   30 1
  63   30   31 ar
  64   30   35 ar
  65   31   32 ar
  66   31   64 1
  67   32   33 ar
  68   32   65 1
  69   33   34 ar
  70   33   66 1
  71   34   35 ar
  72   34   67 1

#	End of record

