#	Name: ASD09740156
#	Creating user name:	WinNT
#	Creation time:	15. 06. 2019 21:22

#	Modifying user name:	WinNT
#	Modification time:	15. 06. 2019 21:22

#	Program:	/corina/corina34_cracker 3.40 0067  02.08.2006

@<TRIPOS>MOLECULE
ASD09740156
  31   33    0    0    0
SMALL
NO_CHARGES


@<TRIPOS>ATOM
   1 S1            -0.0172     1.4168     0.0098 S.o2    
   2 O2            -4.5890     3.0012    -6.3460 O.3     
   3 N3            -4.1218     2.3786    -5.4160 N.2     
   4 C4            -4.0210     4.2148    -6.4149 C.2     
   5 N5            -3.1482     4.2860    -5.4288 N.2     
   6 C6            -3.2231     3.0976    -4.7938 C.2     
   7 C7            -2.4323     2.6830    -3.6080 C.ar    
   8 C8            -4.3169     5.2714    -7.4081 C.ar    
   9 C9            -2.6148     1.4181    -3.0534 C.ar    
  10 C10           -1.5004     3.5551    -3.0494 C.ar    
  11 C11           -0.7677     3.1644    -1.9468 C.ar    
  12 C12           -0.9567     1.9094    -1.3970 C.ar    
  13 C13           -1.8765     1.0375    -1.9511 C.ar    
  14 C14           -5.2718     5.0682    -8.4112 C.ar    
  15 C15           -5.5177     6.0792    -9.3169 C.ar    
  16 N16           -4.8672     7.2249    -9.2477 N.ar    
  17 C17           -3.9589     7.4591    -8.3186 C.ar    
  18 C18           -3.6546     6.5014    -7.3667 C.ar    
  19 O19            0.0021    -0.0041     0.0020 O.2     
  20 O20            1.1617     2.2101     0.0028 O.2     
  21 N21           -0.8748     1.8654     1.3536 N.am    
  22 F22           -3.3218     8.6502    -8.2938 F       
  23 H23           -3.3330     0.7367    -3.4850 H       
  24 H24           -1.3516     4.5350    -3.4784 H       
  25 H25           -0.0451     3.8397    -1.5130 H       
  26 H26           -2.0202     0.0586    -1.5179 H       
  27 H27           -5.8083     4.1331    -8.4753 H       
  28 H28           -6.2530     5.9306   -10.0939 H       
  29 H29           -2.9109     6.6985    -6.6087 H       
  30 H30           -0.7362     2.7410     1.7474 H       
  31 H31           -1.5157     1.2527     1.7468 H       
@<TRIPOS>BOND
   1    1   19 2
   2    1   20 2
   3    1   21 am
   4    1   12 1
   5    2    3 1
   6    2    4 1
   7    3    6 2
   8    4    5 2
   9    4    8 1
  10    5    6 1
  11    6    7 1
  12    7    9 ar
  13    7   10 ar
  14    8   14 ar
  15    8   18 ar
  16    9   13 ar
  17    9   23 1
  18   10   11 ar
  19   10   24 1
  20   11   12 ar
  21   11   25 1
  22   12   13 ar
  23   13   26 1
  24   14   15 ar
  25   14   27 1
  26   15   16 ar
  27   15   28 1
  28   16   17 ar
  29   17   18 ar
  30   17   22 1
  31   18   29 1
  32   21   30 1
  33   21   31 1

#	End of record

