#	Name: ASD01028429
#	Creating user name:	WinNT
#	Creation time:	15. 06. 2019 18:57

#	Modifying user name:	WinNT
#	Modification time:	15. 06. 2019 18:57

#	Program:	/corina/corina34_cracker 3.40 0067  02.08.2006

@<TRIPOS>MOLECULE
ASD01028429
  50   54    0    0    0
SMALL
NO_CHARGES


@<TRIPOS>ATOM
   1 C1            -0.0171     1.4118     0.0098 C.ar    
   2 C2             0.0021    -0.0041     0.0020 C.ar    
   3 C3             1.2105     2.1116     0.0018 C.ar    
   4 C4             2.3793     1.3714    -0.0133 C.ar    
   5 C5             2.3160    -0.0162    -0.0202 C.ar    
   6 N6             1.1704    -0.6565    -0.0123 N.ar    
   7 O7             1.2420     3.4670     0.0084 O.3     
   8 C8             2.5299     4.0861    -0.0005 C.3     
   9 C9             2.3673     5.5842     0.0086 C.2     
  10 N10            2.2907     6.3792     1.1112 N.pl3   
  11 C11            2.1480     7.6618     0.6406 C.2     
  12 N12            2.1450     7.5867    -0.6801 N.2     
  13 N13            2.2796     6.3592    -1.0412 N.2     
  14 C14            2.3282     6.1324     2.4499 C.2     
  15 C15            2.2244     7.1556     3.3419 C.2     
  16 C16            2.0767     8.4860     2.8819 C.2     
  17 C17            2.0397     8.7350     1.5479 C.2     
  18 C18            2.2655     6.8758     4.7977 C.ar    
  19 C19           -1.2152    -0.7043     0.0100 C.ar    
  20 C20           -2.4012    -0.0065     0.0251 C.ar    
  21 C21           -2.4085     1.3917     0.0322 C.ar    
  22 C22           -1.2431     2.0938     0.0309 C.ar    
  23 O23           -3.5786    -0.6840     0.0328 O.3     
  24 C24           -4.7758     0.0961     0.0485 C.3     
  25 C25            2.1588     7.9260     5.7051 C.ar    
  26 C26            2.1985     7.6527     7.0630 C.ar    
  27 C27            2.3438     6.3367     7.4701 C.ar    
  28 C28            2.4448     5.3351     6.5122 C.ar    
  29 N29            2.3983     5.6251     5.2237 N.ar    
  30 O30            2.5877     4.0442     6.9042 O.3     
  31 C31            2.6863     3.0601     5.8728 C.3     
  32 H32            3.3370     1.8705    -0.0202 H       
  33 H33            3.2348    -0.5838    -0.0321 H       
  34 H34            3.0883     3.7758     0.8827 H       
  35 H35            3.0716     3.7849    -0.8972 H       
  36 H36            2.4408     5.1191     2.8060 H       
  37 H37            1.9942     9.2988     3.5884 H       
  38 H38            1.9276     9.7461     1.1851 H       
  39 H39           -1.2205    -1.7843     0.0039 H       
  40 H40           -3.3501     1.9205     0.0433 H       
  41 H41           -1.2617     3.1736     0.0364 H       
  42 H42           -4.8082     0.7297    -0.8378 H       
  43 H43           -5.6412    -0.5666     0.0533 H       
  44 H44           -4.7911     0.7202     0.9420 H       
  45 H45            2.0468     8.9415     5.3551 H       
  46 H46            2.1182     8.4488     7.7884 H       
  47 H47            2.3785     6.0916     8.5214 H       
  48 H48            1.7840     3.0824     5.2618 H       
  49 H49            3.5535     3.2741     5.2481 H       
  50 H50            2.7968     2.0730     6.3218 H       
@<TRIPOS>BOND
   1    1    2 ar
   2    1    3 ar
   3    1   22 ar
   4    2   19 ar
   5    2    6 ar
   6    3    4 ar
   7    3    7 1
   8    4    5 ar
   9    4   32 1
  10    5    6 ar
  11    5   33 1
  12    7    8 1
  13    8    9 1
  14    8   34 1
  15    8   35 1
  16    9   10 1
  17    9   13 2
  18   10   11 1
  19   10   14 1
  20   11   12 2
  21   11   17 1
  22   12   13 1
  23   14   15 2
  24   14   36 1
  25   15   16 1
  26   15   18 1
  27   16   17 2
  28   16   37 1
  29   17   38 1
  30   18   25 ar
  31   18   29 ar
  32   19   20 ar
  33   19   39 1
  34   20   21 ar
  35   20   23 1
  36   21   22 ar
  37   21   40 1
  38   22   41 1
  39   23   24 1
  40   24   42 1
  41   24   43 1
  42   24   44 1
  43   25   26 ar
  44   25   45 1
  45   26   27 ar
  46   26   46 1
  47   27   28 ar
  48   27   47 1
  49   28   29 ar
  50   28   30 1
  51   30   31 1
  52   31   48 1
  53   31   49 1
  54   31   50 1

#	End of record

