#	Name: ASD03910102
#	Creating user name:	WinNT
#	Creation time:	15. 06. 2019 20:47

#	Modifying user name:	WinNT
#	Modification time:	15. 06. 2019 20:47

#	Program:	/corina/corina34_cracker 3.40 0067  02.08.2006

@<TRIPOS>MOLECULE
ASD03910102
  46   47    0    0    0
SMALL
NO_CHARGES


@<TRIPOS>ATOM
   1 C1            -0.0173     1.4248     0.0099 C.3     
   2 O2             0.0021    -0.0041     0.0020 O.3     
   3 C3            -1.1961    -0.6353     0.0101 C.ar    
   4 C4            -1.2501    -2.0393     0.0030 C.ar    
   5 C5            -2.4842    -2.6837     0.0114 C.ar    
   6 C6            -3.6590    -1.9294     0.0266 C.ar    
   7 C7            -3.5918    -0.5288     0.0335 C.ar    
   8 C8            -2.3715     0.1061     0.0310 C.ar    
   9 C9            -4.9647    -2.6028     0.0350 C.2     
  10 O10           -5.9850    -1.9472     0.0483 O.2     
  11 C11           -0.0040    -2.8275    -0.0136 C.2     
  12 O12            1.0719    -2.2630    -0.0212 O.2     
  13 O13           -0.0585    -4.1738    -0.0203 O.3     
  14 O14            2.8133     5.4426     0.0044 O.3     
  15 C15            4.0115     6.0738    -0.0036 C.ar    
  16 C16            4.0655     7.4778     0.0034 C.ar    
  17 C17            5.2996     8.1222    -0.0049 C.ar    
  18 C18            6.4744     7.3680    -0.0202 C.ar    
  19 C19            6.4072     5.9673    -0.0271 C.ar    
  20 C20            5.1870     5.3324    -0.0131 C.ar    
  21 C21            7.7801     8.0413    -0.0295 C.2     
  22 O22            8.8004     7.3857    -0.0428 O.2     
  23 C23            2.8194     8.2661     0.0190 C.2     
  24 O24            1.7435     7.7016     0.0259 O.2     
  25 O25            2.8739     9.6124     0.0258 O.3     
  26 C26            1.4181     1.9544    -0.0010 C.3     
  27 C27            1.3973     3.4842     0.0074 C.3     
  28 C28            2.8327     4.0138    -0.0034 C.3     
  29 H29           -0.5445     1.7859    -0.8732 H       
  30 H30           -0.5275     1.7763     0.9067 H       
  31 H31           -2.5325    -3.7626     0.0057 H       
  32 H32           -4.5013     0.0535     0.0453 H       
  33 H33           -2.3266     1.1851     0.0412 H       
  34 H34           -5.0160    -3.6815     0.0293 H       
  35 H35            0.7846    -4.6473    -0.0312 H       
  36 H36            5.3479     9.2011     0.0001 H       
  37 H37            7.3167     5.3850    -0.0389 H       
  38 H38            5.1422     4.2533    -0.0137 H       
  39 H39            7.8314     9.1201    -0.0246 H       
  40 H40            2.0308    10.0858     0.0360 H       
  41 H41            1.9453     1.5933     0.8821 H       
  42 H42            1.9283     1.6028    -0.8978 H       
  43 H43            0.8701     3.8453    -0.8756 H       
  44 H44            0.8871     3.8357     0.9042 H       
  45 H45            3.3429     3.6623    -0.9002 H       
  46 H46            3.3599     3.6527     0.8796 H       
@<TRIPOS>BOND
   1    1    2 1
   2    1   26 1
   3    1   29 1
   4    1   30 1
   5    2    3 1
   6    3    4 ar
   7    3    8 ar
   8    4    5 ar
   9    4   11 1
  10    5    6 ar
  11    5   31 1
  12    6    7 ar
  13    6    9 1
  14    7    8 ar
  15    7   32 1
  16    8   33 1
  17    9   10 2
  18    9   34 1
  19   11   12 2
  20   11   13 1
  21   13   35 1
  22   14   15 1
  23   14   28 1
  24   15   16 ar
  25   15   20 ar
  26   16   17 ar
  27   16   23 1
  28   17   18 ar
  29   17   36 1
  30   18   19 ar
  31   18   21 1
  32   19   20 ar
  33   19   37 1
  34   20   38 1
  35   21   22 2
  36   21   39 1
  37   23   24 2
  38   23   25 1
  39   25   40 1
  40   26   27 1
  41   26   41 1
  42   26   42 1
  43   27   28 1
  44   27   43 1
  45   27   44 1
  46   28   45 1
  47   28   46 1

#	End of record

