#	Name: ASD01884271
#	Creating user name:	WinNT
#	Creation time:	15. 06. 2019 19:47

#	Modifying user name:	WinNT
#	Modification time:	15. 06. 2019 19:47

#	Program:	/corina/corina34_cracker 3.40 0067  02.08.2006

@<TRIPOS>MOLECULE
ASD01884271
  28   30    0    0    0
SMALL
NO_CHARGES


@<TRIPOS>ATOM
   1 C1            -0.0168     1.3876     0.0097 C.ar    
   2 C2             0.0021    -0.0041     0.0020 C.ar    
   3 C3            -1.1853    -0.7065     0.0100 C.ar    
   4 C4            -2.3988     0.0009     0.0259 C.ar    
   5 C5            -2.3236     1.4022     0.0327 C.ar    
   6 N6            -1.1735     2.0391     0.0298 N.ar    
   7 N7            -3.6796    -0.5040     0.0363 N.am    
   8 C8            -4.7070     0.3506     0.0515 C.2     
   9 S9            -3.9989     1.9744     0.0530 S.3     
  10 O10           -5.8909     0.0698     0.0618 O.2     
  11 C11           -3.9118    -1.9505     0.0305 C.3     
  12 C12           -3.9777    -2.4623     1.4708 C.3     
  13 B13            1.3332     2.1891     0.0011 Du      
  14 O14            2.5714     1.4941    -0.0145 O.3     
  15 O15            1.3160     3.6089     0.0089 O.3     
  16 C16           -4.3316    -3.9358     1.6814 C.3     
  17 C17           -2.8999    -3.4514     1.9190 C.3     
  18 F18           -1.9296    -3.8187     0.9804 F       
  19 F19           -2.4575    -3.3684     3.2436 F       
  20 H20            0.9438    -0.5327    -0.0105 H       
  21 H21           -1.1819    -1.7865     0.0039 H       
  22 H22           -4.8535    -2.1652    -0.4748 H       
  23 H23           -3.0961    -2.4473    -0.4948 H       
  24 H24           -4.3423    -1.7468     2.2078 H       
  25 H25            3.3468     2.0719    -0.0188 H       
  26 H26            2.1946     4.0129     0.0027 H       
  27 H27           -4.9288    -4.1897     2.5572 H       
  28 H28           -4.5176    -4.5406     0.7939 H       
@<TRIPOS>BOND
   1    1    2 ar
   2    1   13 1
   3    1    6 ar
   4    2    3 ar
   5    2   20 1
   6    3    4 ar
   7    3   21 1
   8    4    5 ar
   9    4    7 1
  10    5    6 ar
  11    5    9 1
  12    7    8 am
  13    7   11 1
  14    8    9 1
  15    8   10 2
  16   11   12 1
  17   11   22 1
  18   11   23 1
  19   12   16 1
  20   12   17 1
  21   12   24 1
  22   13   14 1
  23   13   15 1
  24   14   25 1
  25   15   26 1
  26   16   17 1
  27   16   27 1
  28   16   28 1
  29   17   18 1
  30   17   19 1

#	End of record

