#	Name: ASD01884286
#	Creating user name:	WinNT
#	Creation time:	15. 06. 2019 19:47

#	Modifying user name:	WinNT
#	Modification time:	15. 06. 2019 19:47

#	Program:	/corina/corina34_cracker 3.40 0067  02.08.2006

@<TRIPOS>MOLECULE
ASD01884286
  42   45    0    0    0
SMALL
NO_CHARGES


@<TRIPOS>ATOM
   1 C1            -0.1024     1.5592    -0.0888 C.ar    
   2 C2            -0.3134     0.2093     0.1596 C.ar    
   3 C3            -1.5735    -0.3338     0.0705 C.ar    
   4 C4            -2.6765     0.4619    -0.2739 C.ar    
   5 C5            -2.4458     1.8161    -0.5200 C.ar    
   6 C6            -1.1798     2.3641    -0.4250 C.ar    
   7 N7            -3.9993     0.0727    -0.4053 N.am    
   8 C8            -4.9067     0.9936    -0.7440 C.2     
   9 S9            -4.0201     2.5170    -0.9200 S.3     
  10 O10           -6.1014     0.8204    -0.9000 O.2     
  11 C11           -4.3954    -1.3194    -0.1784 C.3     
  12 C12           -4.7576    -1.5127     1.2955 C.3     
  13 C13           -5.3117    -2.8761     1.7138 C.3     
  14 C14           -3.8921    -2.4713     2.1157 C.3     
  15 F15           -2.8300    -3.1040     1.4607 F       
  16 F16           -3.6677    -2.1505     3.4588 F       
  17 O17            1.1472     2.0871     0.0023 O.3     
  18 C18            1.4413     2.8438     1.0893 C.ar    
  19 N19            0.5579     2.9566     2.0673 N.ar    
  20 C20            2.6697     3.4883     1.1671 C.ar    
  21 C21            2.9573     4.2567     2.2814 C.ar    
  22 C22            2.0014     4.3538     3.2835 C.ar    
  23 C23            0.8037     3.6819     3.1419 C.ar    
  24 C24            3.6755     3.3519     0.0532 C.3     
  25 O25            4.5436     4.4870     0.0537 O.3     
  26 C26            4.4993     2.0798     0.2629 C.3     
  27 H27            0.5221    -0.4214     0.4256 H       
  28 H28           -1.7158    -1.3861     0.2677 H       
  29 H29           -1.0293     3.4155    -0.6205 H       
  30 H30           -5.2593    -1.5571    -0.7991 H       
  31 H31           -3.5681    -1.9796    -0.4389 H       
  32 H32           -5.1525    -0.6320     1.8020 H       
  33 H33           -6.0709    -2.8924     2.4958 H       
  34 H34           -5.4183    -3.6353     0.9389 H       
  35 H35            3.9041     4.7688     2.3697 H       
  36 H36            2.1942     4.9455     4.1662 H       
  37 H37            0.0567     3.7543     3.9186 H       
  38 H38            3.1540     3.2937    -0.9021 H       
  39 H39            5.0411     4.6014     0.8749 H       
  40 H40            3.8372     1.2139     0.2626 H       
  41 H41            5.2268     1.9811    -0.5428 H       
  42 H42            5.0208     2.1380     1.2183 H       
@<TRIPOS>BOND
   1    1    2 ar
   2    1   17 1
   3    1    6 ar
   4    2    3 ar
   5    2   27 1
   6    3    4 ar
   7    3   28 1
   8    4    5 ar
   9    4    7 1
  10    5    6 ar
  11    5    9 1
  12    6   29 1
  13    7    8 am
  14    7   11 1
  15    8    9 1
  16    8   10 2
  17   11   12 1
  18   11   30 1
  19   11   31 1
  20   12   13 1
  21   12   14 1
  22   12   32 1
  23   13   14 1
  24   13   33 1
  25   13   34 1
  26   14   15 1
  27   14   16 1
  28   17   18 1
  29   18   19 ar
  30   18   20 ar
  31   19   23 ar
  32   20   21 ar
  33   20   24 1
  34   21   22 ar
  35   21   35 1
  36   22   23 ar
  37   22   36 1
  38   23   37 1
  39   24   25 1
  40   24   26 1
  41   24   38 1
  42   25   39 1
  43   26   40 1
  44   26   41 1
  45   26   42 1

#	End of record

