#	Name: ASD05060097
#	Creating user name:	WinNT
#	Creation time:	15. 06. 2019 20:56

#	Modifying user name:	WinNT
#	Modification time:	15. 06. 2019 20:56

#	Program:	/corina/corina34_cracker 3.40 0067  02.08.2006

@<TRIPOS>MOLECULE
ASD05060097
  22   23    0    0    0
SMALL
NO_CHARGES


@<TRIPOS>ATOM
   1 S1            -0.0211     1.7014     0.0114 S.3     
   2 C2             0.0021    -0.0041     0.0020 C.2     
   3 C3             1.2542    -0.4700    -0.0124 C.2     
   4 C4             2.2390     0.4977    -0.0166 C.2     
   5 C5             1.7354     1.7769    -0.0050 C.2     
   6 C6             2.5074     2.9645    -0.0064 C.2     
   7 O7             3.7225     2.9003    -0.0187 O.2     
   8 O8             1.8953     4.1672     0.0060 O.3     
   9 N9             3.6064     0.2070    -0.0313 N.pl3   
  10 C10            4.5122     0.7558    -0.8964 C.2     
  11 C11            5.7312     0.2570    -0.6330 C.2     
  12 C12            5.5642    -0.6779     0.4884 C.2     
  13 C13            4.2200    -0.6496     0.8090 C.2     
  14 C14            6.6091    -1.4723     1.1375 C.2     
  15 O15            7.7575    -1.3938     0.7536 O.2     
  16 H16           -0.8806    -0.6264     0.0077 H       
  17 H17            1.4795    -1.5262    -0.0199 H       
  18 H18            2.5042     4.9184     0.0039 H       
  19 H19            4.2837     1.4753    -1.6687 H       
  20 H20            6.6520     0.4955    -1.1445 H       
  21 H21            3.7436    -1.2174     1.5945 H       
  22 H22            6.3576    -2.1281     1.9580 H       
@<TRIPOS>BOND
   1    1    2 1
   2    1    5 1
   3    2    3 2
   4    2   16 1
   5    3    4 1
   6    3   17 1
   7    4    5 2
   8    4    9 1
   9    5    6 1
  10    6    7 2
  11    6    8 1
  12    8   18 1
  13    9   10 1
  14    9   13 1
  15   10   11 2
  16   10   19 1
  17   11   12 1
  18   11   20 1
  19   12   13 2
  20   12   14 1
  21   13   21 1
  22   14   15 2
  23   14   22 1

#	End of record

