#	Name: ASD07931564
#	Creating user name:	WinNT
#	Creation time:	15. 06. 2019 21:13

#	Modifying user name:	WinNT
#	Modification time:	15. 06. 2019 21:13

#	Program:	/corina/corina34_cracker 3.40 0067  02.08.2006

@<TRIPOS>MOLECULE
ASD07931564
  61   66    0    0    0
SMALL
NO_CHARGES


@<TRIPOS>ATOM
   1 C1            -0.0225     1.8097     0.0120 C.3     
   2 S2             0.0021    -0.0041     0.0020 S.o2    
   3 O3             0.8448    -0.4970     1.0346 O.2     
   4 O4            -1.3093    -0.5195    -0.1821 O.2     
   5 O5             0.7319    -0.3669    -1.2834 O.3     
   6 C6             2.1455    -0.1659    -1.2258 C.3     
   7 C7             2.7624    -0.5550    -2.5445 C.ar    
   8 C8             4.1348    -0.4453    -2.7295 C.ar    
   9 C9             4.6993    -0.8049    -3.9463 C.ar    
  10 C10            3.8951    -1.2702    -4.9683 C.ar    
  11 C11            2.5295    -1.3782    -4.7810 C.ar    
  12 C12            1.9648    -1.0263    -3.5684 C.ar    
  13 N13            7.8597     1.1268     1.6294 N.pl3   
  14 C14            7.6072     0.1485     0.7450 C.2     
  15 C15            6.5557     0.2239    -0.1343 C.2     
  16 C16            5.6746     1.4137    -0.1102 C.2     
  17 C17            5.9870     2.4641     0.8776 C.ar    
  18 C18            5.2174     3.6189     0.9776 C.ar    
  19 C19            5.5422     4.5775     1.9149 C.ar    
  20 C20            6.6302     4.3923     2.7532 C.ar    
  21 C21            7.4006     3.2520     2.6637 C.ar    
  22 C22            7.0912     2.2741     1.7244 C.ar    
  23 N23            4.9469     0.0271    -1.6918 N.am    
  24 N24            4.7674     1.2435    -1.0285 N.2     
  25 C25            6.0153    -0.6283    -1.1889 C.2     
  26 C26            8.9972     0.9700     2.5393 C.3     
  27 C27           10.2327     1.5541     1.9042 C.ar    
  28 C28           10.5498     2.8847     2.1075 C.ar    
  29 C29           11.6815     3.4229     1.5267 C.ar    
  30 C30           12.5013     2.6264     0.7386 C.ar    
  31 C31           12.1806     1.2907     0.5368 C.ar    
  32 C32           11.0501     0.7570     1.1241 C.ar    
  33 N33           13.6504     3.1698     0.1475 N.pl3   
  34 N34           14.0911     4.4942     0.2666 N.2     
  35 C35           15.1958     4.6215    -0.4236 C.2     
  36 C36           15.4946     3.3840    -1.0042 C.2     
  37 C37           14.5328     2.5070    -0.6339 C.2     
  38 O38            6.4431    -1.7143    -1.5448 O.2     
  39 H39            1.0001     2.1870     0.0043 H       
  40 H40           -0.5497     2.1708    -0.8711 H       
  41 H41           -0.5327     2.1613     0.9088 H       
  42 H42            2.3551     0.8842    -1.0223 H       
  43 H43            2.5679    -0.7812    -0.4314 H       
  44 H44            5.7659    -0.7205    -4.0934 H       
  45 H45            4.3335    -1.5497    -5.9150 H       
  46 H46            1.9029    -1.7423    -5.5817 H       
  47 H47            0.8983    -1.1160    -3.4237 H       
  48 H48            8.2483    -0.7204     0.7247 H       
  49 H49            4.3698     3.7643     0.3242 H       
  50 H50            4.9471     5.4752     1.9955 H       
  51 H51            6.8773     5.1486     3.4836 H       
  52 H52            8.2460     3.1190     3.3225 H       
  53 H53            8.7888     1.4900     3.4744 H       
  54 H54            9.1582    -0.0891     2.7406 H       
  55 H55            9.9116     3.5037     2.7206 H       
  56 H56           11.9282     4.4623     1.6852 H       
  57 H57           12.8165     0.6687    -0.0757 H       
  58 H58           10.8022    -0.2828     0.9706 H       
  59 H59           15.7764     5.5262    -0.5276 H       
  60 H60           16.3449     3.1661    -1.6333 H       
  61 H61           14.4786     1.4653    -0.9139 H       
@<TRIPOS>BOND
   1    1    2 1
   2    1   39 1
   3    1   40 1
   4    1   41 1
   5    2    3 2
   6    2    4 2
   7    2    5 1
   8    5    6 1
   9    6    7 1
  10    6   42 1
  11    6   43 1
  12    7    8 ar
  13    7   12 ar
  14    8    9 ar
  15    8   23 1
  16    9   10 ar
  17    9   44 1
  18   10   11 ar
  19   10   45 1
  20   11   12 ar
  21   11   46 1
  22   12   47 1
  23   13   14 1
  24   13   22 1
  25   13   26 1
  26   14   15 2
  27   14   48 1
  28   15   16 1
  29   15   25 1
  30   16   17 1
  31   16   24 2
  32   17   18 ar
  33   17   22 ar
  34   18   19 ar
  35   18   49 1
  36   19   20 ar
  37   19   50 1
  38   20   21 ar
  39   20   51 1
  40   21   22 ar
  41   21   52 1
  42   23   24 1
  43   23   25 am
  44   25   38 2
  45   26   27 1
  46   26   53 1
  47   26   54 1
  48   27   28 ar
  49   27   32 ar
  50   28   29 ar
  51   28   55 1
  52   29   30 ar
  53   29   56 1
  54   30   31 ar
  55   30   33 1
  56   31   32 ar
  57   31   57 1
  58   32   58 1
  59   33   34 1
  60   33   37 1
  61   34   35 2
  62   35   36 1
  63   35   59 1
  64   36   37 2
  65   36   60 1
  66   37   61 1

#	End of record

