#	Name: ASD00310210
#	Creating user name:	WinNT
#	Creation time:	15. 06. 2019 18:34

#	Modifying user name:	WinNT
#	Modification time:	15. 06. 2019 18:34

#	Program:	/corina/corina34_cracker 3.40 0067  02.08.2006

@<TRIPOS>MOLECULE
ASD00310210
  47   49    0    0    0
SMALL
NO_CHARGES


@<TRIPOS>ATOM
   1 C1            -0.0184     1.5028     0.0103 C.2     
   2 C2             0.0021    -0.0041     0.0020 C.3     
   3 N3             1.1395     2.1925     0.0030 N.am    
   4 C4             1.5271     3.6111     0.0069 C.3     
   5 C5             2.8362     3.1957     0.6923 C.3     
   6 C6             2.5715     1.8576    -0.0059 C.3     
   7 C7             4.0736     3.9380     0.1839 C.3     
   8 O8             5.2095     3.5611     0.9647 O.3     
   9 C9             6.3965     4.1335     0.6416 C.ar    
  10 C10            7.5413     3.8106     1.3614 C.ar    
  11 C11            8.7472     4.3902     1.0360 C.ar    
  12 C12            8.8196     5.3025    -0.0178 C.ar    
  13 C13            7.6688     5.6244    -0.7389 C.ar    
  14 C14            6.4667     5.0376    -0.4123 C.ar    
  15 O15           10.2896     6.9005    -1.4643 O.3     
  16 B16           10.1929     5.9656    -0.3910 Du      
  17 O17           11.3812     5.6516     0.3333 O.3     
  18 C18           12.1022     6.8201     0.7436 C.3     
  19 C19           12.3360     7.7161    -0.4763 C.3     
  20 C20           10.9867     8.0962    -1.0933 C.3     
  21 C21           13.0750     8.9842    -0.0441 C.3     
  22 C22           13.1757     6.9626    -1.5097 C.3     
  23 O23           -1.0768     2.0948     0.0185 O.2     
  24 H24            1.0345    -0.3534    -0.0097 H       
  25 H25           -0.4983    -0.3791     0.8948 H       
  26 H26           -0.5153    -0.3696    -0.8850 H       
  27 H27            1.6719     4.0243    -0.9913 H       
  28 H28            0.8880     4.2340     0.6328 H       
  29 H29            2.7758     3.1483     1.7796 H       
  30 H30            2.8188     0.9923     0.6092 H       
  31 H31            2.9974     1.7989    -1.0076 H       
  32 H32            4.2487     3.6797    -0.8605 H       
  33 H33            3.9137     5.0128     0.2704 H       
  34 H34            7.4846     3.1046     2.1767 H       
  35 H35            9.6360     4.1395     1.5960 H       
  36 H36            7.7219     6.3300    -1.5548 H       
  37 H37            5.5767     5.2830    -0.9728 H       
  38 H38           11.5219     7.3635     1.4894 H       
  39 H39           13.0615     6.5260     1.1693 H       
  40 H40           11.1506     8.7121    -1.9775 H       
  41 H41           10.3961     8.6515    -0.3647 H       
  42 H42           14.0343     8.7133     0.3967 H       
  43 H43           13.2413     9.6217    -0.9125 H       
  44 H44           12.4758     9.5211     0.6913 H       
  45 H45           12.6483     6.0598    -1.8179 H       
  46 H46           13.3419     7.6005    -2.3777 H       
  47 H47           14.1351     6.6905    -1.0697 H       
@<TRIPOS>BOND
   1    1    2 1
   2    1    3 am
   3    1   23 2
   4    2   24 1
   5    2   25 1
   6    2   26 1
   7    3    4 1
   8    3    6 1
   9    4    5 1
  10    4   27 1
  11    4   28 1
  12    5    6 1
  13    5    7 1
  14    5   29 1
  15    6   30 1
  16    6   31 1
  17    7    8 1
  18    7   32 1
  19    7   33 1
  20    8    9 1
  21    9   10 ar
  22    9   14 ar
  23   10   11 ar
  24   10   34 1
  25   11   12 ar
  26   11   35 1
  27   12   13 ar
  28   12   16 1
  29   13   14 ar
  30   13   36 1
  31   14   37 1
  32   15   16 1
  33   15   20 1
  34   16   17 1
  35   17   18 1
  36   18   19 1
  37   18   38 1
  38   18   39 1
  39   19   20 1
  40   19   21 1
  41   19   22 1
  42   20   40 1
  43   20   41 1
  44   21   42 1
  45   21   43 1
  46   21   44 1
  47   22   45 1
  48   22   46 1
  49   22   47 1

#	End of record

