#	Name: ASD02448144
#	Creating user name:	WinNT
#	Creation time:	15. 06. 2019 20:21

#	Modifying user name:	WinNT
#	Modification time:	15. 06. 2019 20:21

#	Program:	/corina/corina34_cracker 3.40 0067  02.08.2006

@<TRIPOS>MOLECULE
ASD02448144
  78   84    0    0    0
SMALL
NO_CHARGES


@<TRIPOS>ATOM
   1 C1             3.5357    -7.4377    -1.5345 C.ar    
   2 C2             2.9854    -6.4066    -0.7998 C.ar    
   3 C3             2.3285    -5.3673    -1.4449 C.ar    
   4 C4             2.2249    -5.3641    -2.8292 C.ar    
   5 C5             2.7756    -6.3952    -3.5654 C.ar    
   6 C6             3.4328    -7.4357    -2.9195 C.ar    
   7 N7             3.9912    -8.4800    -3.6641 N.am    
   8 C8             3.3896    -9.7803    -3.9871 C.3     
   9 C9             4.3153   -10.6185    -4.8084 C.2     
  10 N10            5.4926   -10.0430    -5.0907 N.am    
  11 S11            5.4901    -8.5308    -4.3949 S.o2    
  12 O12            4.0242   -11.7325    -5.1893 O.2     
  13 O13            5.4810    -7.5825    -5.4532 O.2     
  14 O14            6.4561    -8.5471    -3.3529 O.2     
  15 N15            1.7685    -4.3199    -0.6971 N.pl3   
  16 C16            0.8542    -4.4433     0.3143 C.2     
  17 C17            2.0376    -2.9957    -0.8386 C.2     
  18 N18            1.3306    -2.3266     0.0289 N.2     
  19 C19            0.5891    -3.1862     0.7566 C.2     
  20 C20           -0.3502    -2.8236     1.8463 C.ar    
  21 C21           -0.5285    -1.4863     2.2006 C.ar    
  22 C22           -1.0616    -3.8172     2.5154 C.ar    
  23 C23           -1.9343    -3.4750     3.5286 C.ar    
  24 C24           -2.1038    -2.1471     3.8807 C.ar    
  25 C25           -1.4040    -1.1547     3.2156 C.ar    
  26 C26            4.3362    -2.1843    -1.1769 C.ar    
  27 C27            5.2534    -3.2185    -1.1292 C.ar    
  28 C28            4.6454    -0.9529    -0.6279 C.ar    
  29 C29            5.8724    -0.7499    -0.0294 C.ar    
  30 C30            6.8002    -1.7882     0.0214 C.ar    
  31 C31            6.4830    -3.0268    -0.5324 C.ar    
  32 C32            8.1212    -1.5757     0.6630 C.ar    
  33 Cl33          -3.2035    -1.7239     5.1555 Cl      
  34 Cl34           0.3490    -0.2414     1.3675 Cl      
  35 C35            2.9973    -2.3979    -1.8349 C.3     
  36 C36            9.0490    -2.6140     0.7138 C.ar    
  37 C37           10.2764    -2.4106     1.3114 C.ar    
  38 C38           10.5862    -1.1789     1.8592 C.ar    
  39 C39            9.6689    -0.1446     1.8116 C.ar    
  40 C40            8.4406    -0.3353     1.2118 C.ar    
  41 C41           11.9278    -0.9631     2.5108 C.3     
  42 C42           12.6722     0.1598     1.7857 C.3     
  43 C43           14.0343     0.3789     2.4472 C.3     
  44 C44           13.8327     0.7649     3.9140 C.3     
  45 C45           13.0882    -0.3580     4.6391 C.3     
  46 C46           11.7262    -0.5771     3.9776 C.3     
  47 Cl47           2.6459    -6.3919    -5.2966 Cl      
  48 H48            4.0501    -8.2438    -1.0325 H       
  49 H49            3.0655    -6.4084     0.2772 H       
  50 H50            1.7135    -4.5557    -3.3306 H       
  51 H51            3.1583   -10.3066    -3.0610 H       
  52 H52            2.4664    -9.6182    -4.5435 H       
  53 H53            6.2132   -10.4350    -5.6084 H       
  54 H54            0.4263    -5.3618     0.6879 H       
  55 H55           -0.9307    -4.8537     2.2416 H       
  56 H56           -2.4862    -4.2447     4.0474 H       
  57 H57           -1.5398    -0.1201     3.4941 H       
  58 H58            5.0068    -4.1780    -1.5594 H       
  59 H59            3.9255    -0.1488    -0.6678 H       
  60 H60            6.1131     0.2122     0.3983 H       
  61 H61            7.1983    -3.8351    -0.4955 H       
  62 H62            3.1122    -3.0759    -2.6806 H       
  63 H63            2.6083    -1.4421    -2.1857 H       
  64 H64            8.8080    -3.5762     0.2867 H       
  65 H65           10.9961    -3.2149     1.3517 H       
  66 H66            9.9158     0.8150     2.2412 H       
  67 H67            7.7251     0.4729     1.1751 H       
  68 H68           12.5114    -1.8819     2.4538 H       
  69 H69           12.8158    -0.1152     0.7408 H       
  70 H70           12.0886     1.0786     1.8427 H       
  71 H71           14.6179    -0.5399     2.3902 H       
  72 H72           14.5646     1.1789     1.9306 H       
  73 H73           14.8031     0.9210     4.3853 H       
  74 H74           13.2491     1.6837     3.9710 H       
  75 H75           13.6719    -1.2768     4.5821 H       
  76 H76           12.9446    -0.0830     5.6840 H       
  77 H77           11.1425     0.3417     4.0346 H       
  78 H78           11.1958    -1.3770     4.4942 H       
@<TRIPOS>BOND
   1    1    2 ar
   2    1    6 ar
   3    1   48 1
   4    2    3 ar
   5    2   49 1
   6    3    4 ar
   7    3   15 1
   8    4    5 ar
   9    4   50 1
  10    5    6 ar
  11    5   47 1
  12    6    7 1
  13    7    8 1
  14    7   11 am
  15    8    9 1
  16    8   51 1
  17    8   52 1
  18    9   10 am
  19    9   12 2
  20   10   11 am
  21   10   53 1
  22   11   13 2
  23   11   14 2
  24   15   16 1
  25   15   17 1
  26   16   19 2
  27   16   54 1
  28   17   18 2
  29   17   35 1
  30   18   19 1
  31   19   20 1
  32   20   21 ar
  33   20   22 ar
  34   21   34 1
  35   21   25 ar
  36   22   23 ar
  37   22   55 1
  38   23   24 ar
  39   23   56 1
  40   24   25 ar
  41   24   33 1
  42   25   57 1
  43   26   27 ar
  44   26   28 ar
  45   26   35 1
  46   27   31 ar
  47   27   58 1
  48   28   29 ar
  49   28   59 1
  50   29   30 ar
  51   29   60 1
  52   30   31 ar
  53   30   32 1
  54   31   61 1
  55   32   36 ar
  56   32   40 ar
  57   35   62 1
  58   35   63 1
  59   36   37 ar
  60   36   64 1
  61   37   38 ar
  62   37   65 1
  63   38   39 ar
  64   38   41 1
  65   39   40 ar
  66   39   66 1
  67   40   67 1
  68   41   42 1
  69   41   46 1
  70   41   68 1
  71   42   43 1
  72   42   69 1
  73   42   70 1
  74   43   44 1
  75   43   71 1
  76   43   72 1
  77   44   45 1
  78   44   73 1
  79   44   74 1
  80   45   46 1
  81   45   75 1
  82   45   76 1
  83   46   77 1
  84   46   78 1

#	End of record

