#	Name: ASD01816538
#	Creating user name:	WinNT
#	Creation time:	15. 06. 2019 19:35

#	Modifying user name:	WinNT
#	Modification time:	15. 06. 2019 19:35

#	Program:	/corina/corina34_cracker 3.40 0067  02.08.2006

@<TRIPOS>MOLECULE
ASD01816538
  62   67    0    0    0
SMALL
NO_CHARGES


@<TRIPOS>ATOM
   1 C1            -0.0603     1.4379    -0.5458 C.ar    
   2 C2            -0.0673     0.0572    -0.4311 C.ar    
   3 C3             1.0988    -0.6326    -0.1713 C.ar    
   4 C4             2.2970     0.0566    -0.0213 C.ar    
   5 C5             2.3007     1.4565    -0.1382 C.ar    
   6 C6             1.1186     2.1405    -0.4007 C.ar    
   7 N7             3.4705    -0.6295     0.2404 N.pl3   
   8 C8             4.6560    -0.0183     0.3948 C.2     
   9 C9             4.7828     1.3455     0.3018 C.2     
  10 C10            3.5833     2.1680     0.0245 C.2     
  11 C11            5.8816     2.2998     0.4113 C.2     
  12 N12            5.3400     3.5211     0.2138 N.am    
  13 N13            3.9661     3.4112    -0.0147 N.2     
  14 C14            6.0864     4.7815     0.2371 C.3     
  15 O15            7.0538     2.0454     0.6365 O.2     
  16 C16            3.4163    -2.0890     0.3546 C.3     
  17 C17            3.6397    -2.7077    -1.0013 C.ar    
  18 C18            4.9221    -3.0185    -1.4150 C.ar    
  19 C19            5.1301    -3.5851    -2.6573 C.ar    
  20 C20            4.0500    -3.8429    -3.4908 C.ar    
  21 C21            2.7637    -3.5302    -3.0724 C.ar    
  22 C22            2.5615    -2.9685    -1.8269 C.ar    
  23 N23            4.2580    -4.4175    -4.7525 N.pl3   
  24 C24            3.2995    -4.7189    -5.6575 C.2     
  25 C25            3.9093    -5.2551    -6.7399 C.2     
  26 C26            5.2857    -5.2827    -6.4894 C.2     
  27 N27            5.4961    -4.7756    -5.3014 N.2     
  28 C28            5.9520     5.4809    -1.1184 C.3     
  29 C29            6.6826     6.8247    -1.0682 C.3     
  30 N30            6.1036     7.6588    -0.0073 N.3     
  31 C31            6.2631     7.0292     1.3097 C.3     
  32 C32            5.5200     5.6915     1.3305 C.3     
  33 C33            6.6866     9.0071    -0.0205 C.3     
  34 C34            6.0729     9.8170    -1.1643 C.3     
  35 F35            4.6783     9.7949    -1.0554 F       
  36 F36            6.5252    11.1390    -1.0946 F       
  37 F37            6.4540     9.2576    -2.3886 F       
  38 H38           -0.9794     1.9655    -0.7538 H       
  39 H39           -0.9947    -0.4842    -0.5458 H       
  40 H40            1.0809    -1.7089    -0.0840 H       
  41 H41            1.1230     3.2168    -0.4900 H       
  42 H42            5.5328    -0.6153     0.5978 H       
  43 H43            7.1380     4.5784     0.4396 H       
  44 H44            4.1917    -2.4288     1.0412 H       
  45 H45            2.4389    -2.3878     0.7337 H       
  46 H46            5.7618    -2.8177    -0.7663 H       
  47 H47            6.1319    -3.8270    -2.9802 H       
  48 H48            1.9216    -3.7293    -3.7187 H       
  49 H49            1.5611    -2.7250    -1.5008 H       
  50 H50            2.2379    -4.5608    -5.5376 H       
  51 H51            3.4201    -5.6006    -7.6386 H       
  52 H52            6.0442    -5.6544    -7.1624 H       
  53 H53            6.3923     4.8561    -1.8955 H       
  54 H54            4.8977     5.6479    -1.3388 H       
  55 H55            7.7394     6.6560    -0.8614 H       
  56 H56            6.5767     7.3316    -2.0273 H       
  57 H57            7.3219     6.8596     1.5053 H       
  58 H58            5.8525     7.6848     2.0777 H       
  59 H59            4.4588     5.8618     1.1487 H       
  60 H60            5.6516     5.2172     2.3031 H       
  61 H61            6.4783     9.5022     0.9280 H       
  62 H62            7.7648     8.9353    -0.1637 H       
@<TRIPOS>BOND
   1    1    2 ar
   2    1    6 ar
   3    1   38 1
   4    2    3 ar
   5    2   39 1
   6    3    4 ar
   7    3   40 1
   8    4    5 ar
   9    4    7 1
  10    5    6 ar
  11    5   10 1
  12    6   41 1
  13    7    8 1
  14    7   16 1
  15    8    9 2
  16    8   42 1
  17    9   10 1
  18    9   11 1
  19   10   13 2
  20   11   12 am
  21   11   15 2
  22   12   13 1
  23   12   14 1
  24   14   28 1
  25   14   32 1
  26   14   43 1
  27   16   17 1
  28   16   44 1
  29   16   45 1
  30   17   18 ar
  31   17   22 ar
  32   18   19 ar
  33   18   46 1
  34   19   20 ar
  35   19   47 1
  36   20   21 ar
  37   20   23 1
  38   21   22 ar
  39   21   48 1
  40   22   49 1
  41   23   24 1
  42   23   27 1
  43   24   25 2
  44   24   50 1
  45   25   26 1
  46   25   51 1
  47   26   27 2
  48   26   52 1
  49   28   29 1
  50   28   53 1
  51   28   54 1
  52   29   30 1
  53   29   55 1
  54   29   56 1
  55   30   31 1
  56   30   33 1
  57   31   32 1
  58   31   57 1
  59   31   58 1
  60   32   59 1
  61   32   60 1
  62   33   34 1
  63   33   61 1
  64   33   62 1
  65   34   35 1
  66   34   36 1
  67   34   37 1

#	End of record

