#	Name: ASD01882139
#	Creating user name:	WinNT
#	Creation time:	15. 06. 2019 19:44

#	Modifying user name:	WinNT
#	Modification time:	15. 06. 2019 19:44

#	Program:	/corina/corina34_cracker 3.40 0067  02.08.2006

@<TRIPOS>MOLECULE
ASD01882139
  51   55    0    0    0
SMALL
NO_CHARGES


@<TRIPOS>ATOM
   1 C1            -0.4544     0.6160    -1.0962 C.2     
   2 C2            -0.0998    -0.1740     0.0050 C.2     
   3 C3            -0.9497    -0.2052     1.1260 C.2     
   4 C4            -2.0907     0.5094     1.1517 C.2     
   5 N5            -2.4750     1.2915     0.1030 N.pl3   
   6 C6            -1.7003     1.3828    -1.0248 C.2     
   7 C7            -3.5755     2.0988    -0.1040 C.2     
   8 C8            -3.4357     2.6447    -1.3450 C.2     
   9 N9            -2.2970     2.1977    -1.8780 N.2     
  10 N10            1.0683    -0.9127    -0.0097 N.pl3   
  11 C11           -4.6904     2.3273     0.8385 C.ar    
  12 C12            1.0263    -2.3806     0.0382 C.3     
  13 C13            1.9104    -2.8617     1.1931 C.3     
  14 C14            3.3159    -2.2780     1.0316 C.3     
  15 C15            3.2445    -0.7501     1.0821 C.3     
  16 C16            2.3753    -0.2453    -0.0797 C.3     
  17 C17            4.1978    -2.7765     2.1474 C.ar    
  18 C18            5.3336    -3.5086     1.8561 C.ar    
  19 C19            6.1425    -3.9659     2.8796 C.ar    
  20 C20            5.8158    -3.6907     4.1943 C.ar    
  21 C21            4.6805    -2.9579     4.4855 C.ar    
  22 C22            3.8739    -2.4969     3.4618 C.ar    
  23 C23           -5.1550     3.6245     1.0750 C.ar    
  24 C24           -6.1977     3.8308     1.9574 C.ar    
  25 C25           -6.7814     2.7553     2.6068 C.ar    
  26 C26           -6.3242     1.4676     2.3756 C.ar    
  27 C27           -5.2879     1.2481     1.4920 C.ar    
  28 F28           -4.5854     4.6736     0.4425 F       
  29 F29           -7.8002     2.9627     3.4695 F       
  30 C30            0.3813     0.6769    -2.2575 C.1     
  31 N31            1.0442     0.7251    -3.1788 N.1     
  32 H32           -0.6829    -0.8120     1.9787 H       
  33 H33           -2.7198     0.4615     2.0282 H       
  34 H34           -4.1282     3.3265    -1.8162 H       
  35 H35            0.0006    -2.7117     0.2008 H       
  36 H36            1.3993    -2.7877    -0.9016 H       
  37 H37            1.4850    -2.5292     2.1399 H       
  38 H38            1.9649    -3.9503     1.1805 H       
  39 H39            3.7311    -2.5907     0.0736 H       
  40 H40            2.8065    -0.4375     2.0300 H       
  41 H41            4.2485    -0.3358     0.9905 H       
  42 H42            2.8606    -0.4788    -1.0274 H       
  43 H43            2.2389     0.8326     0.0076 H       
  44 H44            5.5889    -3.7236     0.8290 H       
  45 H45            7.0295    -4.5384     2.6520 H       
  46 H46            6.4474    -4.0486     4.9939 H       
  47 H47            4.4251    -2.7432     5.5127 H       
  48 H48            2.9869    -1.9243     3.6894 H       
  49 H49           -6.5581     4.8321     2.1415 H       
  50 H50           -6.7835     0.6334     2.8850 H       
  51 H51           -4.9331     0.2438     1.3132 H       
@<TRIPOS>BOND
   1    1    2 2
   2    1   30 1
   3    1    6 1
   4    2    3 1
   5    2   10 1
   6    3    4 2
   7    3   32 1
   8    4    5 1
   9    4   33 1
  10    5    6 1
  11    5    7 1
  12    6    9 2
  13    7    8 2
  14    7   11 1
  15    8    9 1
  16    8   34 1
  17   10   12 1
  18   10   16 1
  19   11   23 ar
  20   11   27 ar
  21   12   13 1
  22   12   35 1
  23   12   36 1
  24   13   14 1
  25   13   37 1
  26   13   38 1
  27   14   15 1
  28   14   17 1
  29   14   39 1
  30   15   16 1
  31   15   40 1
  32   15   41 1
  33   16   42 1
  34   16   43 1
  35   17   18 ar
  36   17   22 ar
  37   18   19 ar
  38   18   44 1
  39   19   20 ar
  40   19   45 1
  41   20   21 ar
  42   20   46 1
  43   21   22 ar
  44   21   47 1
  45   22   48 1
  46   23   24 ar
  47   23   28 1
  48   24   25 ar
  49   24   49 1
  50   25   26 ar
  51   25   29 1
  52   26   27 ar
  53   26   50 1
  54   27   51 1
  55   30   31 3

#	End of record

