#	Name: ASD01911839
#	Creating user name:	WinNT
#	Creation time:	15. 06. 2019 19:58

#	Modifying user name:	WinNT
#	Modification time:	15. 06. 2019 19:58

#	Program:	/corina/corina34_cracker 3.40 0067  02.08.2006

@<TRIPOS>MOLECULE
ASD01911839
  37   39    0    0    0
SMALL
NO_CHARGES


@<TRIPOS>ATOM
   1 C1            -1.0605    -0.5026    -2.0835 C.ar    
   2 C2            -1.0563     0.0558    -0.8088 C.ar    
   3 C3            -1.0052     1.4360    -0.6782 C.ar    
   4 N4            -0.9616     2.2114    -1.7435 N.ar    
   5 C5            -0.9642     1.7143    -2.9648 C.ar    
   6 C6            -1.0131     0.3487    -3.1753 C.ar    
   7 O7            -1.1021    -0.7394     0.2922 O.3     
   8 C8            -1.1524    -2.0845     0.1060 C.ar    
   9 C9            -0.0018    -2.7819    -0.2364 C.ar    
  10 C10           -0.0515    -4.1495    -0.4266 C.ar    
  11 C11           -1.2460    -4.8275    -0.2768 C.ar    
  12 C12           -2.4005    -4.1351     0.0657 C.ar    
  13 C13           -2.3513    -2.7620     0.2632 C.ar    
  14 N14           -3.6096    -4.8213     0.2169 N.am    
  15 C15           -4.7718    -4.2166    -0.0996 C.2     
  16 C16           -6.0559    -4.9024     0.1576 C.ar    
  17 C17           -6.0665    -6.1771     0.7286 C.ar    
  18 C18           -7.2650    -6.8196     0.9693 C.ar    
  19 C19           -8.4601    -6.2079     0.6478 C.ar    
  20 C20           -8.4643    -4.9325     0.0763 C.ar    
  21 C21           -7.2586    -4.2763    -0.1638 C.ar    
  22 O22           -4.7641    -3.1073    -0.5967 O.2     
  23 C23           -9.7048    -4.2993    -0.2566 C.1     
  24 N24          -10.6888    -3.7969    -0.5207 N.1     
  25 H25           -1.0952    -1.5736    -2.2181 H       
  26 H26           -1.0016     1.8799     0.3064 H       
  27 H27           -0.9278     2.3830    -3.8121 H       
  28 H28           -1.0145    -0.0496    -4.1791 H       
  29 H29            0.9333    -2.2546    -0.3545 H       
  30 H30            0.8450    -4.6895    -0.6932 H       
  31 H31           -1.2822    -5.8965    -0.4264 H       
  32 H32           -3.2475    -2.2212     0.5295 H       
  33 H33           -3.6119    -5.7325     0.5496 H       
  34 H34           -5.1352    -6.6615     0.9823 H       
  35 H35           -7.2673    -7.8052     1.4107 H       
  36 H36           -9.3938    -6.7162     0.8379 H       
  37 H37           -7.2560    -3.2905    -0.6048 H       
@<TRIPOS>BOND
   1    1    2 ar
   2    1    6 ar
   3    1   25 1
   4    2    3 ar
   5    2    7 1
   6    3    4 ar
   7    3   26 1
   8    4    5 ar
   9    5    6 ar
  10    5   27 1
  11    6   28 1
  12    7    8 1
  13    8    9 ar
  14    8   13 ar
  15    9   10 ar
  16    9   29 1
  17   10   11 ar
  18   10   30 1
  19   11   12 ar
  20   11   31 1
  21   12   13 ar
  22   12   14 1
  23   13   32 1
  24   14   15 am
  25   14   33 1
  26   15   16 1
  27   15   22 2
  28   16   17 ar
  29   16   21 ar
  30   17   18 ar
  31   17   34 1
  32   18   19 ar
  33   18   35 1
  34   19   20 ar
  35   19   36 1
  36   20   21 ar
  37   20   23 1
  38   21   37 1
  39   23   24 3

#	End of record

