#	Name: ASD06600005
#	Creating user name:	WinNT
#	Creation time:	15. 06. 2019 21:06

#	Modifying user name:	WinNT
#	Modification time:	15. 06. 2019 21:06

#	Program:	/corina/corina34_cracker 3.40 0067  02.08.2006

@<TRIPOS>MOLECULE
ASD06600005
 193  192    0    0    0
SMALL
NO_CHARGES


@<TRIPOS>ATOM
   1 C1            -1.6173     0.6949     1.9132 C.2     
   2 O2            -1.6537    -0.5100     1.7803 O.2     
   3 N3             0.7117     0.4245     2.5515 N.3     
   4 C4            -0.2944     1.3932     2.0961 C.3     
   5 C5             0.1495     2.0017     0.7644 C.3     
   6 C6             1.4278     2.8153     0.9763 C.3     
   7 C7             1.8718     3.4238    -0.3554 C.3     
   8 N8             3.0958     4.2028    -0.1524 N.pl3   
   9 C9             3.6846     4.8466    -1.2144 C.2     
  10 N10            3.2281     4.6651    -2.4200 N.2     
  11 N11            4.7611     5.6864    -1.0025 N.am    
  12 C12           -5.0422     1.6965     1.1197 C.2     
  13 O13           -4.7117     2.8381     0.8779 O.2     
  14 N14           -2.7595     1.4101     1.8918 N.am    
  15 C15           -4.0450     0.7319     1.7079 C.3     
  16 C16           -4.5559     0.2318     3.0606 C.3     
  17 C17           -3.6064    -0.8399     3.5999 C.3     
  18 C18           -4.1096    -1.3324     4.9323 C.2     
  19 O19           -5.1274    -0.8716     5.4040 O.2     
  20 N20           -3.4285    -2.2849     5.5996 N.am    
  21 C21           -8.6667     1.7915     0.6535 C.2     
  22 O22           -8.8351     0.7950     1.3239 O.2     
  23 N23           -6.3014     1.2907     0.8623 N.am    
  24 C24           -7.2708     2.2284     0.2905 C.3     
  25 C25           -7.1229     2.2496    -1.2322 C.3     
  26 C26           -5.6729     2.5717    -1.5992 C.3     
  27 O27           -7.4758     0.9706    -1.7629 O.3     
  28 C28          -12.0584     2.6124    -0.4354 C.2     
  29 O29          -11.6581     3.2785    -1.3666 O.2     
  30 N30           -9.7279     2.5083     0.2332 N.am    
  31 C31          -11.0848     2.0836     0.5862 C.3     
  32 C32          -11.4476     2.6315     1.9679 C.3     
  33 C33          -10.5380     1.9981     3.0226 C.3     
  34 C34          -10.9008     2.5460     4.4043 C.3     
  35 N35          -10.0299     1.9395     5.4142 N.pl3   
  36 C36          -10.1709     2.2814     6.7383 C.2     
  37 N37          -11.0794     3.1452     7.0952 N.2     
  38 N38           -9.3536     1.7122     7.6860 N.pl3   
  39 C39          -15.6870     2.9788    -0.6839 C.2     
  40 O40          -15.8541     2.6654     0.4757 O.2     
  41 N41          -13.3738     2.3452    -0.3142 N.am    
  42 C42          -14.3202     2.8593    -1.3073 C.3     
  43 C43          -14.3842     1.8983    -2.4962 C.3     
  44 O44          -14.9269     0.6474    -2.0688 O.3     
  45 C45          -19.1041     3.4715    -1.8855 C.2     
  46 O46          -18.7761     3.3320    -3.0447 O.2     
  47 N47          -16.7237     3.4340    -1.4151 N.am    
  48 C48          -18.0524     3.5502    -0.8090 C.3     
  49 C49          -18.1659     4.8918    -0.0823 C.3     
  50 O50          -18.0894     5.9563    -1.0326 O.3     
  51 C51          -22.6809     4.1819    -2.1404 C.2     
  52 O52          -22.8538     4.3913    -0.9584 O.2     
  53 N53          -20.4092     3.5561    -1.5599 N.am    
  54 C54          -21.4316     3.4795    -2.6064 C.3     
  55 C55          -21.7511     2.0125    -2.9010 C.3     
  56 C56          -20.4736     1.2890    -3.3317 C.3     
  57 O57          -22.2754     1.3937    -1.7245 O.3     
  58 C58          -25.9275     4.9762    -3.6209 C.2     
  59 O59          -25.6684     4.3814    -4.6456 O.2     
  60 N60          -23.6060     4.5773    -3.0373 N.am    
  61 C61          -24.8587     5.1830    -2.5789 C.3     
  62 C62          -24.6483     6.6818    -2.3545 C.3     
  63 C63          -23.6547     6.8917    -1.2102 C.3     
  64 C64          -23.4475     8.3680    -0.9893 C.2     
  65 O65          -24.0344     9.1699    -1.6766 O.2     
  66 O66          -22.6110     8.7920    -0.0289 O.3     
  67 C67          -28.1207     6.3426    -5.4623 C.2     
  68 O68          -27.2756     7.2005    -5.3639 O.2     
  69 N69          -27.1713     5.4521    -3.4141 N.am    
  70 C70          -28.2104     5.2511    -4.4272 C.3     
  71 C71          -29.5870     5.2920    -3.7608 C.3     
  72 C72          -29.6350     4.2670    -2.6259 C.3     
  73 O73          -29.8219     6.5988    -3.2326 O.3     
  74 O74          -28.9797     6.3618    -6.4936 O.3     
  75 C75            5.1554     5.9725     0.2541 C.2     
  76 O76            4.6209     5.4275     1.1962 O.2     
  77 C77           15.8688    15.0378    12.6731 C.3     
  78 C78           14.7468    14.0252    12.4352 C.3     
  79 C79           14.4962    13.8852    10.9324 C.3     
  80 C80           13.3742    12.8727    10.6946 C.3     
  81 C81           13.1236    12.7327     9.1917 C.3     
  82 C82           12.0015    11.7201     8.9539 C.3     
  83 C83           11.7510    11.5801     7.4511 C.3     
  84 C84           10.6289    10.5675     7.2132 C.3     
  85 C85           10.3784    10.4276     5.7104 C.3     
  86 C86            9.2563     9.4150     5.4726 C.3     
  87 C87            9.0058     9.2750     3.9697 C.3     
  88 C88            7.8837     8.2624     3.7319 C.3     
  89 C89            7.6332     8.1224     2.2290 C.3     
  90 C90            6.5111     7.1099     1.9912 C.3     
  91 C91            6.2605     6.9699     0.4884 C.3     
  92 H92            0.8285    -0.3187     1.8791 H       
  93 H93            1.5914     0.8801     2.7433 H       
  94 H94           -0.4004     2.1835     2.8393 H       
  95 H95            0.3413     1.2042     0.0465 H       
  96 H96           -0.6366     2.6531     0.3825 H       
  97 H97            1.2361     3.6128     1.6943 H       
  98 H98            2.2140     2.1639     1.3582 H       
  99 H99            2.0635     2.6264    -1.0733 H       
 100 H100           1.0856     4.0752    -0.7372 H       
 101 H101           3.4906     4.2643     0.7314 H       
 102 H102           3.5952     5.1744    -3.1594 H       
 103 H103           5.2330     6.0700    -1.7581 H       
 104 H104          -2.7304     2.3738     1.9981 H       
 105 H105          -3.9161    -0.1142     1.0328 H       
 106 H106          -4.6002     1.0645     3.7626 H       
 107 H107          -5.5519    -0.1936     2.9381 H       
 108 H108          -3.5620    -1.6725     2.8979 H       
 109 H109          -2.6103    -0.4144     3.7224 H       
 110 H110          -2.6144    -2.6534     5.2222 H       
 111 H111          -3.7524    -2.6019     6.4572 H       
 112 H112          -6.5657     0.3776     1.0557 H       
 113 H113          -7.0879     3.2270     0.6873 H       
 114 H114          -7.7813     3.0109    -1.6506 H       
 115 H115          -5.0145     1.8105    -1.1808 H       
 116 H116          -5.5675     2.5868    -2.6840 H       
 117 H117          -5.4037     3.5473    -1.1944 H       
 118 H118          -6.9298     0.2438    -1.4333 H       
 119 H119          -9.5932     3.3053    -0.3029 H       
 120 H120         -11.1318     0.9947     0.6033 H       
 121 H121         -11.3148     3.7133     1.9760 H       
 122 H122         -12.4867     2.3912     2.1926 H       
 123 H123         -10.6708     0.9162     3.0144 H       
 124 H124          -9.4989     2.2383     2.7978 H       
 125 H125         -10.7680     3.6278     4.4124 H       
 126 H126         -11.9399     2.3057     4.6291 H       
 127 H127          -9.3537     1.2966     5.1486 H       
 128 H128         -11.1789     3.3864     8.0294 H       
 129 H129          -8.6774     1.0694     7.4205 H       
 130 H130          -9.4531     1.9535     8.6203 H       
 131 H131         -13.6939     1.8124     0.4305 H       
 132 H132         -13.9902     3.8399    -1.6502 H       
 133 H133         -15.0194     2.3235    -3.2733 H       
 134 H134         -13.3806     1.7427    -2.8920 H       
 135 H135         -14.9969    -0.0120    -2.7727 H       
 136 H136         -16.5900     3.6846    -2.3426 H       
 137 H137         -18.1994     2.7379    -0.0973 H       
 138 H138         -19.1199     4.9412     0.4425 H       
 139 H139         -17.3510     4.9863     0.6355 H       
 140 H140         -18.1545     6.8382    -0.6414 H       
 141 H141         -20.6716     3.6676    -0.6328 H       
 142 H142         -21.0612     3.9597    -3.5121 H       
 143 H143         -22.4888     1.9550    -3.7013 H       
 144 H144         -19.7854     1.2337    -2.4883 H       
 145 H145         -20.7217     0.2812    -3.6650 H       
 146 H146         -20.0038     1.8365    -4.1488 H       
 147 H147         -23.0874     1.8017    -1.3940 H       
 148 H148         -23.4423     4.4609    -3.9862 H       
 149 H149         -25.1675     4.7155    -1.6439 H       
 150 H150         -24.2547     7.1337    -3.2650 H       
 151 H151         -25.6000     7.1481    -2.0995 H       
 152 H152         -24.0483     6.4398    -0.2997 H       
 153 H153         -22.7030     6.4254    -1.4652 H       
 154 H154         -22.5107     9.7481     0.0751 H       
 155 H155         -27.3786     5.9279    -2.5946 H       
 156 H156         -28.0675     4.2828    -4.9069 H       
 157 H157         -30.3545     5.0545    -4.4975 H       
 158 H158         -28.8675     4.5045    -1.8892 H       
 159 H159         -30.6157     4.2962    -2.1512 H       
 160 H160         -29.4558     3.2702    -3.0288 H       
 161 H161         -29.1755     6.8770    -2.5694 H       
 162 H162         -28.8831     7.0816    -7.1320 H       
 163 H163          15.5791    16.0046    12.2614 H       
 164 H164          16.0473    15.1375    13.7437 H       
 165 H165          16.7795    14.6927    12.1835 H       
 166 H166          15.0365    13.0584    12.8469 H       
 167 H167          13.8361    14.3704    12.9248 H       
 168 H168          14.2064    14.8520    10.5207 H       
 169 H169          15.4069    13.5401    10.4428 H       
 170 H170          13.6639    11.9059    11.1062 H       
 171 H171          12.4635    13.2178    11.1841 H       
 172 H172          12.8338    13.6995     8.7801 H       
 173 H173          14.0343    12.3875     8.7021 H       
 174 H174          12.2913    10.7533     9.3655 H       
 175 H175          11.0909    12.0652     9.4435 H       
 176 H176          11.4612    12.5469     7.0394 H       
 177 H177          12.6617    11.2350     6.9615 H       
 178 H178          10.9187     9.6008     7.6249 H       
 179 H179           9.7183    10.9127     7.7028 H       
 180 H180          10.0886    11.3943     5.2987 H       
 181 H181          11.2890    10.0824     5.2208 H       
 182 H182           9.5461     8.4482     5.8842 H       
 183 H183           8.3457     9.7601     5.9621 H       
 184 H184           8.7160    10.2418     3.5581 H       
 185 H185           9.9164     8.9299     3.4801 H       
 186 H186           8.1735     7.2956     4.1435 H       
 187 H187           6.9731     8.6076     4.2215 H       
 188 H188           7.3434     9.0892     1.8174 H       
 189 H189           8.5438     7.7773     1.7395 H       
 190 H190           6.8009     6.1431     2.4029 H       
 191 H191           5.6004     7.4550     2.4808 H       
 192 H192           7.1712     6.6247    -0.0012 H       
 193 H193           5.9708     7.9367     0.0767 H       
@<TRIPOS>BOND
   1    1    2 2
   2    1    4 1
   3    1   14 am
   4    3    4 1
   5    3   92 1
   6    3   93 1
   7    4    5 1
   8    4   94 1
   9    5    6 1
  10    5   95 1
  11    5   96 1
  12    6    7 1
  13    6   97 1
  14    6   98 1
  15    7    8 1
  16    7   99 1
  17    7  100 1
  18    8    9 1
  19    8  101 1
  20    9   10 2
  21    9   11 1
  22   10  102 1
  23   11   75 am
  24   11  103 1
  25   12   13 2
  26   12   15 1
  27   12   23 am
  28   14   15 1
  29   14  104 1
  30   15   16 1
  31   15  105 1
  32   16   17 1
  33   16  106 1
  34   16  107 1
  35   17   18 1
  36   17  108 1
  37   17  109 1
  38   18   19 2
  39   18   20 am
  40   20  110 1
  41   20  111 1
  42   21   22 2
  43   21   24 1
  44   21   30 am
  45   23   24 1
  46   23  112 1
  47   24   25 1
  48   24  113 1
  49   25   26 1
  50   25   27 1
  51   25  114 1
  52   26  115 1
  53   26  116 1
  54   26  117 1
  55   27  118 1
  56   28   29 2
  57   28   31 1
  58   28   41 am
  59   30   31 1
  60   30  119 1
  61   31   32 1
  62   31  120 1
  63   32   33 1
  64   32  121 1
  65   32  122 1
  66   33   34 1
  67   33  123 1
  68   33  124 1
  69   34   35 1
  70   34  125 1
  71   34  126 1
  72   35   36 1
  73   35  127 1
  74   36   37 2
  75   36   38 1
  76   37  128 1
  77   38  129 1
  78   38  130 1
  79   39   40 2
  80   39   42 1
  81   39   47 am
  82   41   42 1
  83   41  131 1
  84   42   43 1
  85   42  132 1
  86   43   44 1
  87   43  133 1
  88   43  134 1
  89   44  135 1
  90   45   46 2
  91   45   48 1
  92   45   53 am
  93   47   48 1
  94   47  136 1
  95   48   49 1
  96   48  137 1
  97   49   50 1
  98   49  138 1
  99   49  139 1
 100   50  140 1
 101   51   52 2
 102   51   54 1
 103   51   60 am
 104   53   54 1
 105   53  141 1
 106   54   55 1
 107   54  142 1
 108   55   56 1
 109   55   57 1
 110   55  143 1
 111   56  144 1
 112   56  145 1
 113   56  146 1
 114   57  147 1
 115   58   59 2
 116   58   61 1
 117   58   69 am
 118   60   61 1
 119   60  148 1
 120   61   62 1
 121   61  149 1
 122   62   63 1
 123   62  150 1
 124   62  151 1
 125   63   64 1
 126   63  152 1
 127   63  153 1
 128   64   65 2
 129   64   66 1
 130   66  154 1
 131   67   68 2
 132   67   70 1
 133   67   74 1
 134   69   70 1
 135   69  155 1
 136   70   71 1
 137   70  156 1
 138   71   72 1
 139   71   73 1
 140   71  157 1
 141   72  158 1
 142   72  159 1
 143   72  160 1
 144   73  161 1
 145   74  162 1
 146   75   76 2
 147   75   91 1
 148   77   78 1
 149   77  163 1
 150   77  164 1
 151   77  165 1
 152   78   79 1
 153   78  166 1
 154   78  167 1
 155   79   80 1
 156   79  168 1
 157   79  169 1
 158   80   81 1
 159   80  170 1
 160   80  171 1
 161   81   82 1
 162   81  172 1
 163   81  173 1
 164   82   83 1
 165   82  174 1
 166   82  175 1
 167   83   84 1
 168   83  176 1
 169   83  177 1
 170   84   85 1
 171   84  178 1
 172   84  179 1
 173   85   86 1
 174   85  180 1
 175   85  181 1
 176   86   87 1
 177   86  182 1
 178   86  183 1
 179   87   88 1
 180   87  184 1
 181   87  185 1
 182   88   89 1
 183   88  186 1
 184   88  187 1
 185   89   90 1
 186   89  188 1
 187   89  189 1
 188   90   91 1
 189   90  190 1
 190   90  191 1
 191   91  192 1
 192   91  193 1

#	End of record

