#	Name: ASD01530060
#	Creating user name:	WinNT
#	Creation time:	15. 06. 2019 19:22

#	Modifying user name:	WinNT
#	Modification time:	15. 06. 2019 19:22

#	Program:	/corina/corina34_cracker 3.40 0067  02.08.2006

@<TRIPOS>MOLECULE
ASD01530060
  48   50    0    0    0
SMALL
NO_CHARGES


@<TRIPOS>ATOM
   1 C1             0.6251     1.6660     0.0461 C.ar    
   2 C2             0.6974     0.2800     0.2039 C.ar    
   3 C3             1.9443    -0.3470     0.2547 C.ar    
   4 C4             3.0967     0.4046     0.1489 C.ar    
   5 C5             3.0185     1.7750    -0.0070 C.ar    
   6 C6             1.7828     2.4041    -0.0583 C.ar    
   7 C7             4.0733     2.8483    -0.1481 C.3     
   8 O8             3.4128     4.0932     0.1445 O.3     
   9 C9             2.0397     3.8831    -0.2323 C.3     
  10 C10            5.1910     2.6102     0.8341 C.ar    
  11 C11            4.6205     2.8650    -1.5768 C.3     
  12 C12            6.0227     1.5163     0.6822 C.ar    
  13 C13            7.0484     1.2972     1.5821 C.ar    
  14 C14            7.2429     2.1736     2.6362 C.ar    
  15 C15            6.4093     3.2688     2.7874 C.ar    
  16 C16            5.3876     3.4888     1.8832 C.ar    
  17 C17            5.6316     4.0041    -1.7224 C.3     
  18 C18            6.1788     4.0208    -3.1511 C.3     
  19 N19            7.1496     5.1144    -3.2908 N.3     
  20 C20            7.6974     5.1612    -4.6531 C.3     
  21 C21           -0.5019    -0.4947     0.3137 C.1     
  22 N22           -1.4533    -1.1092     0.4007 N.1     
  23 F23            8.2450     1.9601     3.5168 F       
  24 C24            1.8258     4.2871    -1.6924 C.3     
  25 C25            1.1134     4.6899     0.6799 C.3     
  26 H26           -0.3359     2.1566     0.0015 H       
  27 H27            2.0065    -1.4182     0.3770 H       
  28 H28            4.0614    -0.0793     0.1884 H       
  29 H29            5.1105     1.9149    -1.7894 H       
  30 H30            3.8000     3.0157    -2.2784 H       
  31 H31            5.8706     0.8327    -0.1399 H       
  32 H32            7.6977     0.4424     1.4634 H       
  33 H33            6.5601     3.9530     3.6092 H       
  34 H34            4.7398     4.3453     1.9985 H       
  35 H35            5.1416     4.9542    -1.5098 H       
  36 H36            6.4521     3.8534    -1.0208 H       
  37 H37            6.6688     3.0706    -3.3636 H       
  38 H38            5.3584     4.1714    -3.8527 H       
  39 H39            6.7367     5.9992    -3.0365 H       
  40 H40            8.1979     4.2189    -4.8760 H       
  41 H41            6.8875     5.3198    -5.3651 H       
  42 H42            8.4132     5.9797    -4.7289 H       
  43 H43            0.7635     4.2370    -1.9314 H       
  44 H44            2.1847     5.3050    -1.8440 H       
  45 H45            2.3768     3.6070    -2.3420 H       
  46 H46            1.2970     4.4153     1.7187 H       
  47 H47            1.3079     5.7540     0.5456 H       
  48 H48            0.0756     4.4752     0.4254 H       
@<TRIPOS>BOND
   1    1    2 ar
   2    1    6 ar
   3    1   26 1
   4    2    3 ar
   5    2   21 1
   6    3    4 ar
   7    3   27 1
   8    4    5 ar
   9    4   28 1
  10    5    7 1
  11    5    6 ar
  12    6    9 1
  13    7    8 1
  14    7   10 1
  15    7   11 1
  16    8    9 1
  17    9   24 1
  18    9   25 1
  19   10   12 ar
  20   10   16 ar
  21   11   17 1
  22   11   29 1
  23   11   30 1
  24   12   13 ar
  25   12   31 1
  26   13   14 ar
  27   13   32 1
  28   14   15 ar
  29   14   23 1
  30   15   16 ar
  31   15   33 1
  32   16   34 1
  33   17   18 1
  34   17   35 1
  35   17   36 1
  36   18   19 1
  37   18   37 1
  38   18   38 1
  39   19   20 1
  40   19   39 1
  41   20   40 1
  42   20   41 1
  43   20   42 1
  44   21   22 3
  45   24   43 1
  46   24   44 1
  47   24   45 1
  48   25   46 1
  49   25   47 1
  50   25   48 1

#	End of record

