#	Name: ASD01914886
#	Creating user name:	WinNT
#	Creation time:	15. 06. 2019 20:04

#	Modifying user name:	WinNT
#	Modification time:	15. 06. 2019 20:04

#	Program:	/corina/corina34_cracker 3.40 0067  02.08.2006

@<TRIPOS>MOLECULE
ASD01914886
  60   64    0    0    0
SMALL
NO_CHARGES


@<TRIPOS>ATOM
   1 N1             0.0271     1.3906    -0.1030 N.2     
   2 C2            -0.0389     0.0592     0.0782 C.2     
   3 C3             1.2321    -0.4205     0.1479 C.2     
   4 N4             2.0696     0.6503     0.0047 N.pl3   
   5 C5             1.2871     1.7578    -0.1489 C.2     
   6 C6            -1.2812    -0.7454     0.1845 C.ar    
   7 C7            -2.5252    -0.1242     0.0959 C.ar    
   8 C8            -1.2062    -2.1246     0.3674 C.ar    
   9 C9            -2.3632    -2.8719     0.4657 C.ar    
  10 C10           -3.5987    -2.2544     0.3830 C.ar    
  11 C11           -3.6809    -0.8793     0.1958 C.ar    
  12 C12            1.7766     3.1410    -0.3362 C.ar    
  13 C13            3.0850     3.4749     0.0152 C.ar    
  14 C14            3.5356     4.7667    -0.1625 C.ar    
  15 C15            2.6930     5.7303    -0.6875 C.ar    
  16 C16            1.3946     5.4058    -1.0379 C.ar    
  17 C17            0.9336     4.1162    -0.8706 C.ar    
  18 C18            3.5341     0.6155     0.0148 C.3     
  19 C19            4.0325     0.8480     1.4179 C.2     
  20 O20            3.2421     1.0253     2.3205 O.2     
  21 N21            5.3565     0.8590     1.6696 N.am    
  22 C22            5.8641     1.0841     3.0315 C.3     
  23 C23            6.3318     0.6400     0.5907 C.3     
  24 C24            7.3068    -0.4572     1.0311 C.3     
  25 N25            7.8888    -0.0976     2.3311 N.3     
  26 C26            6.8584    -0.0315     3.3709 C.3     
  27 C27            8.8931    -0.9822     2.6836 C.ar    
  28 N28            9.9113    -1.1678     1.8563 N.ar    
  29 N29            8.8164    -1.6193     3.8428 N.ar    
  30 C30            9.7595    -2.4709     4.2100 C.ar    
  31 C31           10.8363    -2.6926     3.3659 C.ar    
  32 C32           10.8878    -2.0057     2.1631 C.ar    
  33 F33           -4.7277    -2.9902     0.4789 F       
  34 O34           -4.8964    -0.2756     0.1150 O.3     
  35 C35           -4.9061     1.1402    -0.0779 C.3     
  36 H36            1.5238    -1.4506     0.2896 H       
  37 H37           -2.5875     0.9441    -0.0499 H       
  38 H38           -0.2432    -2.6092     0.4319 H       
  39 H39           -2.3036    -3.9410     0.6071 H       
  40 H40            3.7435     2.7237     0.4258 H       
  41 H41            4.5481     5.0264     0.1092 H       
  42 H42            3.0503     6.7403    -0.8239 H       
  43 H43            0.7418     6.1625    -1.4473 H       
  44 H44           -0.0802     3.8640    -1.1446 H       
  45 H45            3.8769    -0.3580    -0.3359 H       
  46 H46            3.9206     1.3949    -0.6419 H       
  47 H47            6.3670     2.0499     3.0798 H       
  48 H48            5.0354     1.0637     3.7392 H       
  49 H49            5.8121     0.3262    -0.3146 H       
  50 H50            6.8804     1.5624     0.4002 H       
  51 H51            6.7731    -1.4034     1.1208 H       
  52 H52            8.1014    -0.5559     0.2917 H       
  53 H53            7.3256     0.1786     4.3331 H       
  54 H54            6.3318    -0.9844     3.4222 H       
  55 H55            9.6916    -2.9870     5.1563 H       
  56 H56           11.6204    -3.3824     3.6413 H       
  57 H57           11.7131    -2.1557     1.4829 H       
  58 H58           -5.9362     1.4935    -0.1248 H       
  59 H59           -4.3937     1.6238     0.7538 H       
  60 H60           -4.3958     1.3835    -1.0099 H       
@<TRIPOS>BOND
   1    1    2 1
   2    1    5 2
   3    2    3 2
   4    2    6 1
   5    3    4 1
   6    3   36 1
   7    4    5 1
   8    4   18 1
   9    5   12 1
  10    6    7 ar
  11    6    8 ar
  12    7   11 ar
  13    7   37 1
  14    8    9 ar
  15    8   38 1
  16    9   10 ar
  17    9   39 1
  18   10   11 ar
  19   10   33 1
  20   11   34 1
  21   12   13 ar
  22   12   17 ar
  23   13   14 ar
  24   13   40 1
  25   14   15 ar
  26   14   41 1
  27   15   16 ar
  28   15   42 1
  29   16   17 ar
  30   16   43 1
  31   17   44 1
  32   18   19 1
  33   18   45 1
  34   18   46 1
  35   19   20 2
  36   19   21 am
  37   21   22 1
  38   21   23 1
  39   22   26 1
  40   22   47 1
  41   22   48 1
  42   23   24 1
  43   23   49 1
  44   23   50 1
  45   24   25 1
  46   24   51 1
  47   24   52 1
  48   25   26 1
  49   25   27 1
  50   26   53 1
  51   26   54 1
  52   27   28 ar
  53   27   29 ar
  54   28   32 ar
  55   29   30 ar
  56   30   31 ar
  57   30   55 1
  58   31   32 ar
  59   31   56 1
  60   32   57 1
  61   34   35 1
  62   35   58 1
  63   35   59 1
  64   35   60 1

#	End of record

