#	Name: ASD01883865
#	Creating user name:	WinNT
#	Creation time:	15. 06. 2019 19:47

#	Modifying user name:	WinNT
#	Modification time:	15. 06. 2019 19:47

#	Program:	/corina/corina34_cracker 3.40 0067  02.08.2006

@<TRIPOS>MOLECULE
ASD01883865
  54   58    0    0    0
SMALL
NO_CHARGES


@<TRIPOS>ATOM
   1 O1            -0.0169     1.3586     0.0007 O.3     
   2 C2            -0.0003     0.0032    -0.0733 C.2     
   3 C3            -0.5979    -2.0409    -1.1601 C.2     
   4 C4            -0.6285    -0.6363    -1.1044 C.2     
   5 C5             0.6704    -0.7527     0.9104 C.2     
   6 C6             0.6885    -2.0986     0.8387 C.2     
   7 N7            -0.7903    -4.1156    -1.6132 N.2     
   8 N8            -1.0964    -2.9292    -2.0060 N.2     
   9 N9             0.0603    -2.7478    -0.1835 N.pl3   
  10 C10           -0.0881    -4.0626    -0.5119 C.2     
  11 C11            0.4573    -5.2397     0.2548 C.3     
  12 C12            1.8562    -5.5812    -0.2623 C.3     
  13 C13            2.6315    -6.6786     0.4696 C.3     
  14 C14            2.0519    -6.9485    -0.9205 C.3     
  15 C15           -1.3456     0.1540    -2.1684 C.3     
  16 F16           -0.4565     0.4526    -3.2064 F       
  17 F17           -2.4119    -0.6000    -2.6702 F       
  18 F18           -1.8343     1.3430    -1.6165 F       
  19 C19            1.2342     2.0320    -0.1517 C.3     
  20 C20            1.0287     3.3122    -0.9640 C.3     
  21 C21            2.3682     4.0332    -1.1272 C.3     
  22 C22            2.9276     4.3884     0.2518 C.3     
  23 C23            3.1331     3.1082     1.0641 C.3     
  24 C24            1.7936     2.3872     1.2273 C.3     
  25 C25            4.2470     5.0986     0.0910 C.ar    
  26 C26            4.4046     6.3827     0.5780 C.ar    
  27 C27            5.6149     7.0342     0.4305 C.ar    
  28 C28            6.6677     6.4014    -0.2036 C.ar    
  29 C29            6.5103     5.1169    -0.6898 C.ar    
  30 C30            5.3014     4.4639    -0.5384 C.ar    
  31 H31            1.1720    -0.2509     1.7247 H       
  32 H32            1.2053    -2.6681     1.5970 H       
  33 H33            0.5126    -4.9893     1.3141 H       
  34 H34           -0.2001    -6.0984     0.1182 H       
  35 H35            2.4270    -4.7433    -0.6625 H       
  36 H36            3.7123    -6.5629     0.5504 H       
  37 H37            2.1449    -7.1573     1.3194 H       
  38 H38            1.1840    -7.6047    -0.9851 H       
  39 H39            2.7514    -7.0102    -1.7541 H       
  40 H40            1.9365     1.3805    -0.6719 H       
  41 H41            0.6302     3.0591    -1.9465 H       
  42 H42            0.3264     3.9636    -0.4439 H       
  43 H43            3.0705     3.3817    -1.6473 H       
  44 H44            2.2218     4.9452    -1.7059 H       
  45 H45            2.2253     5.0399     0.7719 H       
  46 H46            3.8354     2.4568     0.5440 H       
  47 H47            3.5316     3.3613     2.0466 H       
  48 H48            1.0913     3.0387     1.7474 H       
  49 H49            1.9400     1.4752     1.8060 H       
  50 H50            3.5821     6.8771     1.0735 H       
  51 H51            5.7378     8.0377     0.8103 H       
  52 H52            7.6130     6.9106    -0.3195 H       
  53 H53            7.3327     4.6226    -1.1855 H       
  54 H54            5.1796     3.4590    -0.9150 H       
@<TRIPOS>BOND
   1    1    2 1
   2    1   19 1
   3    2    5 1
   4    2    4 2
   5    3    4 1
   6    3    9 1
   7    3    8 2
   8    4   15 1
   9    5    6 2
  10    5   31 1
  11    6    9 1
  12    6   32 1
  13    7    8 1
  14    7   10 2
  15    9   10 1
  16   10   11 1
  17   11   12 1
  18   11   33 1
  19   11   34 1
  20   12   13 1
  21   12   14 1
  22   12   35 1
  23   13   14 1
  24   13   36 1
  25   13   37 1
  26   14   38 1
  27   14   39 1
  28   15   16 1
  29   15   17 1
  30   15   18 1
  31   19   20 1
  32   19   24 1
  33   19   40 1
  34   20   21 1
  35   20   41 1
  36   20   42 1
  37   21   22 1
  38   21   43 1
  39   21   44 1
  40   22   23 1
  41   22   25 1
  42   22   45 1
  43   23   24 1
  44   23   46 1
  45   23   47 1
  46   24   48 1
  47   24   49 1
  48   25   26 ar
  49   25   30 ar
  50   26   27 ar
  51   26   50 1
  52   27   28 ar
  53   27   51 1
  54   28   29 ar
  55   28   52 1
  56   29   30 ar
  57   29   53 1
  58   30   54 1

#	End of record

