#	Name: ASD02562077
#	Creating user name:	WinNT
#	Creation time:	15. 06. 2019 20:25

#	Modifying user name:	WinNT
#	Modification time:	15. 06. 2019 20:25

#	Program:	/corina/corina34_cracker 3.40 0067  02.08.2006

@<TRIPOS>MOLECULE
ASD02562077
  47   50    0    0    0
SMALL
NO_CHARGES


@<TRIPOS>ATOM
   1 C1             1.4984     1.6376    -2.2919 C.2     
   2 C2             2.0922     0.4893    -2.8368 C.2     
   3 C3             2.9619    -0.2465    -2.0997 C.2     
   4 N4             3.2708     0.1222    -0.8169 N.pl3   
   5 C5             2.7018     1.2448    -0.2599 C.2     
   6 C6             1.7963     2.0152    -1.0190 C.2     
   7 C7             4.0975    -0.4270     0.1274 C.2     
   8 C8             4.0151     0.3750     1.2442 C.2     
   9 N9             3.1593     1.3801     0.9743 N.2     
  10 N10            4.8741    -1.5780    -0.0149 N.3     
  11 C11            4.7406     0.1686     2.5193 C.ar    
  12 C12            6.2854    -1.2366    -0.2376 C.3     
  13 C13            7.1705    -2.3902     0.2387 C.3     
  14 C14            8.6404    -2.0346     0.0067 C.3     
  15 C15            8.8772    -1.7926    -1.4853 C.3     
  16 C16            7.9922    -0.6390    -1.9616 C.3     
  17 C17            6.5223    -0.9945    -1.7297 C.3     
  18 C18            4.2754    -0.7630     3.4466 C.ar    
  19 C19            4.9558    -0.9513     4.6325 C.ar    
  20 C20            6.0971    -0.2180     4.9029 C.ar    
  21 C21            6.5642     0.7085     3.9876 C.ar    
  22 C22            5.8961     0.9017     2.7949 C.ar    
  23 Cl23           6.4832     2.0645     1.6472 Cl      
  24 O24            3.5285    -1.3539    -2.6360 O.3     
  25 C25            3.0718    -1.7550    -3.9293 C.3     
  26 H26            0.8098     2.2232    -2.8829 H       
  27 H27            1.8559     0.1895    -3.8471 H       
  28 H28            1.3434     2.8985    -0.5933 H       
  29 H29            4.7707    -2.1850     0.7844 H       
  30 H30            6.5334    -0.3339     0.3208 H       
  31 H31            7.0017    -2.5626     1.3017 H       
  32 H32            6.9225    -3.2929    -0.3197 H       
  33 H33            8.8883    -1.1320     0.5651 H       
  34 H34            9.2709    -2.8565     0.3461 H       
  35 H35            9.9244    -1.5393    -1.6506 H       
  36 H36            8.6293    -2.6952    -2.0437 H       
  37 H37            8.2402     0.2637    -1.4032 H       
  38 H38            8.1609    -0.4665    -3.0246 H       
  39 H39            6.2743    -1.8972    -2.2880 H       
  40 H40            5.8918    -0.1727    -2.0690 H       
  41 H41            3.3841    -1.3359     3.2373 H       
  42 H42            4.5961    -1.6727     5.3513 H       
  43 H43            6.6255    -0.3689     5.8326 H       
  44 H44            7.4555     1.2786     4.2047 H       
  45 H45            1.9892    -1.8804    -3.9095 H       
  46 H46            3.3358    -0.9912    -4.6608 H       
  47 H47            3.5419    -2.6992    -4.2040 H       
@<TRIPOS>BOND
   1    1    2 1
   2    1    6 2
   3    1   26 1
   4    2    3 2
   5    2   27 1
   6    3    4 1
   7    3   24 1
   8    4    5 1
   9    4    7 1
  10    5    6 1
  11    5    9 2
  12    6   28 1
  13    7    8 2
  14    7   10 1
  15    8    9 1
  16    8   11 1
  17   10   12 1
  18   10   29 1
  19   11   18 ar
  20   11   22 ar
  21   12   13 1
  22   12   17 1
  23   12   30 1
  24   13   14 1
  25   13   31 1
  26   13   32 1
  27   14   15 1
  28   14   33 1
  29   14   34 1
  30   15   16 1
  31   15   35 1
  32   15   36 1
  33   16   17 1
  34   16   37 1
  35   16   38 1
  36   17   39 1
  37   17   40 1
  38   18   19 ar
  39   18   41 1
  40   19   20 ar
  41   19   42 1
  42   20   21 ar
  43   20   43 1
  44   21   22 ar
  45   21   44 1
  46   22   23 1
  47   24   25 1
  48   25   45 1
  49   25   46 1
  50   25   47 1

#	End of record

