#	Name: ASD02038964
#	Creating user name:	WinNT
#	Creation time:	15. 06. 2019 20:17

#	Modifying user name:	WinNT
#	Modification time:	15. 06. 2019 20:17

#	Program:	/corina/corina34_cracker 3.40 0067  02.08.2006

@<TRIPOS>MOLECULE
ASD02038964
  47   49    0    0    0
SMALL
NO_CHARGES


@<TRIPOS>ATOM
   1 O1            -0.7108     1.4232     0.8710 O.3     
   2 N2             0.5843     3.3507     0.6412 N.am    
   3 C3             0.4958     2.0207     0.8404 C.2     
   4 C4             0.7487     5.1861    -0.3407 C.3     
   5 C5             0.8141     6.6888    -0.0605 C.3     
   6 O6             1.8023     7.2876    -0.9014 O.3     
   7 C7             1.9879     8.6289    -0.7772 C.ar    
   8 C8             2.9314     9.2739    -1.5633 C.ar    
   9 C9             1.2296     9.3526     0.1314 C.ar    
  10 C10            1.4170    10.7149     0.2573 C.ar    
  11 C11            2.3649    11.3603    -0.5254 C.ar    
  12 C12            3.1204    10.6361    -1.4377 C.ar    
  13 N13            2.5552    12.7429    -0.3984 N.am    
  14 O14            1.5046     1.3606     0.9924 O.2     
  15 C15            1.6709     4.3370     0.5450 C.3     
  16 C16           -0.3629     4.4533     0.4179 C.3     
  17 C17           -0.7259     0.0675     0.9721 C.ar    
  18 C18           -0.2512    -0.5486     2.1207 C.ar    
  19 C19           -0.2673    -1.9262     2.2216 C.ar    
  20 C20            2.2611    13.3598     0.7633 C.2     
  21 N21            2.3268    14.7033     0.8483 N.am    
  22 O22            1.9366    12.7042     1.7346 O.2     
  23 C23            2.0071    15.3738     2.1111 C.3     
  24 C24           -1.2212    -0.7012    -0.0710 C.ar    
  25 C25           -1.2357    -2.0785     0.0335 C.ar    
  26 C26           -0.7561    -2.6915     1.1776 C.ar    
  27 Cl27          -0.7758    -4.4226     1.3068 Cl      
  28 H28            0.8007     4.9431    -1.4020 H       
  29 H29           -0.1574     7.1390    -0.2642 H       
  30 H30            1.0786     6.8524     0.9842 H       
  31 H31            3.5186     8.7106    -2.2735 H       
  32 H32            0.4923     8.8504     0.7402 H       
  33 H33            0.8261    11.2783     0.9643 H       
  34 H34            3.8580    11.1375    -2.0468 H       
  35 H35            2.8986    13.2560    -1.1466 H       
  36 H36            1.9140     4.8092     1.4969 H       
  37 H37            2.5514     3.9632     0.0223 H       
  38 H38           -1.2083     4.1783    -0.2127 H       
  39 H39           -0.6670     4.9569     1.3355 H       
  40 H40            0.1310     0.0485     2.9355 H       
  41 H41            0.1022    -2.4062     3.1157 H       
  42 H42            2.5857    15.2262     0.0735 H       
  43 H43            0.9810    15.1417     2.3961 H       
  44 H44            2.6875    15.0271     2.8889 H       
  45 H45            2.1151    16.4514     1.9877 H       
  46 H46           -1.5956    -0.2231    -0.9641 H       
  47 H47           -1.6212    -2.6773    -0.7784 H       
@<TRIPOS>BOND
   1    1   17 1
   2    1    3 1
   3    2    3 am
   4    2   15 1
   5    2   16 1
   6    3   14 2
   7    4    5 1
   8    4   16 1
   9    4   15 1
  10    4   28 1
  11    5    6 1
  12    5   29 1
  13    5   30 1
  14    6    7 1
  15    7    8 ar
  16    7    9 ar
  17    8   12 ar
  18    8   31 1
  19    9   10 ar
  20    9   32 1
  21   10   11 ar
  22   10   33 1
  23   11   12 ar
  24   11   13 1
  25   12   34 1
  26   13   20 am
  27   13   35 1
  28   15   36 1
  29   15   37 1
  30   16   38 1
  31   16   39 1
  32   17   18 ar
  33   17   24 ar
  34   18   19 ar
  35   18   40 1
  36   19   26 ar
  37   19   41 1
  38   20   21 am
  39   20   22 2
  40   21   23 1
  41   21   42 1
  42   23   43 1
  43   23   44 1
  44   23   45 1
  45   24   25 ar
  46   24   46 1
  47   25   26 ar
  48   25   47 1
  49   26   27 1

#	End of record

