#	Name: ASD01141039
#	Creating user name:	WinNT
#	Creation time:	15. 06. 2019 19:01

#	Modifying user name:	WinNT
#	Modification time:	15. 06. 2019 19:01

#	Program:	/corina/corina34_cracker 3.40 0067  02.08.2006

@<TRIPOS>MOLECULE
ASD01141039
  60   60    0    0    0
SMALL
NO_CHARGES


@<TRIPOS>ATOM
   1 C1             0.7442     3.0268     0.3699 C.ar    
   2 C2             1.4126     1.8833    -0.0523 C.ar    
   3 C3             1.4352     4.0159     1.0604 C.ar    
   4 O4            -0.5812     3.1801     0.1031 O.3     
   5 C5             2.7647     1.7338     0.2167 C.ar    
   6 C6             2.7872     3.8583     1.3252 C.ar    
   7 O7             0.7863     5.1365     1.4752 O.3     
   8 C8            -1.4449     2.7095     1.0162 C.2     
   9 C9             3.4478     2.7195     0.9039 C.ar    
  10 C10           -2.9287     2.8435     0.7893 C.3     
  11 O11           -1.0315     2.1768     2.0235 O.2     
  12 N12           -3.1987     4.0695     0.0264 N.3     
  13 C13           -3.4359     1.6322     0.0042 C.3     
  14 C14            1.5593     6.1108     2.1790 C.3     
  15 O15            0.7413     0.9127    -0.7277 O.3     
  16 C16            1.4918    -0.2346    -1.1308 C.3     
  17 C17           -2.6454     3.9773    -1.3313 C.3     
  18 C18           -4.6381     4.3604    -0.0103 C.3     
  19 C19           -4.9940     5.3185     1.1283 C.3     
  20 C20           -2.7705     5.3346    -2.0262 C.3     
  21 O21           -4.2345     6.5215     0.9935 O.3     
  22 C22           -4.4211     7.4497     2.0638 C.3     
  23 O23           -1.9339     6.2866    -1.3660 O.3     
  24 C24           -1.8900     7.5639    -2.0053 C.3     
  25 C25           -3.8463     4.2010     4.2706 C.3     
  26 C26           -3.0368     4.0344     2.9830 C.3     
  27 C27           -3.6467     2.9138     2.1385 C.3     
  28 H28            3.2847     0.8457    -0.1110 H       
  29 H29            3.3248     4.6262     1.8616 H       
  30 H30            4.5006     2.5996     1.1124 H       
  31 H31           -3.2356     0.7225     0.5702 H       
  32 H32           -4.5091     1.7291    -0.1600 H       
  33 H33           -2.9244     1.5821    -0.9570 H       
  34 H34            1.9749     5.6621     3.0813 H       
  35 H35            2.3704     6.4613     1.5408 H       
  36 H36            0.9222     6.9520     2.4520 H       
  37 H37            1.9077    -0.7245    -0.2504 H       
  38 H38            0.8383    -0.9293    -1.6585 H       
  39 H39            2.3020     0.0749    -1.7911 H       
  40 H40           -1.5947     3.6924    -1.2769 H       
  41 H41           -3.1965     3.2268    -1.8980 H       
  42 H42           -4.8915     4.8209    -0.9652 H       
  43 H43           -5.1993     3.4333     0.1062 H       
  44 H44           -6.0575     5.5537     1.0862 H       
  45 H45           -4.7633     4.8484     2.0842 H       
  46 H46           -2.4615     5.2397    -3.0672 H       
  47 H47           -3.8066     5.6704    -1.9839 H       
  48 H48           -3.8808     8.3706     1.8445 H       
  49 H49           -5.4831     7.6689     2.1736 H       
  50 H50           -4.0417     7.0176     2.9898 H       
  51 H51           -1.3057     8.2546    -1.3974 H       
  52 H52           -1.4273     7.4631    -2.9870 H       
  53 H53           -2.9037     7.9482    -2.1192 H       
  54 H54           -3.3623     4.9382     4.9112 H       
  55 H55           -4.8535     4.5380     4.0255 H       
  56 H56           -3.8998     3.2455     4.7923 H       
  57 H57           -3.0563     4.9666     2.4184 H       
  58 H58           -2.0061     3.7819     3.2319 H       
  59 H59           -4.7055     3.1160     1.9765 H       
  60 H60           -3.5340     1.9634     2.6601 H       
@<TRIPOS>BOND
   1    1    2 ar
   2    1    3 ar
   3    1    4 1
   4    2    5 ar
   5    2   15 1
   6    3    6 ar
   7    3    7 1
   8    4    8 1
   9    5    9 ar
  10    5   28 1
  11    6    9 ar
  12    6   29 1
  13    7   14 1
  14    8   10 1
  15    8   11 2
  16    9   30 1
  17   10   13 1
  18   10   27 1
  19   10   12 1
  20   12   17 1
  21   12   18 1
  22   13   31 1
  23   13   32 1
  24   13   33 1
  25   14   34 1
  26   14   35 1
  27   14   36 1
  28   15   16 1
  29   16   37 1
  30   16   38 1
  31   16   39 1
  32   17   20 1
  33   17   40 1
  34   17   41 1
  35   18   19 1
  36   18   42 1
  37   18   43 1
  38   19   21 1
  39   19   44 1
  40   19   45 1
  41   20   23 1
  42   20   46 1
  43   20   47 1
  44   21   22 1
  45   22   48 1
  46   22   49 1
  47   22   50 1
  48   23   24 1
  49   24   51 1
  50   24   52 1
  51   24   53 1
  52   25   26 1
  53   25   54 1
  54   25   55 1
  55   25   56 1
  56   26   27 1
  57   26   57 1
  58   26   58 1
  59   27   59 1
  60   27   60 1

#	End of record

