#	Name: ASD01914938
#	Creating user name:	WinNT
#	Creation time:	15. 06. 2019 20:04

#	Modifying user name:	WinNT
#	Modification time:	15. 06. 2019 20:04

#	Program:	/corina/corina34_cracker 3.40 0067  02.08.2006

@<TRIPOS>MOLECULE
ASD01914938
  56   60    0    0    0
SMALL
NO_CHARGES


@<TRIPOS>ATOM
   1 C1            -0.0042     1.3296    -0.0209 C.2     
   2 N2             0.0148     0.0575     0.3182 N.2     
   3 C3             1.3067     1.7205    -0.3419 C.2     
   4 C4             2.1160     0.6339    -0.1830 C.2     
   5 N5             1.3334    -0.4055     0.2255 N.pl3   
   6 C6            -1.2058     2.2001    -0.0629 C.ar    
   7 C7            -2.4548     1.6838     0.2760 C.ar    
   8 C8            -3.5690     2.4965     0.2361 C.ar    
   9 C9            -3.4473     3.8243    -0.1409 C.ar    
  10 C10           -2.2076     4.3415    -0.4791 C.ar    
  11 C11           -1.0870     3.5371    -0.4358 C.ar    
  12 C12            3.5774     0.5909    -0.4125 C.ar    
  13 C13            1.7913    -1.7663     0.5166 C.3     
  14 C14            2.0701    -1.8978     1.9917 C.2     
  15 N15            2.5054    -3.0705     2.4933 N.am    
  16 O16            1.9029    -0.9482     2.7274 O.2     
  17 C17            2.7870    -3.2320     3.9295 C.3     
  18 C18            1.8018    -4.2573     4.4886 C.3     
  19 C19            1.7356    -5.4748     3.6047 C.ar    
  20 C20            2.1469    -5.4676     2.2909 C.ar    
  21 C21            2.7119    -4.2395     1.6316 C.3     
  22 F22           -4.5409     4.6166    -0.1792 F       
  23 C23            4.1818     1.5241    -1.2550 C.ar    
  24 C24           -4.9204     1.9391     0.6024 C.3     
  25 C25            5.5447     1.4787    -1.4650 C.ar    
  26 C26            6.3116     0.5102    -0.8421 C.ar    
  27 C27            5.7180    -0.4183    -0.0059 C.ar    
  28 C28            4.3569    -0.3796     0.2171 C.ar    
  29 C29            1.2327    -6.6463     4.1583 C.ar    
  30 C30            1.1375    -7.7954     3.4018 C.ar    
  31 C31            1.5442    -7.7845     2.0804 C.ar    
  32 C32            2.0465    -6.6239     1.5290 C.ar    
  33 H33            1.6179     2.7052    -0.6580 H       
  34 H34           -2.5506     0.6488     0.5693 H       
  35 H35           -2.1171     5.3768    -0.7728 H       
  36 H36           -0.1207     3.9412    -0.6993 H       
  37 H37            1.0188    -2.4791     0.2279 H       
  38 H38            2.7027    -1.9709    -0.0451 H       
  39 H39            3.8079    -3.5882     4.0674 H       
  40 H40            2.6562    -2.2782     4.4405 H       
  41 H41            2.1229    -4.5559     5.4865 H       
  42 H42            0.8117    -3.8058     4.5516 H       
  43 H43            2.2156    -4.0808     0.6742 H       
  44 H44            3.7809    -4.3753     1.4672 H       
  45 H45            3.5841     2.2804    -1.7420 H       
  46 H46           -5.0890     2.0685     1.6715 H       
  47 H47           -5.6944     2.4676     0.0460 H       
  48 H48           -4.9551     0.8782     0.3549 H       
  49 H49            6.0138     2.2004    -2.1173 H       
  50 H50            7.3781     0.4788    -1.0097 H       
  51 H51            6.3219    -1.1724     0.4769 H       
  52 H52            3.8947    -1.1048     0.8704 H       
  53 H53            0.9140    -6.6568     5.1901 H       
  54 H54            0.7467    -8.7016     3.8405 H       
  55 H55            1.4694    -8.6808     1.4825 H       
  56 H56            2.3635    -6.6146     0.4966 H       
@<TRIPOS>BOND
   1    1    2 2
   2    1    3 1
   3    1    6 1
   4    2    5 1
   5    3    4 2
   6    3   33 1
   7    4    5 1
   8    4   12 1
   9    5   13 1
  10    6    7 ar
  11    6   11 ar
  12    7    8 ar
  13    7   34 1
  14    8    9 ar
  15    8   24 1
  16    9   10 ar
  17    9   22 1
  18   10   11 ar
  19   10   35 1
  20   11   36 1
  21   12   23 ar
  22   12   28 ar
  23   13   14 1
  24   13   37 1
  25   13   38 1
  26   14   15 am
  27   14   16 2
  28   15   17 1
  29   15   21 1
  30   17   18 1
  31   17   39 1
  32   17   40 1
  33   18   19 1
  34   18   41 1
  35   18   42 1
  36   19   20 ar
  37   19   29 ar
  38   20   21 1
  39   20   32 ar
  40   21   43 1
  41   21   44 1
  42   23   25 ar
  43   23   45 1
  44   24   46 1
  45   24   47 1
  46   24   48 1
  47   25   26 ar
  48   25   49 1
  49   26   27 ar
  50   26   50 1
  51   27   28 ar
  52   27   51 1
  53   28   52 1
  54   29   30 ar
  55   29   53 1
  56   30   31 ar
  57   30   54 1
  58   31   32 ar
  59   31   55 1
  60   32   56 1

#	End of record

