#	Name: ASD05720290
#	Creating user name:	WinNT
#	Creation time:	15. 06. 2019 21:02

#	Modifying user name:	WinNT
#	Modification time:	15. 06. 2019 21:02

#	Program:	/corina/corina34_cracker 3.40 0067  02.08.2006

@<TRIPOS>MOLECULE
ASD05720290
  95  100    0    0    0
SMALL
NO_CHARGES


@<TRIPOS>ATOM
   1 N1             2.2084     2.0688     0.2880 N.am    
   2 C2             1.6501     0.7353     0.0181 C.3     
   3 C3             2.7000     0.1608     0.9792 C.3     
   4 C4             3.4922     1.4128     0.5781 C.3     
   5 C5             1.7478     3.3353     0.2710 C.2     
   6 O6             0.5913     3.5573    -0.0286 O.2     
   7 O7             2.5691     4.3546     0.5861 O.3     
   8 C8             1.9416     1.2126     3.1083 C.2     
   9 N9             1.5953     0.9278     4.3705 N.am    
  10 C10            1.6963    -0.5237     4.5833 C.3     
  11 C11            2.1670    -1.0650     3.2194 C.3     
  12 N12            2.2813     0.1390     2.3829 N.am    
  13 C13            0.6452     2.3579     7.5098 C.2     
  14 N14            1.0230     1.4776     6.5775 N.2     
  15 C15            1.2031     1.8557     5.3260 C.2     
  16 C16            0.9980     3.2014     4.9589 C.2     
  17 C17            0.6162     4.0947     5.8997 C.2     
  18 N18            0.4372     3.6729     7.1879 N.pl3   
  19 N19            0.0537     4.3461     8.3533 N.2     
  20 C20            0.0230     3.4986     9.3523 C.2     
  21 C21            0.3812     2.2300     8.8800 C.2     
  22 C22            0.4663     0.9869     9.6789 C.ar    
  23 C23            1.1800     0.9754    10.8788 C.ar    
  24 C24            1.2588    -0.1814    11.6214 C.ar    
  25 C25            0.6263    -1.3416    11.1750 C.ar    
  26 C26           -0.0869    -1.3308     9.9763 C.ar    
  27 C27           -0.1717    -0.1731     9.2358 C.ar    
  28 N28            0.4933    -4.6390    12.6877 N.pl3   
  29 N29            0.1616    -3.7400    11.6610 N.2     
  30 C30            0.7125    -2.5875    11.9750 C.2     
  31 N31            1.3648    -2.7259    13.1374 N.2     
  32 C32            1.2389    -3.9520    13.5717 C.2     
  33 C33            0.0993    -6.0469    12.7808 C.3     
  34 O34            0.6382    -6.6143    13.9765 O.3     
  35 C35            0.3109    -7.9926    14.1646 C.3     
  36 C36            0.9366    -8.4920    15.4684 C.3     
  37 Si37           0.5100   -10.2888    15.7137 Si      
  38 C38            1.1725   -11.2849    14.2855 C.3     
  39 C39            1.2719   -10.8969    17.3013 C.3     
  40 C40           -1.3410   -10.4814    15.7995 C.3     
  41 O41            1.9427     2.3428     2.6601 O.2     
  42 C42            0.3313    -1.1088     4.9512 C.3     
  43 C43           -0.1083    -0.5619     6.3108 C.3     
  44 C44           -0.6955    -0.7159     3.8872 C.3     
  45 C45            2.0050     5.6920     0.5468 C.3     
  46 C46            0.8394     5.7831     1.5337 C.3     
  47 C47            3.0800     6.7104     0.9318 C.3     
  48 C48            1.5013     5.9917    -0.8665 C.3     
  49 H49            0.6260     0.6140     0.3710 H       
  50 H50            1.7822     0.4101    -1.0139 H       
  51 H51            3.1459    -0.7762     0.6457 H       
  52 H52            4.1150     1.2680    -0.3047 H       
  53 H53            4.0345     1.8674     1.4072 H       
  54 H54            2.4305    -0.7467     5.3575 H       
  55 H55            3.1350    -1.5568     3.3164 H       
  56 H56            1.4283    -1.7507     2.8043 H       
  57 H57            1.1448     3.5159     3.9362 H       
  58 H58            0.4549     5.1296     5.6365 H       
  59 H59           -0.2395     3.7385    10.3720 H       
  60 H60            1.6704     1.8735    11.2242 H       
  61 H61            1.8108    -0.1905    12.5497 H       
  62 H62           -0.5761    -2.2296     9.6311 H       
  63 H63           -0.7277    -0.1636     8.3099 H       
  64 H64            1.6611    -4.3462    14.4843 H       
  65 H65           -0.9881    -6.1193    12.8023 H       
  66 H66            0.4825    -6.5894    11.9165 H       
  67 H67           -0.7721    -8.1053    14.2148 H       
  68 H68            0.6985    -8.5754    13.3290 H       
  69 H69            2.0196    -8.3792    15.4182 H       
  70 H70            0.5491    -7.9092    16.3040 H       
  71 H71            2.2555   -11.1722    14.2353 H       
  72 H72            0.9228   -12.3362    14.4290 H       
  73 H73            0.7267   -10.9291    13.3566 H       
  74 H74            0.8844   -10.3141    18.1369 H       
  75 H75            1.0223   -11.9482    17.4448 H       
  76 H76            2.3549   -10.7842    17.2510 H       
  77 H77           -1.7868   -10.1257    14.8706 H       
  78 H78           -1.5906   -11.5327    15.9430 H       
  79 H79           -1.7286    -9.8986    16.6351 H       
  80 H80            0.4036    -2.1952     5.0027 H       
  81 H81           -0.9597    -1.1366     6.6755 H       
  82 H82            0.7159    -0.6443     7.0193 H       
  83 H83           -0.3943     0.4846     6.2062 H       
  84 H84           -0.3823    -1.1055     2.9186 H       
  85 H85           -1.6680    -1.1328     4.1493 H       
  86 H86           -0.7679     0.3705     3.8357 H       
  87 H87            1.1982     5.5696     2.5405 H       
  88 H88            0.4159     6.7870     1.5042 H       
  89 H89            0.0736     5.0576     1.2594 H       
  90 H90            3.9104     6.6455     0.2287 H       
  91 H91            2.6565     7.7144     0.9023 H       
  92 H92            3.4388     6.4969     1.9386 H       
  93 H93            0.7355     5.2662    -1.1407 H       
  94 H94            1.0778     6.9957    -0.8960 H       
  95 H95            2.3317     5.9268    -1.5695 H       
@<TRIPOS>BOND
   1    1    2 1
   2    1    4 1
   3    1    5 am
   4    2    3 1
   5    2   49 1
   6    2   50 1
   7    3    4 1
   8    3   12 1
   9    3   51 1
  10    4   52 1
  11    4   53 1
  12    5    6 2
  13    5    7 1
  14    7   45 1
  15    8    9 am
  16    8   12 am
  17    8   41 2
  18    9   10 1
  19    9   15 1
  20   10   11 1
  21   10   42 1
  22   10   54 1
  23   11   12 1
  24   11   55 1
  25   11   56 1
  26   13   14 1
  27   13   18 1
  28   13   21 2
  29   14   15 2
  30   15   16 1
  31   16   17 2
  32   16   57 1
  33   17   18 1
  34   17   58 1
  35   18   19 1
  36   19   20 2
  37   20   21 1
  38   20   59 1
  39   21   22 1
  40   22   23 ar
  41   22   27 ar
  42   23   24 ar
  43   23   60 1
  44   24   25 ar
  45   24   61 1
  46   25   26 ar
  47   25   30 1
  48   26   27 ar
  49   26   62 1
  50   27   63 1
  51   28   29 1
  52   28   32 1
  53   28   33 1
  54   29   30 2
  55   30   31 1
  56   31   32 2
  57   32   64 1
  58   33   34 1
  59   33   65 1
  60   33   66 1
  61   34   35 1
  62   35   36 1
  63   35   67 1
  64   35   68 1
  65   36   37 1
  66   36   69 1
  67   36   70 1
  68   37   38 1
  69   37   39 1
  70   37   40 1
  71   38   71 1
  72   38   72 1
  73   38   73 1
  74   39   74 1
  75   39   75 1
  76   39   76 1
  77   40   77 1
  78   40   78 1
  79   40   79 1
  80   42   43 1
  81   42   44 1
  82   42   80 1
  83   43   81 1
  84   43   82 1
  85   43   83 1
  86   44   84 1
  87   44   85 1
  88   44   86 1
  89   45   46 1
  90   45   48 1
  91   45   47 1
  92   46   87 1
  93   46   88 1
  94   46   89 1
  95   47   90 1
  96   47   91 1
  97   47   92 1
  98   48   93 1
  99   48   94 1
 100   48   95 1

#	End of record

