#	Name: ASD01411290
#	Creating user name:	WinNT
#	Creation time:	15. 06. 2019 19:19

#	Modifying user name:	WinNT
#	Modification time:	15. 06. 2019 19:19

#	Program:	/corina/corina34_cracker 3.40 0067  02.08.2006

@<TRIPOS>MOLECULE
ASD01411290
  71   75    0    0    0
SMALL
NO_CHARGES


@<TRIPOS>ATOM
   1 C1            -0.0171     1.4065     0.0098 C.ar    
   2 C2             0.0021    -0.0041     0.0020 C.ar    
   3 C3            -1.1968    -0.7265     0.0832 C.ar    
   4 C4            -2.3888    -0.0632     0.0984 C.ar    
   5 C5            -2.4195     1.3338     0.0340 C.ar    
   6 C6            -1.2332     2.0682     0.0162 C.ar    
   7 N7             1.2949     1.8388    -0.0004 N.pl3   
   8 C8             2.1172     0.7433    -0.1047 C.2     
   9 C9             1.3598    -0.3862    -0.1044 C.2     
  10 C10            1.7305     3.2329     0.1079 C.3     
  11 C11            1.0928     4.0706    -0.9697 C.2     
  12 N12            1.3586     5.4161    -0.9873 N.am    
  13 O13            0.3643     3.5688    -1.7994 O.2     
  14 C14            0.7083     6.1620    -2.0935 C.3     
  15 C15           -2.3899     6.7789    -0.8498 C.3     
  16 C16           -3.7071     2.0602    -0.0358 C.2     
  17 O17           -4.7823     1.4953     0.0269 O.2     
  18 N18           -3.5931     3.4270    -0.1768 N.am    
  19 C19           -3.7037     6.2720    -1.4472 C.3     
  20 N20           -4.6022     5.8838    -0.3254 N.am    
  21 S21           -5.0336     4.2657    -0.3071 S.o2    
  22 C22            3.5920     0.7855    -0.2018 C.2     
  23 C23            1.8768    -1.7984    -0.2007 C.3     
  24 C24            1.4581    -2.5809     1.0457 C.3     
  25 C25            1.9830    -4.0147     0.9479 C.3     
  26 C26            1.3999    -4.6875    -0.2963 C.3     
  27 C27            1.8186    -3.9051    -1.5427 C.3     
  28 C28            1.2937    -2.4712    -1.4450 C.3     
  29 C29            4.4824     0.0044     0.4684 C.2     
  30 O30           -5.5636     3.9699    -1.5920 O.2     
  31 O31           -5.7448     4.0463     0.9034 O.2     
  32 C32           -5.0710     6.8398     0.6809 C.3     
  33 C33            4.4000     1.6747    -1.0463 C.2     
  34 C34            5.6811     1.3529    -0.8038 C.2     
  35 O35            5.7204     0.3596     0.0973 O.3     
  36 C36           -1.4986     7.3263    -1.9625 C.3     
  37 C37           -0.0423     7.3551    -1.4930 C.3     
  38 H38           -1.1767    -1.8052     0.1333 H       
  39 H39           -3.3127    -0.6191     0.1600 H       
  40 H40           -1.2635     3.1478     0.0078 H       
  41 H41            1.4445     3.6242     1.0842 H       
  42 H42            2.8147     3.2799     0.0057 H       
  43 H43            1.9263     5.8461    -0.3288 H       
  44 H44            1.4659     6.5182    -2.7917 H       
  45 H45            0.0063     5.5102    -2.6134 H       
  46 H46           -2.5999     7.5705    -0.1304 H       
  47 H47           -1.8794     5.9578    -0.3465 H       
  48 H48           -2.7322     3.8734    -0.1988 H       
  49 H49           -4.1697     7.0624    -2.0355 H       
  50 H50           -3.5103     5.4062    -2.0804 H       
  51 H51            2.9644    -1.7832    -0.2718 H       
  52 H52            1.8735    -2.1015     1.9321 H       
  53 H53            0.3705    -2.5961     1.1168 H       
  54 H54            3.0706    -3.9994     0.8768 H       
  55 H55            1.6847    -4.5721     1.8359 H       
  56 H56            1.7739    -5.7090    -0.3660 H       
  57 H57            0.3124    -4.7028    -0.2252 H       
  58 H58            2.9062    -3.8898    -1.6138 H       
  59 H59            1.4032    -4.3844    -2.4292 H       
  60 H60            0.2062    -2.4865    -1.3739 H       
  61 H61            1.5920    -1.9138    -2.3329 H       
  62 H62            4.2337    -0.7700     1.1790 H       
  63 H63           -6.0066     7.2887     0.3475 H       
  64 H64           -5.2331     6.3220     1.6263 H       
  65 H65           -4.3221     7.6199     0.8177 H       
  66 H66            4.0377     2.4329    -1.7247 H       
  67 H67            6.5416     1.8173    -1.2625 H       
  68 H68           -1.5832     6.6877    -2.8418 H       
  69 H69           -1.8171     8.3369    -2.2178 H       
  70 H70           -0.0097     7.2952    -0.4051 H       
  71 H71            0.4272     8.2826    -1.8208 H       
@<TRIPOS>BOND
   1    1    2 ar
   2    1    7 1
   3    1    6 ar
   4    2    3 ar
   5    2    9 1
   6    3    4 ar
   7    3   38 1
   8    4    5 ar
   9    4   39 1
  10    5    6 ar
  11    5   16 1
  12    6   40 1
  13    7    8 1
  14    7   10 1
  15    8    9 2
  16    8   22 1
  17    9   23 1
  18   10   11 1
  19   10   41 1
  20   10   42 1
  21   11   12 am
  22   11   13 2
  23   12   14 1
  24   12   43 1
  25   14   37 1
  26   14   44 1
  27   14   45 1
  28   15   19 1
  29   15   36 1
  30   15   46 1
  31   15   47 1
  32   16   17 2
  33   16   18 am
  34   18   21 am
  35   18   48 1
  36   19   20 1
  37   19   49 1
  38   19   50 1
  39   20   21 am
  40   20   32 1
  41   21   30 2
  42   21   31 2
  43   22   33 1
  44   22   29 2
  45   23   24 1
  46   23   28 1
  47   23   51 1
  48   24   25 1
  49   24   52 1
  50   24   53 1
  51   25   26 1
  52   25   54 1
  53   25   55 1
  54   26   27 1
  55   26   56 1
  56   26   57 1
  57   27   28 1
  58   27   58 1
  59   27   59 1
  60   28   60 1
  61   28   61 1
  62   29   35 1
  63   29   62 1
  64   32   63 1
  65   32   64 1
  66   32   65 1
  67   33   34 2
  68   33   66 1
  69   34   35 1
  70   34   67 1
  71   36   37 1
  72   36   68 1
  73   36   69 1
  74   37   70 1
  75   37   71 1

#	End of record

