#	Name: ASD02198271
#	Creating user name:	WinNT
#	Creation time:	15. 06. 2019 20:19

#	Modifying user name:	WinNT
#	Modification time:	15. 06. 2019 20:19

#	Program:	/corina/corina34_cracker 3.40 0067  02.08.2006

@<TRIPOS>MOLECULE
ASD02198271
  37   39    0    0    0
SMALL
NO_CHARGES


@<TRIPOS>ATOM
   1 C1            -0.0144     1.3309    -0.3865 C.2     
   2 C2             0.0021    -0.0071    -0.0526 C.2     
   3 S3             1.5707     1.9450    -0.5166 S.3     
   4 C4             2.2775     0.3874    -0.1179 C.2     
   5 C5             1.2819    -0.5364     0.0980 C.2     
   6 N6             1.5267    -1.8590     0.4317 N.pl3   
   7 C7             3.6574     0.1239    -0.0318 C.2     
   8 N8            -1.1560     2.0692    -0.5926 N.3     
   9 C9            -0.8288     3.4613    -0.9333 C.3     
  10 C10            4.6310     1.2328    -0.1458 C.ar    
  11 O11            4.0507    -1.0179     0.1368 O.2     
  12 C12            4.2820     2.5175     0.2726 C.ar    
  13 C13            5.1942     3.5468     0.1636 C.ar    
  14 C14            6.4525     3.3075    -0.3596 C.ar    
  15 C15            6.8047     2.0360    -0.7762 C.ar    
  16 C16            5.9038     0.9968    -0.6668 C.ar    
  17 C17           -2.1228     4.2304    -1.2122 C.3     
  18 O18           -2.9808     4.1395    -0.0716 O.3     
  19 C19           -3.3203     2.7975     0.2879 C.3     
  20 C20           -2.0384     2.0139     0.5820 C.3     
  21 C21           -1.1889    -0.7824     0.1234 C.1     
  22 N22           -2.1338    -1.3974     0.2631 N.1     
  23 H23            2.4392    -2.1750     0.5241 H       
  24 H24            0.7857    -2.4688     0.5730 H       
  25 H25           -0.3018     3.9258    -0.0998 H       
  26 H26           -0.1960     3.4798    -1.8206 H       
  27 H27            3.2999     2.7056     0.6805 H       
  28 H28            4.9253     4.5415     0.4870 H       
  29 H29            7.1627     4.1168    -0.4435 H       
  30 H30            7.7883     1.8558    -1.1841 H       
  31 H31            6.1801     0.0047    -0.9920 H       
  32 H32           -1.8891     5.2767    -1.4094 H       
  33 H33           -2.6230     3.7989    -2.0792 H       
  34 H34           -3.9526     2.8075     1.1757 H       
  35 H35           -3.8553     2.3244    -0.5355 H       
  36 H36           -2.2885     0.9758     0.8009 H       
  37 H37           -1.5307     2.4552     1.4397 H       
@<TRIPOS>BOND
   1    1    2 2
   2    1    3 1
   3    1    8 1
   4    2   21 1
   5    2    5 1
   6    3    4 1
   7    4    5 2
   8    4    7 1
   9    5    6 1
  10    6   23 1
  11    6   24 1
  12    7   10 1
  13    7   11 2
  14    8    9 1
  15    8   20 1
  16    9   17 1
  17    9   25 1
  18    9   26 1
  19   10   12 ar
  20   10   16 ar
  21   12   13 ar
  22   12   27 1
  23   13   14 ar
  24   13   28 1
  25   14   15 ar
  26   14   29 1
  27   15   16 ar
  28   15   30 1
  29   16   31 1
  30   17   18 1
  31   17   32 1
  32   17   33 1
  33   18   19 1
  34   19   20 1
  35   19   34 1
  36   19   35 1
  37   20   36 1
  38   20   37 1
  39   21   22 3

#	End of record

