#	Name: ASD03091248
#	Creating user name:	WinNT
#	Creation time:	15. 06. 2019 20:30

#	Modifying user name:	WinNT
#	Modification time:	15. 06. 2019 20:30

#	Program:	/corina/corina34_cracker 3.40 0067  02.08.2006

@<TRIPOS>MOLECULE
ASD03091248
  62   67    0    0    0
SMALL
NO_CHARGES


@<TRIPOS>ATOM
   1 N1             0.0277     1.3405     0.0756 N.2     
   2 C2            -0.0373     0.0465    -0.0004 C.2     
   3 N3             1.0591    -0.7560    -0.0463 N.am    
   4 C4             2.3034    -0.2244    -0.0137 C.2     
   5 C5             2.4119     1.2395     0.0723 C.ar    
   6 C6             3.6454     1.8856     0.1120 C.ar    
   7 C7             3.6848     3.2672     0.1936 C.ar    
   8 C8             2.5022     4.0056     0.2356 C.ar    
   9 C9             1.2863     3.3850     0.1978 C.ar    
  10 C10            1.2175     1.9924     0.1152 C.ar    
  11 O11            3.2941    -0.9307    -0.0537 O.2     
  12 C12            0.8924    -2.2090    -0.1313 C.3     
  13 C13            1.0088    -2.8184     1.2672 C.3     
  14 C14            0.8477    -4.3476     1.2882 C.3     
  15 C15            1.9813    -4.3741     2.3270 C.3     
  16 C16            2.4604    -3.0439     1.7220 C.3     
  17 C17            0.1450    -2.0968     2.3036 C.3     
  18 O18            0.3892    -0.6907     2.2313 O.3     
  19 C19           -1.3981    -0.5998    -0.0393 C.3     
  20 C20           -2.5672     0.1781     0.5683 C.3     
  21 C21           -2.4536     0.0303    -0.9503 C.3     
  22 N22            7.6864     4.5730    -0.5907 N.3     
  23 C23            7.3693     3.6362     0.4980 C.3     
  24 C24            6.0264     2.9652     0.2553 C.3     
  25 N25            4.9169     3.9258     0.2345 N.3     
  26 C26            5.0560     4.8535    -0.8968 C.3     
  27 C27            5.7692     6.1234    -0.4573 C.3     
  28 C28            7.2546     5.9304    -0.2275 C.3     
  29 C29            7.2591     4.1819    -1.9169 C.3     
  30 C30            5.7452     4.1387    -2.0447 C.3     
  31 H31            4.5616     1.3146     0.0799 H       
  32 H32            2.5487     5.0827     0.2992 H       
  33 H33            0.3792     3.9701     0.2319 H       
  34 H34           -0.0888    -2.4384    -0.5471 H       
  35 H35            1.6665    -2.6265    -0.7752 H       
  36 H36           -0.1129    -4.6801     1.6817 H       
  37 H37            1.1086    -4.8272     0.3448 H       
  38 H38            1.6329    -4.2854     3.3560 H       
  39 H39            2.6835    -5.1958     2.1861 H       
  40 H40            3.1623    -3.1670     0.8972 H       
  41 H41            2.8018    -2.3239     2.4657 H       
  42 H42           -0.9075    -2.2937     2.0997 H       
  43 H43            0.3958    -2.4584     3.3008 H       
  44 H44           -0.1260    -0.1691     2.8618 H       
  45 H45           -1.4066    -1.6846     0.0660 H       
  46 H46           -3.3449    -0.3951     1.0730 H       
  47 H47           -2.3520     1.1572     0.9962 H       
  48 H48           -2.1637     0.9122    -1.5215 H       
  49 H49           -3.1566    -0.6401    -1.4447 H       
  50 H50            8.1467     2.8742     0.5538 H       
  51 H51            7.3332     4.1811     1.4414 H       
  52 H52            6.0600     2.4439    -0.7013 H       
  53 H53            5.8478     2.2366     1.0462 H       
  54 H54            4.0560     5.1262    -1.2340 H       
  55 H55            5.6304     6.8854    -1.2242 H       
  56 H56            5.3153     6.4766     0.4686 H       
  57 H57            7.4774     6.1049     0.8251 H       
  58 H58            7.8048     6.6523    -0.8309 H       
  59 H59            7.6547     4.8947    -2.6404 H       
  60 H60            7.6610     3.1937    -2.1407 H       
  61 H61            5.4205     3.0983    -2.0602 H       
  62 H62            5.4552     4.6127    -2.9824 H       
@<TRIPOS>BOND
   1    1    2 2
   2    1   10 1
   3    2    3 1
   4    2   19 1
   5    3    4 am
   6    3   12 1
   7    4    5 1
   8    4   11 2
   9    5    6 ar
  10    5   10 ar
  11    6    7 ar
  12    6   31 1
  13    7    8 ar
  14    7   25 1
  15    8    9 ar
  16    8   32 1
  17    9   10 ar
  18    9   33 1
  19   12   13 1
  20   12   34 1
  21   12   35 1
  22   13   14 1
  23   13   16 1
  24   13   17 1
  25   14   15 1
  26   14   36 1
  27   14   37 1
  28   15   16 1
  29   15   38 1
  30   15   39 1
  31   16   40 1
  32   16   41 1
  33   17   18 1
  34   17   42 1
  35   17   43 1
  36   18   44 1
  37   19   20 1
  38   19   21 1
  39   19   45 1
  40   20   21 1
  41   20   46 1
  42   20   47 1
  43   21   48 1
  44   21   49 1
  45   22   23 1
  46   22   28 1
  47   22   29 1
  48   23   24 1
  49   23   50 1
  50   23   51 1
  51   24   25 1
  52   24   52 1
  53   24   53 1
  54   25   26 1
  55   26   27 1
  56   26   30 1
  57   26   54 1
  58   27   28 1
  59   27   55 1
  60   27   56 1
  61   28   57 1
  62   28   58 1
  63   29   30 1
  64   29   59 1
  65   29   60 1
  66   30   61 1
  67   30   62 1

#	End of record

