#	Name: ASD03570035
#	Creating user name:	WinNT
#	Creation time:	15. 06. 2019 20:43

#	Modifying user name:	WinNT
#	Modification time:	15. 06. 2019 20:43

#	Program:	/corina/corina34_cracker 3.40 0067  02.08.2006

@<TRIPOS>MOLECULE
ASD03570035
  38   38    0    0    0
SMALL
NO_CHARGES


@<TRIPOS>ATOM
   1 C1            -0.1086     1.5552     0.1176 C.ar    
   2 C2            -0.0418     0.1730     0.0516 C.ar    
   3 C3            -1.2036    -0.5760     0.0353 C.ar    
   4 C4            -2.4381     0.0578     0.0857 C.ar    
   5 C5            -2.5032     1.4434     0.1524 C.ar    
   6 C6            -1.3393     2.1890     0.1733 C.ar    
   7 Cl7            1.5018    -0.6189    -0.0114 Cl      
   8 N8            -3.6142    -0.6981     0.0689 N.pl3   
   9 N9            -4.8593    -0.0577     0.1198 N.pl3   
  10 C10           -6.0364    -0.8143     0.1030 C.2     
  11 C11           -5.9729    -2.1470     0.0384 C.2     
  12 C12           -7.2318    -2.9677     0.1513 C.3     
  13 C13           -7.3869    -3.8381    -1.0974 C.3     
  14 Cl14          -1.4200     3.9211     0.2572 Cl      
  15 F15            1.0278     2.2856     0.1334 F       
  16 C16           -7.3469    -0.1404     0.1566 C.2     
  17 O17           -7.8654     0.2620    -0.8660 O.2     
  18 O18           -7.9695     0.0293     1.3398 O.3     
  19 C19           -9.8051     0.8008     2.7418 C.3     
  20 C20           -9.2566     0.7011     1.3170 C.3     
  21 C21           -8.6457    -4.6588    -0.9845 C.2     
  22 O22           -9.3470    -4.5579    -0.0057 O.2     
  23 O23           -8.9880    -5.5019    -1.9713 O.3     
  24 H24           -1.1511    -1.6535    -0.0169 H       
  25 H25           -3.4625     1.9380     0.1913 H       
  26 H26           -3.5681    -1.6658     0.0220 H       
  27 H27           -4.9054     0.9100     0.1667 H       
  28 H28           -5.0194    -2.6364    -0.0947 H       
  29 H29           -7.1720    -3.6052     1.0334 H       
  30 H30           -8.0916    -2.3037     0.2405 H       
  31 H31           -7.4466    -3.2006    -1.9795 H       
  32 H32           -6.5270    -4.5021    -1.1865 H       
  33 H33          -10.7713     1.3051     2.7247 H       
  34 H34           -9.9250    -0.2003     3.1559 H       
  35 H35           -9.1097     1.3688     3.3599 H       
  36 H36           -9.1367     1.7022     0.9029 H       
  37 H37           -9.9519     0.1331     0.6989 H       
  38 H38           -9.8042    -6.0070    -1.8538 H       
@<TRIPOS>BOND
   1    1    2 ar
   2    1   15 1
   3    1    6 ar
   4    2    3 ar
   5    2    7 1
   6    3    4 ar
   7    3   24 1
   8    4    5 ar
   9    4    8 1
  10    5    6 ar
  11    5   25 1
  12    6   14 1
  13    8    9 1
  14    8   26 1
  15    9   10 1
  16    9   27 1
  17   10   11 2
  18   10   16 1
  19   11   12 1
  20   11   28 1
  21   12   13 1
  22   12   29 1
  23   12   30 1
  24   13   21 1
  25   13   31 1
  26   13   32 1
  27   16   17 2
  28   16   18 1
  29   18   20 1
  30   19   20 1
  31   19   33 1
  32   19   34 1
  33   19   35 1
  34   20   36 1
  35   20   37 1
  36   21   22 2
  37   21   23 1
  38   23   38 1

#	End of record

