#	Name: ASD00842083
#	Creating user name:	WinNT
#	Creation time:	15. 06. 2019 18:43

#	Modifying user name:	WinNT
#	Modification time:	15. 06. 2019 18:43

#	Program:	/corina/corina34_cracker 3.40 0067  02.08.2006

@<TRIPOS>MOLECULE
ASD00842083
  91   96    0    0    0
SMALL
NO_CHARGES


@<TRIPOS>ATOM
   1 F1             6.0175    -1.7141    -2.1435 F       
   2 C2             0.9005     1.5156    -0.6771 C.ar    
   3 C3             1.2289     0.1764    -0.8272 C.ar    
   4 C4             1.2049    -0.6689     0.2729 C.ar    
   5 C5             0.8542    -0.1752     1.5143 C.ar    
   6 C6             0.5268     1.1603     1.6612 C.ar    
   7 C7             0.5503     2.0047     0.5669 C.ar    
   8 C8             1.5607    -2.1246     0.1133 C.3     
   9 C9             1.3407    -2.8698     1.4125 C.2     
  10 C10            0.7386    -2.7556    -1.0123 C.3     
  11 C11           -0.7277    -2.5214    -0.7555 C.2     
  12 N12           -1.6499    -3.0525    -1.5825 N.am    
  13 O13           -1.0780    -1.8551     0.1955 O.2     
  14 C14           -3.0753    -2.7376    -1.4153 C.3     
  15 C15           -3.8613    -4.0485    -1.3137 C.3     
  16 C16           -3.5491    -4.9214    -2.5314 C.3     
  17 C17           -2.0555    -5.2542    -2.5532 C.3     
  18 C18           -1.2484    -3.9525    -2.6722 C.3     
  19 N19           -4.3266    -6.1654    -2.4540 N.3     
  20 C20           -4.1433    -6.9772    -3.6653 C.3     
  21 C21           -4.9038    -8.2965    -3.5118 C.3     
  22 N22           -6.3274    -8.0143    -3.2809 N.3     
  23 C23           -6.5107    -7.2025    -2.0697 C.3     
  24 C24           -5.7502    -5.8832    -2.2231 C.3     
  25 C25           -7.1049    -9.2583    -3.2035 C.3     
  26 O26            0.2870    -2.9997     1.9990 O.2     
  27 N27            2.5319    -3.3610     1.7936 N.am    
  28 C28            3.0398    -2.2818    -0.1552 C.ar    
  29 C29            3.5501    -3.0339     0.8956 C.ar    
  30 C30            3.8585    -1.8402    -1.1700 C.ar    
  31 C31            5.2101    -2.1458    -1.1500 C.ar    
  32 C32            5.7306    -2.8952    -0.1072 C.ar    
  33 C33            4.9093    -3.3382     0.9106 C.ar    
  34 Cl34           7.4234    -3.2792    -0.0802 Cl      
  35 C35            2.5332    -5.9444     2.7425 C.ar    
  36 C36            1.2866    -6.3911     2.3297 C.ar    
  37 C37            3.5938    -6.8273     2.8125 C.ar    
  38 C38            3.4133    -8.1547     2.4711 C.ar    
  39 C39            2.1715    -8.6024     2.0592 C.ar    
  40 C40            1.1080    -7.7240     1.9880 C.ar    
  41 H41            2.0331    -9.6399     1.7930 H       
  42 O42            0.2418    -5.5248     2.2604 O.3     
  43 C43           -1.0126    -6.0546     1.8270 C.3     
  44 C44           -2.0597    -4.9391     1.8128 C.3     
  45 S45            2.7659    -4.2511     3.1704 S.o2    
  46 O46            4.1378    -4.1084     3.5121 O.2     
  47 O47            1.7056    -3.9109     4.0531 O.2     
  48 O48            1.5732    -0.3071    -2.0497 O.3     
  49 C49            1.9921    -0.0925    -4.4201 C.3     
  50 C50            1.4677     0.5913    -3.1559 C.3     
  51 H51            0.9227     2.1766    -1.5309 H       
  52 H52            0.8354    -0.8327     2.3708 H       
  53 H53            0.2521     1.5443     2.6326 H       
  54 H54            0.2942     3.0473     0.6842 H       
  55 H55            1.0177    -2.3029    -1.9638 H       
  56 H56            0.9346    -3.8272    -1.0485 H       
  57 H57           -3.2165    -2.1554    -0.5046 H       
  58 H58           -3.4266    -2.1665    -2.2747 H       
  59 H59           -3.5731    -4.5760    -0.4045 H       
  60 H60           -4.9291    -3.8313    -1.2860 H       
  61 H61           -3.8146    -4.3835    -3.4415 H       
  62 H62           -1.7843    -5.7704    -1.6322 H       
  63 H63           -1.8380    -5.8952    -3.4076 H       
  64 H64           -1.4520    -3.4831    -3.6347 H       
  65 H65           -0.1843    -4.1733    -2.5888 H       
  66 H66           -4.5278    -6.4341    -4.5286 H       
  67 H67           -3.0825    -7.1834    -3.8078 H       
  68 H68           -4.7931    -8.8879    -4.4207 H       
  69 H69           -4.5012    -8.8520    -2.6649 H       
  70 H70           -7.5715    -6.9963    -1.9272 H       
  71 H71           -6.1263    -7.7456    -1.2063 H       
  72 H72           -5.8609    -5.2918    -1.3142 H       
  73 H73           -6.1529    -5.3277    -3.0701 H       
  74 H74           -6.7319    -9.8693    -2.3816 H       
  75 H75           -8.1548    -9.0205    -3.0322 H       
  76 H76           -7.0049    -9.8080    -4.1394 H       
  77 H77            3.4480    -1.2567    -1.9808 H       
  78 H78            5.3218    -3.9219     1.7203 H       
  79 H79            4.5646    -6.4800     3.1339 H       
  80 H80            4.2437    -8.8430     2.5258 H       
  81 H81            0.1382    -8.0743     1.6669 H       
  82 H82           -0.9060    -6.4658     0.8232 H       
  83 H83           -1.3300    -6.8421     2.5105 H       
  84 H84           -2.1663    -4.5279     2.8166 H       
  85 H85           -1.7424    -4.1516     1.1293 H       
  86 H86           -3.0166    -5.3433     1.4822 H       
  87 H87            3.0075    -0.4486    -4.2460 H       
  88 H88            1.3491    -0.9363    -4.6702 H       
  89 H89            1.9935     0.6203    -5.2448 H       
  90 H90            0.4236     0.8695    -3.2998 H       
  91 H91            2.0576     1.4856    -2.9552 H       
@<TRIPOS>BOND
   1    1   31 1
   2    2    3 ar
   3    2    7 ar
   4    2   51 1
   5    3    4 ar
   6    3   48 1
   7    4    5 ar
   8    4    8 1
   9    5    6 ar
  10    5   52 1
  11    6    7 ar
  12    6   53 1
  13    7   54 1
  14    8    9 1
  15    8   10 1
  16    8   28 1
  17    9   26 2
  18    9   27 am
  19   10   11 1
  20   10   55 1
  21   10   56 1
  22   11   12 am
  23   11   13 2
  24   12   14 1
  25   12   18 1
  26   14   15 1
  27   14   57 1
  28   14   58 1
  29   15   16 1
  30   15   59 1
  31   15   60 1
  32   16   17 1
  33   16   19 1
  34   16   61 1
  35   17   18 1
  36   17   62 1
  37   17   63 1
  38   18   64 1
  39   18   65 1
  40   19   20 1
  41   19   24 1
  42   20   21 1
  43   20   66 1
  44   20   67 1
  45   21   22 1
  46   21   68 1
  47   21   69 1
  48   22   23 1
  49   22   25 1
  50   23   24 1
  51   23   70 1
  52   23   71 1
  53   24   72 1
  54   24   73 1
  55   25   74 1
  56   25   75 1
  57   25   76 1
  58   27   45 am
  59   27   29 1
  60   28   29 ar
  61   28   30 ar
  62   29   33 ar
  63   30   31 ar
  64   30   77 1
  65   31   32 ar
  66   32   33 ar
  67   32   34 1
  68   33   78 1
  69   35   36 ar
  70   35   37 ar
  71   35   45 1
  72   36   42 1
  73   36   40 ar
  74   37   38 ar
  75   37   79 1
  76   38   39 ar
  77   38   80 1
  78   39   40 ar
  79   39   41 1
  80   40   81 1
  81   42   43 1
  82   43   44 1
  83   43   82 1
  84   43   83 1
  85   44   84 1
  86   44   85 1
  87   44   86 1
  88   45   46 2
  89   45   47 2
  90   48   50 1
  91   49   50 1
  92   49   87 1
  93   49   88 1
  94   49   89 1
  95   50   90 1
  96   50   91 1

#	End of record

