#	Name: ASD05720227
#	Creating user name:	WinNT
#	Creation time:	15. 06. 2019 21:02

#	Modifying user name:	WinNT
#	Modification time:	15. 06. 2019 21:02

#	Program:	/corina/corina34_cracker 3.40 0067  02.08.2006

@<TRIPOS>MOLECULE
ASD05720227
  90   94    0    0    0
SMALL
NO_CHARGES


@<TRIPOS>ATOM
   1 C1            -1.2964     1.5170     1.1040 C.3     
   2 C2             0.1492     1.9412     0.8374 C.3     
   3 C3             0.2075     3.4570     0.6382 C.3     
   4 C4             1.6531     3.8812     0.3715 C.3     
   5 N5            -1.3713     0.0517     1.1763 N.3     
   6 N6             0.6402     1.2709    -0.3693 N.pl3   
   7 C7             4.1637     1.2745     0.2309 C.2     
   8 N8             2.8497     1.4684     0.3819 N.2     
   9 C9             1.9971     1.0628    -0.5415 C.2     
  10 C10            2.4697     0.4169    -1.7032 C.2     
  11 C11            3.7981     0.2198    -1.8581 C.2     
  12 N12            4.6561     0.6511    -0.8845 N.pl3   
  13 N13            6.0492     0.5917    -0.7653 N.2     
  14 C14            6.4112     1.1481     0.3640 C.2     
  15 C15            5.2664     1.6011     1.0321 C.2     
  16 C16            5.2282     2.2934     2.3390 C.ar    
  17 C17            5.9142     1.7595     3.4323 C.ar    
  18 C18            5.8784     2.4030     4.6481 C.ar    
  19 C19            5.1563     3.5907     4.7888 C.ar    
  20 C20            4.4705     4.1248     3.6949 C.ar    
  21 C21            4.5109     3.4837     2.4780 C.ar    
  22 C22            5.1173     4.2816     6.0942 C.2     
  23 N23            4.7684     5.5340     6.2928 N.2     
  24 C24            4.8516     5.8137     7.5988 C.2     
  25 C25            5.2654     4.7057     8.2460 C.2     
  26 N26            5.4316     3.7276     7.3013 N.pl3   
  27 C27            5.8668     2.3494     7.5410 C.3     
  28 O28            5.9665     2.1192     8.9478 O.3     
  29 C29            6.3862     0.7973     9.2921 C.3     
  30 C30            6.4575     0.6653    10.8147 C.3     
  31 Si31           7.0047    -1.0581    11.2636 Si      
  32 C32            8.6865    -1.3859    10.5324 C.3     
  33 C33            7.0915    -1.2189    13.1176 C.3     
  34 C34            5.7831    -2.2928    10.5897 C.3     
  35 C35           -0.6672     3.8487    -0.5544 C.3     
  36 C36           -2.7479    -0.3931     1.4319 C.3     
  37 O37           -4.1677    -3.7566     1.0414 O.3     
  38 C38           -3.0021    -3.7943     0.2076 C.3     
  39 O39           -2.3639    -2.5068     0.2452 O.3     
  40 C40           -2.7857    -1.9211     1.5004 C.3     
  41 C41           -4.2426    -2.4352     1.6137 C.3     
  42 C42           -2.0355    -4.8624     0.7233 C.3     
  43 C43           -3.4088    -4.1246    -1.2299 C.3     
  44 H44           -1.6323     1.9450     2.0485 H       
  45 H45           -1.9348     1.8740     0.2959 H       
  46 H46            0.7724     1.6621     1.6870 H       
  47 H47           -0.1578     3.9557     1.5360 H       
  48 H48            2.2763     3.6022     1.2212 H       
  49 H49            2.0184     3.3825    -0.5262 H       
  50 H50            1.6946     4.9611     0.2296 H       
  51 H51           -1.0048    -0.3710     0.3367 H       
  52 H52            0.0139     0.9730    -1.0475 H       
  53 H53            1.7769     0.0829    -2.4614 H       
  54 H54            4.1776    -0.2732    -2.7410 H       
  55 H55            7.4263     1.2449     0.7200 H       
  56 H56            6.4724     0.8414     3.3235 H       
  57 H57            6.4083     1.9898     5.4936 H       
  58 H58            3.9122     5.0429     3.8034 H       
  59 H59            3.9844     3.8989     1.6313 H       
  60 H60            4.6260     6.7655     8.0566 H       
  61 H61            5.4312     4.6069     9.3086 H       
  62 H62            5.1413     1.6593     7.1104 H       
  63 H63            6.8400     2.1898     7.0768 H       
  64 H64            5.6715     0.0749     8.8978 H       
  65 H65            7.3702     0.6055     8.8643 H       
  66 H66            7.1722     1.3877    11.2090 H       
  67 H67            5.4735     0.8571    11.2425 H       
  68 H68            9.4012    -0.6635    10.9266 H       
  69 H69            9.0066    -2.3942    10.7950 H       
  70 H70            8.6357    -1.2918     9.4476 H       
  71 H71            6.1075    -1.0271    13.5454 H       
  72 H72            7.4116    -2.2272    13.3802 H       
  73 H73            7.8062    -0.4965    13.5119 H       
  74 H74            5.7323    -2.1987     9.5050 H       
  75 H75            6.1032    -3.3011    10.8523 H       
  76 H76            4.7991    -2.1010    11.0175 H       
  77 H77           -1.6971     3.5465    -0.3645 H       
  78 H78           -0.6257     4.9286    -0.6963 H       
  79 H79           -0.3020     3.3500    -1.4522 H       
  80 H80           -3.0938     0.0217     2.3787 H       
  81 H81           -3.3963    -0.0493     0.6260 H       
  82 H82           -2.1769    -2.2884     2.3265 H       
  83 H83           -4.9198    -1.8040     1.0382 H       
  84 H84           -4.5537    -2.4845     2.6572 H       
  85 H85           -2.5169    -5.8394     0.6800 H       
  86 H86           -1.1392    -4.8712     0.1032 H       
  87 H87           -1.7619    -4.6375     1.7542 H       
  88 H88           -4.1129    -3.3745    -1.5898 H       
  89 H89           -2.5239    -4.1272    -1.8664 H       
  90 H90           -3.8792    -5.1075    -1.2577 H       
@<TRIPOS>BOND
   1    1    5 1
   2    1    2 1
   3    1   44 1
   4    1   45 1
   5    2    3 1
   6    2    6 1
   7    2   46 1
   8    3    4 1
   9    3   35 1
  10    3   47 1
  11    4   48 1
  12    4   49 1
  13    4   50 1
  14    5   36 1
  15    5   51 1
  16    6    9 1
  17    6   52 1
  18    7    8 1
  19    7   12 1
  20    7   15 2
  21    8    9 2
  22    9   10 1
  23   10   11 2
  24   10   53 1
  25   11   12 1
  26   11   54 1
  27   12   13 1
  28   13   14 2
  29   14   15 1
  30   14   55 1
  31   15   16 1
  32   16   17 ar
  33   16   21 ar
  34   17   18 ar
  35   17   56 1
  36   18   19 ar
  37   18   57 1
  38   19   20 ar
  39   19   22 1
  40   20   21 ar
  41   20   58 1
  42   21   59 1
  43   22   23 2
  44   22   26 1
  45   23   24 1
  46   24   25 2
  47   24   60 1
  48   25   26 1
  49   25   61 1
  50   26   27 1
  51   27   28 1
  52   27   62 1
  53   27   63 1
  54   28   29 1
  55   29   30 1
  56   29   64 1
  57   29   65 1
  58   30   31 1
  59   30   66 1
  60   30   67 1
  61   31   32 1
  62   31   33 1
  63   31   34 1
  64   32   68 1
  65   32   69 1
  66   32   70 1
  67   33   71 1
  68   33   72 1
  69   33   73 1
  70   34   74 1
  71   34   75 1
  72   34   76 1
  73   35   77 1
  74   35   78 1
  75   35   79 1
  76   36   40 1
  77   36   80 1
  78   36   81 1
  79   37   38 1
  80   37   41 1
  81   38   39 1
  82   38   42 1
  83   38   43 1
  84   39   40 1
  85   40   41 1
  86   40   82 1
  87   41   83 1
  88   41   84 1
  89   42   85 1
  90   42   86 1
  91   42   87 1
  92   43   88 1
  93   43   89 1
  94   43   90 1

#	End of record

