#	Name: ASD05060027
#	Creating user name:	WinNT
#	Creation time:	15. 06. 2019 20:56

#	Modifying user name:	WinNT
#	Modification time:	15. 06. 2019 20:56

#	Program:	/corina/corina34_cracker 3.40 0067  02.08.2006

@<TRIPOS>MOLECULE
ASD05060027
 126  126    0    0    0
SMALL
NO_CHARGES


@<TRIPOS>ATOM
   1 N1            -1.9701     2.5975    -1.9883 N.3     
   2 N2            -2.2923     1.3071    -2.5755 N.3     
   3 C3            -3.7357     1.1861    -2.8209 C.3     
   4 C4            -4.4210     0.7179    -1.5631 C.2     
   5 N5            -5.5891     1.3183    -1.1877 N.am    
   6 C6            -6.1977     0.8004     0.0587 C.3     
   7 C7            -7.1116     1.8573     0.6234 C.2     
   8 N8            -7.2731     1.9404     1.9724 N.am    
   9 C9            -8.1793     2.9965     2.4655 C.3     
  10 C10           -7.4745     3.7796     3.5428 C.2     
  11 N11           -7.6663     5.1304     3.6062 N.am    
  12 C12           -6.9423     5.8248     4.6951 C.3     
  13 C13           -6.1382     6.9509     4.0978 C.2     
  14 N14           -4.9688     7.3156     4.6913 N.am    
  15 C15           -4.2248     8.4240     4.0606 C.3     
  16 C16           -2.8020     7.9848     3.8284 C.2     
  17 N17           -2.0634     8.6253     2.8746 N.am    
  18 C18           -0.6776     8.1319     2.7060 C.3     
  19 C19           -0.4561     7.8086     1.2508 C.2     
  20 C20            0.2526     6.5597     0.8664 C.2     
  21 C21            0.4713     6.2349    -0.5890 C.3     
  22 N22            0.2915     4.7826    -0.7854 N.am    
  23 C23           -0.3366     4.3956    -1.9291 C.2     
  24 C24           -0.5519     2.9260    -2.1849 C.3     
  25 O25           -0.7182     5.2217    -2.7309 O.2     
  26 O26            0.6535     5.8054     1.7204 O.2     
  27 O27           -0.8548     8.5640     0.3968 O.2     
  28 O28           -2.3215     7.0796     4.4769 O.2     
  29 O29           -6.5274     7.5237     3.1021 O.2     
  30 O30           -6.7498     3.2208     4.3387 O.2     
  31 O31           -7.6954     2.6231    -0.1139 O.2     
  32 O32           -3.9443    -0.1761    -0.8964 O.2     
  33 C33            0.3100     9.2137     3.1479 C.3     
  34 C34            0.1519     9.4664     4.6486 C.3     
  35 S35            1.3229    10.7489     5.1726 S.3     
  36 C36            0.9891    10.9052     6.9487 C.3     
  37 C37            0.3006     2.1088    -1.2120 C.3     
  38 C38           -4.2991     2.5479    -3.2321 C.3     
  39 C39           -3.7820     2.9143    -4.6246 C.3     
  40 C40           -4.5992     4.0821    -5.1811 C.3     
  41 C41           -2.3099     3.3207    -4.5314 C.3     
  42 C42           -8.5521     3.9313     1.3130 C.3     
  43 C43           -7.2777     4.4903     0.6772 C.3     
  44 C44           -7.6127     5.0999    -0.6856 C.3     
  45 C45           -9.3474     3.1536     0.2625 C.3     
  46 C46           -7.0031    -0.4634    -0.2497 C.3     
  47 C47           -6.0570    -1.5677    -0.7255 C.3     
  48 C48           -6.8624    -2.8315    -1.0339 C.3     
  49 C49           -5.9163    -3.9358    -1.5096 C.3     
  50 N50           -6.6896    -5.1491    -1.8057 N.3     
  51 C51           -4.8754     8.7826     2.7230 C.3     
  52 C52           -4.7914     7.6014     1.7909 C.2     
  53 O53           -4.2631     6.5740     2.1601 O.2     
  54 N54           -5.3032     7.6868     0.5471 N.am    
  55 C55           -8.6782     5.2542     6.3714 C.2     
  56 C56           -7.9471     6.3890     5.7015 C.3     
  57 O57           -8.4219     4.1115     6.0743 O.2     
  58 O58           -9.6142     5.5130     7.2981 O.3     
  59 C59           -1.9345     6.5114    -1.1229 C.2     
  60 C60           -0.5442     6.9973    -1.4426 C.3     
  61 O61           -2.0919     5.5975    -0.3484 O.2     
  62 O62           -2.9979     7.0940    -1.6987 O.3     
  63 H63           -2.5643     3.3229    -2.3610 H       
  64 H64           -1.7673     1.1546    -3.4236 H       
  65 H65           -3.9093     0.4648    -3.6194 H       
  66 H66           -5.9924     2.0346    -1.7026 H       
  67 H67           -5.4140     0.5707     0.7805 H       
  68 H68           -6.8165     1.3365     2.5787 H       
  69 H69           -9.0811     2.5418     2.8754 H       
  70 H70           -8.2376     5.6026     2.9805 H       
  71 H71           -6.2743     5.1237     5.1953 H       
  72 H72           -4.6408     6.8698     5.4879 H       
  73 H73           -4.2360     9.2927     4.7189 H       
  74 H74           -2.4223     9.3534     2.3436 H       
  75 H75           -0.5334     7.2338     3.3065 H       
  76 H76            1.4825     6.5203    -0.8790 H       
  77 H77            0.6054     4.1373    -0.1327 H       
  78 H78           -0.2626     2.6892    -3.2087 H       
  79 H79            1.3278     8.8831     2.9404 H       
  80 H80            0.1086    10.1348     2.6012 H       
  81 H81           -0.8658     9.7969     4.8561 H       
  82 H82            0.3533     8.5452     5.1954 H       
  83 H83           -0.0496    11.1998     7.0987 H       
  84 H84            1.1696     9.9480     7.4379 H       
  85 H85            1.6467    11.6618     7.3768 H       
  86 H86            0.1448     1.0459    -1.3969 H       
  87 H87            1.3529     2.3525    -1.3579 H       
  88 H88            0.0113     2.3457    -0.1881 H       
  89 H89           -5.3879     2.5003    -3.2497 H       
  90 H90           -3.9800     3.3045    -2.5153 H       
  91 H91           -3.8803     2.0540    -5.2867 H       
  92 H92           -4.5009     4.9424    -4.5190 H       
  93 H93           -4.2308     4.3431    -6.1732 H       
  94 H94           -5.6479     3.7926    -5.2474 H       
  95 H95           -2.2121     4.1831    -3.8721 H       
  96 H96           -1.7283     2.4900    -4.1318 H       
  97 H97           -1.9406     3.5784    -5.5241 H       
  98 H98           -9.1589     4.7530     1.6934 H       
  99 H99           -6.8553     5.2585     1.3249 H       
 100 H100          -6.5535     3.6860     0.5473 H       
 101 H101          -6.7048     5.4981    -1.1385 H       
 102 H102          -8.0351     4.3317    -1.3333 H       
 103 H103          -8.3369     5.9041    -0.5557 H       
 104 H104          -8.9419     2.1459     0.1722 H       
 105 H105         -10.3930     3.0987     0.5655 H       
 106 H106          -9.2740     3.6623    -0.6988 H       
 107 H107          -7.5219    -0.7924     0.6507 H       
 108 H108          -7.7321    -0.2480    -1.0309 H       
 109 H109          -5.5382    -1.2387    -1.6259 H       
 110 H110          -5.3280    -1.7831     0.0558 H       
 111 H111          -7.3812    -3.1604    -0.1335 H       
 112 H112          -7.5914    -2.6161    -1.8151 H       
 113 H113          -5.3975    -3.6068    -2.4100 H       
 114 H114          -5.1873    -4.1511    -0.7284 H       
 115 H115          -6.0868    -5.8939    -2.1221 H       
 116 H116          -7.2307    -5.4376    -1.0044 H       
 117 H117          -5.9211     9.0432     2.8860 H       
 118 H118          -4.3539     9.6318     2.2814 H       
 119 H119          -5.7257     8.5086     0.2518 H       
 120 H120          -5.2492     6.9266    -0.0529 H       
 121 H121          -7.4183     6.9747     6.4534 H       
 122 H122          -8.6630     7.0261     5.1820 H       
 123 H123         -10.0561     4.7526     7.7000 H       
 124 H124          -0.4732     8.0632    -1.2263 H       
 125 H125          -0.3331     6.8258    -2.4981 H       
 126 H126          -3.8694     6.7479    -1.4626 H       
@<TRIPOS>BOND
   1    1    2 1
   2    1   24 1
   3    1   63 1
   4    2    3 1
   5    2   64 1
   6    3    4 1
   7    3   38 1
   8    3   65 1
   9    4    5 am
  10    4   32 2
  11    5    6 1
  12    5   66 1
  13    6    7 1
  14    6   46 1
  15    6   67 1
  16    7    8 am
  17    7   31 2
  18    8    9 1
  19    8   68 1
  20    9   10 1
  21    9   42 1
  22    9   69 1
  23   10   11 am
  24   10   30 2
  25   11   12 1
  26   11   70 1
  27   12   13 1
  28   12   56 1
  29   12   71 1
  30   13   14 am
  31   13   29 2
  32   14   15 1
  33   14   72 1
  34   15   16 1
  35   15   51 1
  36   15   73 1
  37   16   17 am
  38   16   28 2
  39   17   18 1
  40   17   74 1
  41   18   19 1
  42   18   33 1
  43   18   75 1
  44   19   20 1
  45   19   27 2
  46   20   21 1
  47   20   26 2
  48   21   22 1
  49   21   60 1
  50   21   76 1
  51   22   23 am
  52   22   77 1
  53   23   24 1
  54   23   25 2
  55   24   37 1
  56   24   78 1
  57   33   34 1
  58   33   79 1
  59   33   80 1
  60   34   35 1
  61   34   81 1
  62   34   82 1
  63   35   36 1
  64   36   83 1
  65   36   84 1
  66   36   85 1
  67   37   86 1
  68   37   87 1
  69   37   88 1
  70   38   39 1
  71   38   89 1
  72   38   90 1
  73   39   40 1
  74   39   41 1
  75   39   91 1
  76   40   92 1
  77   40   93 1
  78   40   94 1
  79   41   95 1
  80   41   96 1
  81   41   97 1
  82   42   43 1
  83   42   45 1
  84   42   98 1
  85   43   44 1
  86   43   99 1
  87   43  100 1
  88   44  101 1
  89   44  102 1
  90   44  103 1
  91   45  104 1
  92   45  105 1
  93   45  106 1
  94   46   47 1
  95   46  107 1
  96   46  108 1
  97   47   48 1
  98   47  109 1
  99   47  110 1
 100   48   49 1
 101   48  111 1
 102   48  112 1
 103   49   50 1
 104   49  113 1
 105   49  114 1
 106   50  115 1
 107   50  116 1
 108   51   52 1
 109   51  117 1
 110   51  118 1
 111   52   53 2
 112   52   54 am
 113   54  119 1
 114   54  120 1
 115   55   56 1
 116   55   57 2
 117   55   58 1
 118   56  121 1
 119   56  122 1
 120   58  123 1
 121   59   60 1
 122   59   61 2
 123   59   62 1
 124   60  124 1
 125   60  125 1
 126   62  126 1

#	End of record

