#	Name: ASD00241031
#	Creating user name:	WinNT
#	Creation time:	15. 06. 2019 18:33

#	Modifying user name:	WinNT
#	Modification time:	15. 06. 2019 18:33

#	Program:	/corina/corina34_cracker 3.40 0067  02.08.2006

@<TRIPOS>MOLECULE
ASD00241031
  59   62    0    0    0
SMALL
NO_CHARGES


@<TRIPOS>ATOM
   1 N1             2.2438     3.4675    -0.8046 N.ar    
   2 C2             1.8129     2.2210    -0.7443 C.ar    
   3 N3             2.6311     1.1947    -0.6410 N.ar    
   4 C4             3.9456     1.3794    -0.5929 C.ar    
   5 C5             4.4541     2.6890    -0.6537 C.ar    
   6 C6             3.5412     3.7502    -0.7635 C.ar    
   7 N7             5.0372     0.5545    -0.4908 N.pl3   
   8 C8             6.1479     1.3446    -0.4912 C.2     
   9 N9             5.8038     2.5961    -0.5868 N.2     
  10 C10            5.0134    -0.9074    -0.3983 C.3     
  11 O11            6.2207    -1.3912     0.2296 O.3     
  12 C12            6.3279    -2.7755    -0.1678 C.3     
  13 C13            5.9081    -2.7930    -1.6544 C.3     
  14 C14            5.0235    -1.5357    -1.8095 C.3     
  15 C15            7.7701    -3.2632    -0.0158 C.3     
  16 F16            3.7274    -1.8930    -2.1963 F       
  17 O17            5.1575    -3.9728    -1.9489 O.3     
  18 C18            7.5801    -4.2408     2.1912 C.3     
  19 C19            7.8117    -3.9690     3.6552 C.2     
  20 C20            6.8014    -3.9680     4.4891 C.2     
  21 C21            5.4380    -4.4080     4.0215 C.3     
  22 N22            4.9220    -5.4455     4.9245 N.3     
  23 N23            8.1756    -3.1613     1.3924 N.3     
  24 C24            9.6390    -3.1579     1.5200 C.3     
  25 N25            3.9841     5.0640    -0.8281 N.am    
  26 C26            3.0942     6.0707    -0.9333 C.2     
  27 C27            4.4494    10.0911    -1.1305 C.ar    
  28 C28            3.0936     9.8184    -1.1748 C.ar    
  29 C29            2.6467     8.5148    -1.1111 C.ar    
  30 C30            3.5658     7.4697    -1.0021 C.ar    
  31 C31            4.9322     7.7519    -0.9578 C.ar    
  32 C32            5.3656     9.0600    -1.0220 C.ar    
  33 O33            1.9038     5.8280    -0.9717 O.2     
  34 H34            0.7495     2.0363    -0.7806 H       
  35 H35            7.1639     0.9850    -0.4220 H       
  36 H36            4.1371    -1.2374     0.1595 H       
  37 H37            5.6530    -3.3936     0.4243 H       
  38 H38            6.7842    -2.7255    -2.2994 H       
  39 H39            5.4622    -0.8467    -2.5313 H       
  40 H40            7.8384    -4.3018    -0.3394 H       
  41 H41            8.4283    -2.6475    -0.6289 H       
  42 H42            4.8683    -4.0353    -2.8695 H       
  43 H43            8.0419    -5.1903     1.9204 H       
  44 H44            6.5088    -4.2890     1.9956 H       
  45 H45            8.8107    -3.7749     4.0170 H       
  46 H46            6.9456    -3.6518     5.5117 H       
  47 H47            4.7602    -3.5545     4.0237 H       
  48 H48            5.5127    -4.8101     3.0112 H       
  49 H49            4.9041    -5.1181     5.8787 H       
  50 H50            4.0080    -5.7574     4.6321 H       
  51 H51           10.0564    -2.3692     0.8940 H       
  52 H52            9.9127    -2.9795     2.5599 H       
  53 H53           10.0338    -4.1224     1.2007 H       
  54 H54            4.9341     5.2576    -0.7975 H       
  55 H55            4.7942    11.1131    -1.1852 H       
  56 H56            2.3836    10.6278    -1.2591 H       
  57 H57            1.5882     8.3033    -1.1455 H       
  58 H58            5.6485     6.9480    -0.8731 H       
  59 H59            6.4225     9.2798    -0.9878 H       
@<TRIPOS>BOND
   1    1    2 ar
   2    1    6 ar
   3    2    3 ar
   4    2   34 1
   5    3    4 ar
   6    4    5 ar
   7    4    7 1
   8    5    6 ar
   9    5    9 1
  10    6   25 1
  11    7    8 1
  12    7   10 1
  13    8    9 2
  14    8   35 1
  15   10   11 1
  16   10   14 1
  17   10   36 1
  18   11   12 1
  19   12   13 1
  20   12   15 1
  21   12   37 1
  22   13   14 1
  23   13   17 1
  24   13   38 1
  25   14   16 1
  26   14   39 1
  27   15   23 1
  28   15   40 1
  29   15   41 1
  30   17   42 1
  31   18   19 1
  32   18   23 1
  33   18   43 1
  34   18   44 1
  35   19   20 2
  36   19   45 1
  37   20   21 1
  38   20   46 1
  39   21   22 1
  40   21   47 1
  41   21   48 1
  42   22   49 1
  43   22   50 1
  44   23   24 1
  45   24   51 1
  46   24   52 1
  47   24   53 1
  48   25   26 am
  49   25   54 1
  50   26   33 2
  51   26   30 1
  52   27   28 ar
  53   27   32 ar
  54   27   55 1
  55   28   29 ar
  56   28   56 1
  57   29   30 ar
  58   29   57 1
  59   30   31 ar
  60   31   32 ar
  61   31   58 1
  62   32   59 1

#	End of record

