#	Name: ASD01914795
#	Creating user name:	WinNT
#	Creation time:	15. 06. 2019 20:04

#	Modifying user name:	WinNT
#	Modification time:	15. 06. 2019 20:04

#	Program:	/corina/corina34_cracker 3.40 0067  02.08.2006

@<TRIPOS>MOLECULE
ASD01914795
  57   61    0    0    0
SMALL
NO_CHARGES


@<TRIPOS>ATOM
   1 N1             0.0267     1.3904    -0.1030 N.2     
   2 C2            -0.0385     0.0586     0.0786 C.2     
   3 C3             1.2325    -0.4203     0.1480 C.2     
   4 N4             2.0696     0.6509     0.0045 N.pl3   
   5 C5             1.2865     1.7583    -0.1492 C.2     
   6 C6            -1.2802    -0.7466     0.1851 C.ar    
   7 C7            -2.5253    -0.1269     0.0965 C.ar    
   8 C8            -1.2056    -2.1260     0.3682 C.ar    
   9 C9            -2.3638    -2.8701     0.4661 C.ar    
  10 C10           -3.5971    -2.2492     0.3823 C.ar    
  11 C11           -3.6770    -0.8809     0.1957 C.ar    
  12 C12            1.7753     3.1414    -0.3365 C.ar    
  13 C13            3.0837     3.4754     0.0157 C.ar    
  14 C14            3.5345     4.7668    -0.1610 C.ar    
  15 C15            2.6906     5.7320    -0.6871 C.ar    
  16 C16            1.3902     5.4057    -1.0380 C.ar    
  17 C17            0.9314     4.1159    -0.8712 C.ar    
  18 C18            3.5341     0.6167     0.0137 C.3     
  19 C19            4.0331     0.8490     1.4166 C.2     
  20 O20            3.2432     1.0257     2.3198 O.2     
  21 N21            5.3573     0.8604     1.6677 N.am    
  22 C22            5.8656     1.0853     3.0294 C.3     
  23 C23            6.3321     0.6421     0.5882 C.3     
  24 C24            7.3077    -0.4548     1.0278 C.3     
  25 N25            7.8903    -0.0954     2.3276 N.3     
  26 C26            6.8605    -0.0300     3.3680 C.3     
  27 C27            8.8995    -0.9836     2.6809 C.ar    
  28 C28            9.9731    -1.1855     1.8191 C.ar    
  29 N29            8.8334    -1.6257     3.8368 N.ar    
  30 C30            9.7705    -2.4767     4.2101 C.ar    
  31 C31           10.8606    -2.7288     3.4020 C.ar    
  32 C32           10.9704    -2.0717     2.1833 C.ar    
  33 F33            3.1370     6.9956    -0.8581 F       
  34 H34            1.5248    -1.4502     0.2899 H       
  35 H35           -2.5889     0.9413    -0.0491 H       
  36 H36           -0.2433    -2.6119     0.4331 H       
  37 H37           -2.3072    -3.9393     0.6080 H       
  38 H38           -4.5009    -2.8354     0.4590 H       
  39 H39           -4.6425    -0.4012     0.1314 H       
  40 H40            3.7420     2.7240     0.4261 H       
  41 H41            4.5468     5.0264     0.1115 H       
  42 H42            0.7364     6.1617    -1.4473 H       
  43 H43           -0.0822     3.8626    -1.1449 H       
  44 H44            3.8771    -0.3566    -0.3374 H       
  45 H45            3.9200     1.3965    -0.6429 H       
  46 H46            6.3681     2.0513     3.0777 H       
  47 H47            5.0372     1.0644     3.7375 H       
  48 H48            5.8121     0.3283    -0.3169 H       
  49 H49            6.8803     1.5648     0.3978 H       
  50 H50            6.7745    -1.4013     1.1174 H       
  51 H51            8.1021    -0.5530     0.2879 H       
  52 H52            7.3281     0.1800     4.3299 H       
  53 H53            6.3342    -0.9831     3.4193 H       
  54 H54           10.0266    -0.6577     0.8784 H       
  55 H55            9.6834    -2.9822     5.1605 H       
  56 H56           11.6225    -3.4269     3.7158 H       
  57 H57           11.8137    -2.2516     1.5331 H       
@<TRIPOS>BOND
   1    1    2 1
   2    1    5 2
   3    2    3 2
   4    2    6 1
   5    3    4 1
   6    3   34 1
   7    4    5 1
   8    4   18 1
   9    5   12 1
  10    6    7 ar
  11    6    8 ar
  12    7   11 ar
  13    7   35 1
  14    8    9 ar
  15    8   36 1
  16    9   10 ar
  17    9   37 1
  18   10   11 ar
  19   10   38 1
  20   11   39 1
  21   12   13 ar
  22   12   17 ar
  23   13   14 ar
  24   13   40 1
  25   14   15 ar
  26   14   41 1
  27   15   16 ar
  28   15   33 1
  29   16   17 ar
  30   16   42 1
  31   17   43 1
  32   18   19 1
  33   18   44 1
  34   18   45 1
  35   19   20 2
  36   19   21 am
  37   21   22 1
  38   21   23 1
  39   22   26 1
  40   22   46 1
  41   22   47 1
  42   23   24 1
  43   23   48 1
  44   23   49 1
  45   24   25 1
  46   24   50 1
  47   24   51 1
  48   25   26 1
  49   25   27 1
  50   26   52 1
  51   26   53 1
  52   27   28 ar
  53   27   29 ar
  54   28   32 ar
  55   28   54 1
  56   29   30 ar
  57   30   31 ar
  58   30   55 1
  59   31   32 ar
  60   31   56 1
  61   32   57 1

#	End of record

