#	Name: ASD01470045
#	Creating user name:	WinNT
#	Creation time:	15. 06. 2019 19:21

#	Modifying user name:	WinNT
#	Modification time:	15. 06. 2019 19:21

#	Program:	/corina/corina34_cracker 3.40 0067  02.08.2006

@<TRIPOS>MOLECULE
ASD01470045
  86   92    0    0    0
SMALL
NO_CHARGES


@<TRIPOS>ATOM
   1 N1            -1.6755     1.5018     0.5505 N.am    
   2 C2            -0.3424     1.0670     0.1424 C.3     
   3 C3             0.2211     0.0386     1.1332 C.3     
   4 C4            -0.2337    -1.3749     0.8041 C.3     
   5 C5            -1.6105    -1.3818     0.1605 C.3     
   6 N6            -2.5752    -0.6557     0.9874 N.am    
   7 C7            -2.6220     0.6880     0.9900 C.2     
   8 O8            -3.6324     1.2030     1.4285 O.2     
   9 C9            -3.5055    -1.4069     1.8338 C.3     
  10 C10           -1.9829     2.9322     0.4739 C.3     
  11 C11           -1.7093     3.5769     1.8082 C.ar    
  12 C12           -2.9312    -1.5347     3.2212 C.ar    
  13 C13           -3.0756    -0.5090     4.1096 C.ar    
  14 C14           -2.5422    -0.6290     5.3978 C.ar    
  15 C15           -1.8623    -1.8067     5.7634 C.ar    
  16 C16           -1.7310    -2.8370     4.8354 C.ar    
  17 C17           -2.2645    -2.6983     3.5856 C.ar    
  18 C18           -0.4276     3.9921     2.1242 C.ar    
  19 C19           -0.1663     4.5858     3.3470 C.ar    
  20 C20           -1.1828     4.7675     4.2605 C.ar    
  21 C21           -2.4810     4.3505     3.9486 C.ar    
  22 C22           -2.7380     3.7568     2.7090 C.ar    
  23 C23           -2.5109     0.2426     6.5678 C.2     
  24 N24           -1.8706    -0.3836     7.5134 N.2     
  25 N25           -1.4570    -1.6413     7.0620 N.pl3   
  26 C26           -0.4222     0.4353    -1.2488 C.3     
  27 O27            1.6486     0.0883     1.0922 O.3     
  28 C28            0.4206     1.2318    -2.2113 C.ar    
  29 C29            1.7236     0.8492    -2.4691 C.ar    
  30 C30            2.4967     1.5799    -3.3519 C.ar    
  31 C31            1.9666     2.6929    -3.9772 C.ar    
  32 C32            0.6632     3.0750    -3.7201 C.ar    
  33 C33           -0.1113     2.3418    -2.8406 C.ar    
  34 C34           -2.0801    -2.8280    -0.0092 C.3     
  35 O35           -0.2771    -2.1437     2.0079 O.3     
  36 C36           -1.1657    -3.5437    -0.9698 C.ar    
  37 C37           -0.0186    -4.1585    -0.5040 C.ar    
  38 C38            0.8202    -4.8149    -1.3851 C.ar    
  39 C39            0.5116    -4.8569    -2.7320 C.ar    
  40 C40           -0.6360    -4.2428    -3.1976 C.ar    
  41 C41           -1.4770    -3.5901    -2.3158 C.ar    
  42 C42           -3.5717     4.5403     4.9182 C.2     
  43 C43           -3.3174     5.2881     6.2016 C.3     
  44 O44           -4.6750     4.0951     4.6844 O.2     
  45 N45           -4.5191     5.2445     7.0385 N.pl3   
  46 C46           -4.5803     4.8012     8.3155 C.2     
  47 C47           -5.8706     4.9379     8.7007 C.2     
  48 N48           -6.5270     5.4514     7.6543 N.2     
  49 N49           -5.6970     5.6266     6.6873 N.2     
  50 H50            0.3213     1.9308     0.1051 H       
  51 H51           -0.1153     0.2939     2.1381 H       
  52 H52            0.4821    -1.8289     0.1188 H       
  53 H53           -1.5508    -0.9093    -0.8199 H       
  54 H54           -4.4587    -0.8805     1.8823 H       
  55 H55           -3.6599    -2.3999     1.4116 H       
  56 H56           -1.3591     3.3975    -0.2893 H       
  57 H57           -3.0334     3.0647     0.2149 H       
  58 H58           -3.5983     0.3906     3.8200 H       
  59 H59           -1.2113    -3.7447     5.1044 H       
  60 H60           -2.1605    -3.5000     2.8694 H       
  61 H61            0.3730     3.8519     1.4130 H       
  62 H62            0.8367     4.9073     3.5863 H       
  63 H63           -0.9772     5.2302     5.2144 H       
  64 H64           -3.7378     3.4323     2.4609 H       
  65 H65           -2.9416     1.2306     6.6372 H       
  66 H66           -0.9627    -2.2921     7.5845 H       
  67 H67           -0.0528    -0.5893    -1.2044 H       
  68 H68           -1.4580     0.4337    -1.5883 H       
  69 H69            2.0813    -0.5343     1.6924 H       
  70 H70            2.1378    -0.0204    -1.9806 H       
  71 H71            3.5150     1.2813    -3.5528 H       
  72 H72            2.5708     3.2642    -4.6664 H       
  73 H73            0.2491     3.9448    -4.2083 H       
  74 H74           -1.1296     2.6403    -2.6397 H       
  75 H75           -2.0591    -3.3326     0.9568 H       
  76 H76           -3.0972    -2.8361    -0.4012 H       
  77 H77            0.5740    -2.2123     2.4617 H       
  78 H78            0.2225    -4.1257     0.5482 H       
  79 H79            1.7168    -5.2947    -1.0214 H       
  80 H80            1.1673    -5.3691    -3.4205 H       
  81 H81           -0.8769    -4.2754    -4.2499 H       
  82 H82           -2.3737    -3.1104    -2.6796 H       
  83 H83           -2.4870     4.8243     6.7339 H       
  84 H84           -3.0699     6.3251     5.9750 H       
  85 H85           -3.7638     4.4156     8.9080 H       
  86 H86           -6.2881     4.6824     9.6633 H       
@<TRIPOS>BOND
   1    1    2 1
   2    1   10 1
   3    1    7 am
   4    2    3 1
   5    2   26 1
   6    2   50 1
   7    3    4 1
   8    3   27 1
   9    3   51 1
  10    4    5 1
  11    4   35 1
  12    4   52 1
  13    5    6 1
  14    5   34 1
  15    5   53 1
  16    6    7 am
  17    6    9 1
  18    7    8 2
  19    9   12 1
  20    9   54 1
  21    9   55 1
  22   10   11 1
  23   10   56 1
  24   10   57 1
  25   11   18 ar
  26   11   22 ar
  27   12   13 ar
  28   12   17 ar
  29   13   14 ar
  30   13   58 1
  31   14   15 ar
  32   14   23 1
  33   15   16 ar
  34   15   25 1
  35   16   17 ar
  36   16   59 1
  37   17   60 1
  38   18   19 ar
  39   18   61 1
  40   19   20 ar
  41   19   62 1
  42   20   21 ar
  43   20   63 1
  44   21   22 ar
  45   21   42 1
  46   22   64 1
  47   23   24 2
  48   23   65 1
  49   24   25 1
  50   25   66 1
  51   26   28 1
  52   26   67 1
  53   26   68 1
  54   27   69 1
  55   28   29 ar
  56   28   33 ar
  57   29   30 ar
  58   29   70 1
  59   30   31 ar
  60   30   71 1
  61   31   32 ar
  62   31   72 1
  63   32   33 ar
  64   32   73 1
  65   33   74 1
  66   34   36 1
  67   34   75 1
  68   34   76 1
  69   35   77 1
  70   36   37 ar
  71   36   41 ar
  72   37   38 ar
  73   37   78 1
  74   38   39 ar
  75   38   79 1
  76   39   40 ar
  77   39   80 1
  78   40   41 ar
  79   40   81 1
  80   41   82 1
  81   42   43 1
  82   42   44 2
  83   43   45 1
  84   43   83 1
  85   43   84 1
  86   45   46 1
  87   45   49 1
  88   46   47 2
  89   46   85 1
  90   47   48 1
  91   47   86 1
  92   48   49 2

#	End of record

