#	Name: ASD01917861
#	Creating user name:	WinNT
#	Creation time:	15. 06. 2019 20:10

#	Modifying user name:	WinNT
#	Modification time:	15. 06. 2019 20:10

#	Program:	/corina/corina34_cracker 3.40 0067  02.08.2006

@<TRIPOS>MOLECULE
ASD01917861
  44   47    0    0    0
SMALL
NO_CHARGES


@<TRIPOS>ATOM
   1 C1            -0.0344     1.3699     0.0802 C.2     
   2 C2            -0.0075     0.0240     0.0805 C.2     
   3 C3            -1.2665    -0.8291     0.0605 C.3     
   4 C4            -2.4553     0.0208     0.5154 C.3     
   5 N5            -2.4244     1.3097    -0.1922 N.am    
   6 C6            -1.2898     2.2116     0.0726 C.3     
   7 C7            -3.4019     1.6542    -1.0538 C.2     
   8 O8            -4.2773     0.8556    -1.3319 O.2     
   9 S9             1.6193     1.9662     0.0977 S.3     
  10 C10            2.2057     0.3607     0.1086 C.2     
  11 N11            1.2231    -0.4697     0.0983 N.2     
  12 C12            3.6621    -0.0259     0.1271 C.3     
  13 O13            4.1389    -0.1507    -1.2142 O.3     
  14 C14            5.4432    -0.4967    -1.3757 C.ar    
  15 C15            5.9725    -0.6356    -2.6505 C.ar    
  16 C16            7.2986    -0.9874    -2.8120 C.ar    
  17 C17            8.0981    -1.2011    -1.7044 C.ar    
  18 C18            7.5729    -1.0638    -0.4328 C.ar    
  19 C19            6.2490    -0.7061    -0.2660 C.ar    
  20 C20           -3.4107     2.9901    -1.6557 C.2     
  21 C21           -2.8240     3.3503    -2.8520 C.2     
  22 C22           -3.0767     4.7142    -3.0388 C.2     
  23 C23           -3.7960     5.1530    -1.9789 C.2     
  24 N24           -4.0114     4.1153    -1.1337 N.pl3   
  25 Cl25          -1.9391     2.3087    -3.9224 Cl      
  26 C26           -4.7552     4.1800     0.1267 C.3     
  27 H27           -1.4445    -1.1925    -0.9516 H       
  28 H28           -1.1439    -1.6755     0.7363 H       
  29 H29           -3.3849    -0.4996     0.2845 H       
  30 H30           -2.3902     0.1932     1.5897 H       
  31 H31           -1.4192     2.6951     1.0409 H       
  32 H32           -1.2244     2.9648    -0.7126 H       
  33 H33            4.2353     0.7421     0.6465 H       
  34 H34            3.7787    -0.9783     0.6443 H       
  35 H35            5.3482    -0.4691    -3.5160 H       
  36 H36            7.7110    -1.0960    -3.8042 H       
  37 H37            9.1346    -1.4761    -1.8327 H       
  38 H38            8.1993    -1.2320     0.4308 H       
  39 H39            5.8392    -0.5989     0.7275 H       
  40 H40           -2.7549     5.3109    -3.8795 H       
  41 H41           -4.1454     6.1644    -1.8328 H       
  42 H42           -4.0600     4.3381     0.9512 H       
  43 H43           -5.4658     5.0056     0.0872 H       
  44 H44           -5.2933     3.2445     0.2795 H       
@<TRIPOS>BOND
   1    1    2 2
   2    1    9 1
   3    1    6 1
   4    2    3 1
   5    2   11 1
   6    3    4 1
   7    3   27 1
   8    3   28 1
   9    4    5 1
  10    4   29 1
  11    4   30 1
  12    5    6 1
  13    5    7 am
  14    6   31 1
  15    6   32 1
  16    7    8 2
  17    7   20 1
  18    9   10 1
  19   10   11 2
  20   10   12 1
  21   12   13 1
  22   12   33 1
  23   12   34 1
  24   13   14 1
  25   14   15 ar
  26   14   19 ar
  27   15   16 ar
  28   15   35 1
  29   16   17 ar
  30   16   36 1
  31   17   18 ar
  32   17   37 1
  33   18   19 ar
  34   18   38 1
  35   19   39 1
  36   20   21 2
  37   20   24 1
  38   21   22 1
  39   21   25 1
  40   22   23 2
  41   22   40 1
  42   23   24 1
  43   23   41 1
  44   24   26 1
  45   26   42 1
  46   26   43 1
  47   26   44 1

#	End of record

