#	Name: ASD01890211
#	Creating user name:	WinNT
#	Creation time:	15. 06. 2019 19:50

#	Modifying user name:	WinNT
#	Modification time:	15. 06. 2019 19:50

#	Program:	/corina/corina34_cracker 3.40 0067  02.08.2006

@<TRIPOS>MOLECULE
ASD01890211
  51   53    0    0    0
SMALL
NO_CHARGES


@<TRIPOS>ATOM
   1 C1            -0.4747    -2.3293    -0.2482 C.2     
   2 C2             0.5494    -1.9475     0.7893 C.3     
   3 C3             0.9515    -0.4842     0.5948 C.3     
   4 C4             1.9022    -0.0630     1.7171 C.3     
   5 C5             2.1286     1.4255     1.6515 C.2     
   6 O6            -0.9317    -1.4872    -0.9845 O.2     
   7 O7            -0.8752    -3.6057    -0.3581 O.3     
   8 O8             1.4937     2.1016     0.8700 O.2     
   9 N9             3.0366     2.0053     2.4613 N.am    
  10 C10            1.6426    -0.3256    -0.7350 C.ar    
  11 C11            1.1157     0.5231    -1.6906 C.ar    
  12 C12            1.7492     0.6690    -2.9104 C.ar    
  13 C13            2.9107    -0.0346    -3.1748 C.ar    
  14 C14            3.4375    -0.8838    -2.2180 C.ar    
  15 C15            2.8063    -1.0245    -0.9965 C.ar    
  16 Cl16           3.7066     0.1477    -4.7069 Cl      
  17 C17            3.2396     3.3905     2.4077 C.ar    
  18 C18            3.7056     4.0680     3.5268 C.ar    
  19 C19            3.9060     5.4329     3.4732 C.ar    
  20 C20            3.6413     6.1279     2.3016 C.ar    
  21 C21            3.1758     5.4515     1.1834 C.ar    
  22 C22            2.9805     4.0854     1.2341 C.ar    
  23 O23            3.8379     7.4721     2.2497 O.3     
  24 C24            5.1078     7.9250     2.0807 C.ar    
  25 C25            6.1651     7.0276     2.0321 C.ar    
  26 C26            7.4551     7.4907     1.8597 C.ar    
  27 C27            7.6932     8.8471     1.7356 C.ar    
  28 C28            6.6416     9.7435     1.7842 C.ar    
  29 C29            5.3491     9.2853     1.9507 C.ar    
  30 N30            3.9870     3.3270     4.7769 N.pl3   
  31 O31            4.2858     3.9334     5.7901 O.2     
  32 O32            3.9197     2.1110     4.7923 O.2     
  33 H33            0.1246    -2.0784     1.7845 H       
  34 H34            1.4286    -2.5831     0.6830 H       
  35 H35            0.0607     0.1436     0.6184 H       
  36 H36            1.4637    -0.3216     2.6809 H       
  37 H37            2.8542    -0.5808     1.6004 H       
  38 H38           -1.5339    -3.8021    -1.0383 H       
  39 H39            3.5496     1.4636     3.0812 H       
  40 H40            0.2088     1.0720    -1.4842 H       
  41 H41            1.3373     1.3318    -3.6570 H       
  42 H42            4.3442    -1.4332    -2.4239 H       
  43 H43            3.2198    -1.6840    -0.2479 H       
  44 H44            4.2684     5.9600     4.3435 H       
  45 H45            2.9697     5.9930     0.2719 H       
  46 H46            2.6220     3.5583     0.3622 H       
  47 H47            5.9797     5.9681     2.1292 H       
  48 H48            8.2784     6.7927     1.8221 H       
  49 H49            8.7025     9.2070     1.6009 H       
  50 H50            6.8304    10.8024     1.6878 H       
  51 H51            4.5275     9.9855     1.9838 H       
@<TRIPOS>BOND
   1    1    2 1
   2    1    6 2
   3    1    7 1
   4    2    3 1
   5    2   33 1
   6    2   34 1
   7    3    4 1
   8    3   10 1
   9    3   35 1
  10    4    5 1
  11    4   36 1
  12    4   37 1
  13    5    8 2
  14    5    9 am
  15    7   38 1
  16    9   17 1
  17    9   39 1
  18   10   11 ar
  19   10   15 ar
  20   11   12 ar
  21   11   40 1
  22   12   13 ar
  23   12   41 1
  24   13   14 ar
  25   13   16 1
  26   14   15 ar
  27   14   42 1
  28   15   43 1
  29   17   18 ar
  30   17   22 ar
  31   18   19 ar
  32   18   30 1
  33   19   20 ar
  34   19   44 1
  35   20   21 ar
  36   20   23 1
  37   21   22 ar
  38   21   45 1
  39   22   46 1
  40   23   24 1
  41   24   25 ar
  42   24   29 ar
  43   25   26 ar
  44   25   47 1
  45   26   27 ar
  46   26   48 1
  47   27   28 ar
  48   27   49 1
  49   28   29 ar
  50   28   50 1
  51   29   51 1
  52   30   31 2
  53   30   32 2

#	End of record

