#	Name: ASD01209004
#	Creating user name:	WinNT
#	Creation time:	15. 06. 2019 19:10

#	Modifying user name:	WinNT
#	Modification time:	15. 06. 2019 19:10

#	Program:	/corina/corina34_cracker 3.40 0067  02.08.2006

@<TRIPOS>MOLECULE
ASD01209004
  59   63    0    0    0
SMALL
NO_CHARGES


@<TRIPOS>ATOM
   1 S1            -0.3467     0.9665     0.5167 S.o2    
   2 C2            -3.7528    -2.3984    -5.8298 C.3     
   3 C3            -3.6051    -0.9643    -5.3122 C.3     
   4 C4            -3.1586    -0.0604    -6.4655 C.3     
   5 C5            -1.8534    -0.6033    -7.0531 C.3     
   6 C6            -2.4247    -2.8510    -6.4420 C.3     
   7 C7            -4.9493    -0.4750    -4.7694 C.3     
   8 C8            -4.7655     0.8932    -4.1098 C.3     
   9 C9            -6.1073     1.4283    -3.6806 C.2     
  10 O10           -6.3659     1.5419    -2.5011 O.2     
  11 N11           -3.8964     0.7576    -2.9382 N.pl3   
  12 C12           -2.6963     1.3954    -2.7601 C.ar    
  13 C13           -2.2000     0.9838    -1.5078 C.ar    
  14 C14           -3.1883     0.0602    -0.9592 C.2     
  15 N15           -4.1611    -0.0388    -1.8193 N.2     
  16 N16           -7.0200     1.7808    -4.6076 N.am    
  17 C17           -1.9586     2.2909    -3.5290 C.ar    
  18 C18           -0.7505     2.7649    -3.0564 C.ar    
  19 C19           -0.2645     2.3537    -1.8160 C.ar    
  20 C20           -0.9737     1.4773    -1.0487 C.ar    
  21 C21           -8.2191     2.3667    -4.2154 C.2     
  22 S22           -9.5076     2.8812    -5.3009 S.3     
  23 C23          -10.4523     3.4249    -3.9160 C.2     
  24 C24           -9.7477     3.1828    -2.8085 C.2     
  25 N25           -8.5695     2.6163    -2.9911 N.2     
  26 O26           -2.0519    -1.9503    -7.4870 O.3     
  27 F27          -11.6784     3.9900    -3.9667 F       
  28 C28           -1.5350     1.6270     1.7177 C.3     
  29 C29           -1.2098     1.4525     3.2025 C.3     
  30 C30           -1.0996     2.8330     2.5523 C.3     
  31 O31           -0.0296     3.6392    -3.8065 O.3     
  32 C32           -0.5823     4.0211    -5.0678 C.3     
  33 O33           -0.4154    -0.4522     0.4757 O.2     
  34 O34            0.9013     1.6366     0.6299 O.2     
  35 H35           -4.0168    -3.0584    -5.0035 H       
  36 H36           -4.5344    -2.4330    -6.5888 H       
  37 H37           -2.8586    -0.9382    -4.5184 H       
  38 H38           -3.9281    -0.0478    -7.2373 H       
  39 H39           -2.9976     0.9516    -6.0938 H       
  40 H40           -1.5533     0.0114    -7.9017 H       
  41 H41           -1.0737    -0.5778    -6.2918 H       
  42 H42           -1.6524    -2.8549    -5.6727 H       
  43 H43           -2.5362    -3.8554    -6.8504 H       
  44 H44           -5.6630    -0.3903    -5.5890 H       
  45 H45           -5.3243    -1.1859    -4.0332 H       
  46 H46           -4.3106     1.5817    -4.8219 H       
  47 H47           -3.1260    -0.4471    -0.0078 H       
  48 H48           -6.8407     1.6259    -5.5482 H       
  49 H49           -2.3289     2.6133    -4.4910 H       
  50 H50            0.6820     2.7327    -1.4597 H       
  51 H51          -10.1198     3.4303    -1.8253 H       
  52 H52           -2.5826     1.5710     1.4219 H       
  53 H53           -2.0435     1.2820     3.8837 H       
  54 H54           -0.2818     0.9408     3.4577 H       
  55 H55           -0.0991     3.2297     2.3798 H       
  56 H56           -1.8608     3.5709     2.8058 H       
  57 H57            0.0915     4.7203    -5.5630 H       
  58 H58           -0.7101     3.1363    -5.6914 H       
  59 H59           -1.5498     4.4981    -4.9111 H       
@<TRIPOS>BOND
   1    1   33 2
   2    1   34 2
   3    1   20 1
   4    1   28 1
   5    2    3 1
   6    2    6 1
   7    2   35 1
   8    2   36 1
   9    3    4 1
  10    3    7 1
  11    3   37 1
  12    4    5 1
  13    4   38 1
  14    4   39 1
  15    5   26 1
  16    5   40 1
  17    5   41 1
  18    6   26 1
  19    6   42 1
  20    6   43 1
  21    7    8 1
  22    7   44 1
  23    7   45 1
  24    8   11 1
  25    8    9 1
  26    8   46 1
  27    9   10 2
  28    9   16 am
  29   11   12 1
  30   11   15 1
  31   12   13 ar
  32   12   17 ar
  33   13   14 1
  34   13   20 ar
  35   14   15 2
  36   14   47 1
  37   16   21 1
  38   16   48 1
  39   17   18 ar
  40   17   49 1
  41   18   19 ar
  42   18   31 1
  43   19   20 ar
  44   19   50 1
  45   21   22 1
  46   21   25 2
  47   22   23 1
  48   23   24 2
  49   23   27 1
  50   24   25 1
  51   24   51 1
  52   28   29 1
  53   28   30 1
  54   28   52 1
  55   29   30 1
  56   29   53 1
  57   29   54 1
  58   30   55 1
  59   30   56 1
  60   31   32 1
  61   32   57 1
  62   32   58 1
  63   32   59 1

#	End of record

