#	Name: ASD01880434
#	Creating user name:	WinNT
#	Creation time:	15. 06. 2019 19:40

#	Modifying user name:	WinNT
#	Modification time:	15. 06. 2019 19:40

#	Program:	/corina/corina34_cracker 3.40 0067  02.08.2006

@<TRIPOS>MOLECULE
ASD01880434
  34   37    0    0    0
SMALL
NO_CHARGES


@<TRIPOS>ATOM
   1 O1            -0.6507     1.9360     0.2394 O.3     
   2 N2            -0.3814     0.5486     0.1503 N.2     
   3 C3            -1.3664    -0.3053     0.1053 C.2     
   4 C4            -1.2372    -1.8029     0.0105 C.ar    
   5 C5             0.0355    -2.3619    -0.0078 C.ar    
   6 C6             0.1842    -3.7308    -0.1080 C.ar    
   7 C7            -0.9394    -4.5347    -0.1915 C.ar    
   8 C8            -2.2023    -3.9855    -0.1683 C.ar    
   9 C9            -2.3805    -2.6035    -0.0590 C.ar    
  10 O10           -3.6724    -2.1736    -0.0075 O.3     
  11 C11           -3.9822    -0.8501    -0.4550 C.3     
  12 C12           -2.8323     0.0312     0.1455 C.2     
  13 C13           -4.0474     0.3633     0.3961 C.2     
  14 C14           -4.3661    -0.7194    -1.9064 C.2     
  15 O15           -4.8068     0.3302    -2.3249 O.2     
  16 N16           -4.2198    -1.7688    -2.7393 N.am    
  17 C17           -4.6663    -1.6794    -4.0624 C.ar    
  18 C18           -4.5651    -0.4778    -4.7513 C.ar    
  19 C19           -5.0068    -0.3928    -6.0571 C.ar    
  20 C20           -5.5497    -1.5025    -6.6785 C.ar    
  21 C21           -5.6523    -2.7003    -5.9952 C.ar    
  22 C22           -5.2064    -2.7936    -4.6913 C.ar    
  23 H23            0.1418     2.4894     0.2672 H       
  24 H24            0.9064    -1.7264     0.0559 H       
  25 H25            1.1703    -4.1712    -0.1216 H       
  26 H26           -0.8245    -5.6052    -0.2761 H       
  27 H27           -3.0657    -4.6309    -0.2352 H       
  28 H28           -4.6955     1.0663     0.8984 H       
  29 H29           -3.8050    -2.5860    -2.4216 H       
  30 H30           -4.1418     0.3893    -4.2663 H       
  31 H31           -4.9283     0.5413    -6.5934 H       
  32 H32           -5.8947    -1.4334    -7.6996 H       
  33 H33           -6.0775    -3.5649    -6.4830 H       
  34 H34           -5.2864    -3.7294    -4.1583 H       
@<TRIPOS>BOND
   1    1    2 1
   2    1   23 1
   3    2    3 2
   4    3    4 1
   5    3   12 1
   6    4    5 ar
   7    4    9 ar
   8    5    6 ar
   9    5   24 1
  10    6    7 ar
  11    6   25 1
  12    7    8 ar
  13    7   26 1
  14    8    9 ar
  15    8   27 1
  16    9   10 1
  17   10   11 1
  18   11   12 1
  19   11   14 1
  20   11   13 1
  21   12   13 2
  22   13   28 1
  23   14   15 2
  24   14   16 am
  25   16   17 1
  26   16   29 1
  27   17   18 ar
  28   17   22 ar
  29   18   19 ar
  30   18   30 1
  31   19   20 ar
  32   19   31 1
  33   20   21 ar
  34   20   32 1
  35   21   22 ar
  36   21   33 1
  37   22   34 1

#	End of record

