#	Name: ASD03910139
#	Creating user name:	WinNT
#	Creation time:	15. 06. 2019 20:47

#	Modifying user name:	WinNT
#	Modification time:	15. 06. 2019 20:47

#	Program:	/corina/corina34_cracker 3.40 0067  02.08.2006

@<TRIPOS>MOLECULE
ASD03910139
  57   58    0    0    0
SMALL
NO_CHARGES


@<TRIPOS>ATOM
   1 C1             1.6708    -1.7775     1.3794 C.3     
   2 C2            -0.1321    -0.3222     0.4325 C.ar    
   3 C3             0.6793    -1.4338     0.2978 C.ar    
   4 C4             0.5823    -2.2291    -0.8272 C.ar    
   5 C5            -0.3316    -1.9117    -1.8235 C.ar    
   6 C6            -1.9305     1.2049    -0.4035 C.3     
   7 C7             0.0035    -6.3355    -3.7397 C.ar    
   8 C8            -0.0744   -12.5406    -2.2527 C.3     
   9 C9            -0.5101   -11.1101    -2.5765 C.3     
  10 C10            1.2927    -6.8316    -3.6792 C.ar    
  11 C11            1.5103    -8.1530    -3.3401 C.ar    
  12 O12           -6.4109   -13.2404     0.6767 O.2     
  13 C13           -1.0435    -0.0037    -0.5575 C.ar    
  14 C14           -1.1453    -0.7949    -1.6849 C.ar    
  15 N15           -0.4320    -2.7151    -2.9646 N.am    
  16 C16           -0.2379    -4.0456    -2.8713 C.2     
  17 O17           -0.0687    -4.5590    -1.7856 O.2     
  18 C18           -0.2313    -4.8952    -4.1159 C.3     
  19 C19           -1.0709    -7.1600    -3.4611 C.ar    
  20 C20           -0.8586    -8.4821    -3.1215 C.ar    
  21 C21            0.4340    -8.9824    -3.0601 C.ar    
  22 O22            0.6454   -10.2828    -2.7267 O.3     
  23 C23           -1.3143   -11.1042    -3.8781 C.3     
  24 C24           -1.3655   -10.5794    -1.4551 C.2     
  25 O25           -1.0211    -9.5939    -0.8468 O.2     
  26 O26           -2.5101   -11.2017    -1.1319 O.3     
  27 C27           -3.2833   -10.6350    -0.0413 C.3     
  28 C28           -4.5440   -11.4733     0.1795 C.3     
  29 O29           -4.1749   -12.7823     0.6181 O.3     
  30 N30           -5.2748   -13.6426     0.8525 N.pl3   
  31 O31           -5.0848   -14.7850     1.2300 O.2     
  32 H32            1.1991    -2.4359     2.1088 H       
  33 H33            2.5304    -2.2813     0.9375 H       
  34 H34            2.0000    -0.8637     1.8742 H       
  35 H35           -0.0575     0.2956     1.3152 H       
  36 H36            1.2168    -3.0967    -0.9322 H       
  37 H37           -1.4353     2.0760    -0.8325 H       
  38 H38           -2.8739     1.0315    -0.9212 H       
  39 H39           -2.1238     1.3813     0.6546 H       
  40 H40            0.5690   -12.5341    -1.3728 H       
  41 H41           -0.9545   -13.1524    -2.0547 H       
  42 H42            0.4726   -12.9543    -3.0998 H       
  43 H43            2.1302    -6.1857    -3.8976 H       
  44 H44            2.5174    -8.5402    -3.2933 H       
  45 H45           -1.8568    -0.5452    -2.4581 H       
  46 H46           -0.6412    -2.3145    -3.8229 H       
  47 H47            0.5642    -4.5591    -4.7810 H       
  48 H48           -1.1918    -4.8041    -4.6232 H       
  49 H49           -2.0769    -6.7700    -3.5087 H       
  50 H50           -1.6981    -9.1257    -2.9037 H       
  51 H51           -2.2650   -11.6133    -3.7201 H       
  52 H52           -1.4999   -10.0751    -4.1858 H       
  53 H53           -0.7508   -11.6199    -4.6557 H       
  54 H54           -2.6828   -10.6353     0.8684 H       
  55 H55           -3.5660    -9.6120    -0.2896 H       
  56 H56           -5.1678   -10.9987     0.9370 H       
  57 H57           -5.0999   -11.5466    -0.7552 H       
@<TRIPOS>BOND
   1    1    3 1
   2    1   32 1
   3    1   33 1
   4    1   34 1
   5    2   13 ar
   6    2   35 1
   7    2    3 ar
   8    3    4 ar
   9    4    5 ar
  10    4   36 1
  11    5   14 ar
  12    5   15 1
  13    6   37 1
  14    6   38 1
  15    6   39 1
  16    6   13 1
  17    7   19 ar
  18    7   10 ar
  19    7   18 1
  20    8    9 1
  21    8   40 1
  22    8   41 1
  23    8   42 1
  24    9   22 1
  25    9   24 1
  26    9   23 1
  27   10   11 ar
  28   10   43 1
  29   11   21 ar
  30   11   44 1
  31   12   30 2
  32   13   14 ar
  33   14   45 1
  34   15   16 am
  35   15   46 1
  36   16   17 2
  37   16   18 1
  38   18   47 1
  39   18   48 1
  40   19   20 ar
  41   19   49 1
  42   20   21 ar
  43   20   50 1
  44   21   22 1
  45   23   51 1
  46   23   52 1
  47   23   53 1
  48   24   26 1
  49   24   25 2
  50   26   27 1
  51   27   54 1
  52   27   55 1
  53   27   28 1
  54   28   29 1
  55   28   56 1
  56   28   57 1
  57   29   30 1
  58   30   31 2

#	End of record

