#	Name: ASD02198596
#	Creating user name:	WinNT
#	Creation time:	15. 06. 2019 20:19

#	Modifying user name:	WinNT
#	Modification time:	15. 06. 2019 20:19

#	Program:	/corina/corina34_cracker 3.40 0067  02.08.2006

@<TRIPOS>MOLECULE
ASD02198596
  44   47    0    0    0
SMALL
NO_CHARGES


@<TRIPOS>ATOM
   1 C1             0.6148     2.2804     0.0621 C.2     
   2 C2             0.4204     1.0088     0.4934 C.2     
   3 N3             1.3032     0.0308     0.1886 N.pl3   
   4 N4             2.3593     0.2284    -0.5105 N.2     
   5 C5             2.6679     1.4135    -0.9908 C.2     
   6 C6             1.7686     2.5457    -0.7142 C.2     
   7 C7             1.0513    -1.2617     0.6603 C.ar    
   8 C8             1.6173    -1.6894     1.8545 C.ar    
   9 C9             1.3662    -2.9662     2.3177 C.ar    
  10 C10            0.5524    -3.8182     1.5941 C.ar    
  11 C11           -0.0125    -3.3957     0.4043 C.ar    
  12 C12            0.2298    -2.1187    -0.0616 C.ar    
  13 C13            3.8937     1.6047    -1.7923 C.2     
  14 N14            3.9707     2.1606    -3.0384 N.pl3   
  15 N15            5.3157     2.1487    -3.4284 N.2     
  16 C16            6.0275     1.6124    -2.4693 C.2     
  17 C17            5.1756     1.2617    -1.4219 C.2     
  18 C18            2.8970     2.6533    -3.7907 C.ar    
  19 C19            1.7119     1.9333    -3.8663 C.ar    
  20 O20            2.0078     3.6670    -1.1367 O.2     
  21 C21            3.0132     3.8656    -4.4579 C.ar    
  22 C22            1.9526     4.3488    -5.1990 C.ar    
  23 C23            0.7758     3.6267    -5.2770 C.ar    
  24 C24            0.6550     2.4219    -4.6090 C.ar    
  25 S25            2.6550    -0.6047     2.7771 S.o2    
  26 O26            3.1414    -1.4079     3.8436 O.2     
  27 O27            3.5400    -0.0585     1.8088 O.2     
  28 C28            1.5304     0.6731     3.4041 C.3     
  29 H29           -0.0898     3.0636     0.2995 H       
  30 H30           -0.4503     0.7748     1.0879 H       
  31 H31            1.8063    -3.2995     3.2459 H       
  32 H32            0.3576    -4.8160     1.9585 H       
  33 H33           -0.6474    -4.0638    -0.1586 H       
  34 H34           -0.2116    -1.7893    -0.9907 H       
  35 H35            7.0978     1.4689    -2.4848 H       
  36 H36            5.4676     0.7989    -0.4908 H       
  37 H37            1.6170     0.9922    -3.3451 H       
  38 H38            3.9318     4.4302    -4.3972 H       
  39 H39            2.0423     5.2917    -5.7179 H       
  40 H40           -0.0522     4.0068    -5.8568 H       
  41 H41           -0.2652     1.8601    -4.6721 H       
  42 H42            0.8168     0.2223     4.0939 H       
  43 H43            2.1050     1.4390     3.9249 H       
  44 H44            0.9936     1.1256     2.5704 H       
@<TRIPOS>BOND
   1    1    2 2
   2    1    6 1
   3    1   29 1
   4    2    3 1
   5    2   30 1
   6    3    4 1
   7    3    7 1
   8    4    5 2
   9    5    6 1
  10    5   13 1
  11    6   20 2
  12    7    8 ar
  13    7   12 ar
  14    8    9 ar
  15    8   25 1
  16    9   10 ar
  17    9   31 1
  18   10   11 ar
  19   10   32 1
  20   11   12 ar
  21   11   33 1
  22   12   34 1
  23   13   14 1
  24   13   17 2
  25   14   15 1
  26   14   18 1
  27   15   16 2
  28   16   17 1
  29   16   35 1
  30   17   36 1
  31   18   21 ar
  32   18   19 ar
  33   19   24 ar
  34   19   37 1
  35   21   22 ar
  36   21   38 1
  37   22   23 ar
  38   22   39 1
  39   23   24 ar
  40   23   40 1
  41   24   41 1
  42   25   26 2
  43   25   27 2
  44   25   28 1
  45   28   42 1
  46   28   43 1
  47   28   44 1

#	End of record

