#	Name: ASD04590276
#	Creating user name:	WinNT
#	Creation time:	15. 06. 2019 20:50

#	Modifying user name:	WinNT
#	Modification time:	15. 06. 2019 20:50

#	Program:	/corina/corina34_cracker 3.40 0067  02.08.2006

@<TRIPOS>MOLECULE
ASD04590276
  36   39    0    0    0
SMALL
NO_CHARGES


@<TRIPOS>ATOM
   1 C1            -0.0167     1.3832     0.0096 C.ar    
   2 C2             0.0021    -0.0041     0.0020 C.ar    
   3 C3             1.1969    -0.6870    -0.0126 C.ar    
   4 C4             2.4020     0.0223    -0.0203 C.ar    
   5 C5             2.3769     1.4283    -0.0129 C.ar    
   6 C6             1.1624     2.0986     0.0022 C.ar    
   7 N7             3.7040    -0.3552    -0.0347 N.2     
   8 C8             4.4709     0.7083    -0.0368 C.2     
   9 N9             3.6969     1.8375    -0.0236 N.pl3   
  10 C10            5.9482     0.6906    -0.0512 C.2     
  11 C11            6.7657    -0.4631    -0.0654 C.2     
  12 C12            8.0579    -0.0539    -0.0756 C.2     
  13 N13            8.0646     1.3050    -0.0683 N.pl3   
  14 N14            6.7360     1.7480    -0.0588 N.2     
  15 N15            6.3188    -1.7944    -0.0679 N.am    
  16 C16            7.2109    -2.8046    -0.0821 C.2     
  17 C17            6.7412    -4.2039    -0.0848 C.ar    
  18 O18            8.4027    -2.5633    -0.0927 O.2     
  19 C19            6.0596    -6.1727    -1.2885 C.ar    
  20 C20            5.8581    -6.8317    -0.0895 C.ar    
  21 C21            6.0897    -6.1850     1.1114 C.ar    
  22 C22            6.5296    -4.8763     1.1220 C.ar    
  23 Cl23           6.8198    -4.0681     2.6308 Cl      
  24 C24            6.4998    -4.8623    -1.2953 C.ar    
  25 F25            6.6959    -4.2194    -2.4672 F       
  26 H26           -0.9614     1.9066     0.0169 H       
  27 H27           -0.9283    -0.5525     0.0079 H       
  28 H28            1.2037    -1.7669    -0.0177 H       
  29 H29            1.1403     3.1784     0.0075 H       
  30 H30            4.0155     2.7537    -0.0221 H       
  31 H31            8.9276    -0.6941    -0.0875 H       
  32 H32            8.8529     1.8702    -0.0728 H       
  33 H33            5.3682    -1.9869    -0.0595 H       
  34 H34            5.8766    -6.6844    -2.2219 H       
  35 H35            5.5141    -7.8554    -0.0906 H       
  36 H36            5.9300    -6.7068     2.0434 H       
@<TRIPOS>BOND
   1    1    2 ar
   2    1    6 ar
   3    1   26 1
   4    2    3 ar
   5    2   27 1
   6    3    4 ar
   7    3   28 1
   8    4    5 ar
   9    4    7 1
  10    5    6 ar
  11    5    9 1
  12    6   29 1
  13    7    8 2
  14    8    9 1
  15    8   10 1
  16    9   30 1
  17   10   11 1
  18   10   14 2
  19   11   12 2
  20   11   15 1
  21   12   13 1
  22   12   31 1
  23   13   14 1
  24   13   32 1
  25   15   16 am
  26   15   33 1
  27   16   17 1
  28   16   18 2
  29   17   22 ar
  30   17   24 ar
  31   19   20 ar
  32   19   24 ar
  33   19   34 1
  34   20   21 ar
  35   20   35 1
  36   21   22 ar
  37   21   36 1
  38   22   23 1
  39   24   25 1

#	End of record

