#	Name: ASD01810085
#	Creating user name:	WinNT
#	Creation time:	15. 06. 2019 19:23

#	Modifying user name:	WinNT
#	Modification time:	15. 06. 2019 19:23

#	Program:	/corina/corina34_cracker 3.40 0067  02.08.2006

@<TRIPOS>MOLECULE
ASD01810085
  39   42    0    0    0
SMALL
NO_CHARGES


@<TRIPOS>ATOM
   1 C1            -0.0167     1.3804     0.0096 C.ar    
   2 C2             0.0021    -0.0041     0.0020 C.ar    
   3 C3             1.2005    -0.6935    -0.0132 C.ar    
   4 C4             2.4043    -0.0017    -0.0205 C.ar    
   5 C5             2.3825     1.4028    -0.0128 C.ar    
   6 C6             1.1684     2.0883     0.0021 C.ar    
   7 N7             3.7234    -0.4489    -0.0358 N.am    
   8 C8             4.5905     0.5782    -0.0388 C.2     
   9 C9             3.7890     1.8460    -0.0242 C.2     
  10 O10            4.2062     2.9855    -0.0225 O.2     
  11 O11            5.8007     0.4950    -0.0505 O.2     
  12 C12            4.1161    -1.8603    -0.0472 C.3     
  13 C13            4.2368    -2.3366    -1.4719 C.ar    
  14 C14            5.4487    -2.2330    -2.1343 C.ar    
  15 C15            5.5639    -2.6692    -3.4413 C.ar    
  16 C16            4.4591    -3.2134    -4.0916 C.ar    
  17 C17            3.2423    -3.3158    -3.4219 C.ar    
  18 C18            4.5781    -3.6827    -5.4953 C.2     
  19 C19            5.7394    -3.6412    -6.2911 C.2     
  20 N20            5.4475    -4.1434    -7.4616 N.2     
  21 N21            4.0996    -4.5223    -7.4595 N.pl3   
  22 C22            3.5839    -4.2380    -6.2467 C.2     
  23 C23            3.3760    -5.1282    -8.5800 C.3     
  24 F24            6.5197    -1.7045    -1.5026 F       
  25 C25            3.1371    -2.8820    -2.1132 C.ar    
  26 F26            1.9572    -2.9808    -1.4626 F       
  27 H27           -0.9596     1.9070     0.0170 H       
  28 H28           -0.9291    -0.5511     0.0084 H       
  29 H29            1.2002    -1.7735    -0.0190 H       
  30 H30            1.1552     3.1682     0.0077 H       
  31 H31            5.0759    -1.9745     0.4566 H       
  32 H32            3.3611    -2.4517     0.4708 H       
  33 H33            6.5092    -2.5878    -3.9572 H       
  34 H34            2.3832    -3.7372    -3.9226 H       
  35 H35            6.7032    -3.2603    -5.9870 H       
  36 H36            2.5664    -4.4126    -5.9294 H       
  37 H37            3.4595    -6.2134    -8.5222 H       
  38 H38            2.3255    -4.8415    -8.5316 H       
  39 H39            3.8046    -4.7804    -9.5199 H       
@<TRIPOS>BOND
   1    1    2 ar
   2    1    6 ar
   3    1   27 1
   4    2    3 ar
   5    2   28 1
   6    3    4 ar
   7    3   29 1
   8    4    5 ar
   9    4    7 1
  10    5    6 ar
  11    5    9 1
  12    6   30 1
  13    7    8 am
  14    7   12 1
  15    8    9 1
  16    8   11 2
  17    9   10 2
  18   12   13 1
  19   12   31 1
  20   12   32 1
  21   13   14 ar
  22   13   25 ar
  23   14   15 ar
  24   14   24 1
  25   15   16 ar
  26   15   33 1
  27   16   17 ar
  28   16   18 1
  29   17   25 ar
  30   17   34 1
  31   18   19 1
  32   18   22 2
  33   19   20 2
  34   19   35 1
  35   20   21 1
  36   21   22 1
  37   21   23 1
  38   22   36 1
  39   23   37 1
  40   23   38 1
  41   23   39 1
  42   25   26 1

#	End of record

