#	Name: ASD04590710
#	Creating user name:	WinNT
#	Creation time:	15. 06. 2019 20:51

#	Modifying user name:	WinNT
#	Modification time:	15. 06. 2019 20:51

#	Program:	/corina/corina34_cracker 3.40 0067  02.08.2006

@<TRIPOS>MOLECULE
ASD04590710
  97  102    0    0    0
SMALL
NO_CHARGES


@<TRIPOS>ATOM
   1 N1            -1.1738    -1.1122    -1.4769 N.ar    
   2 C2            -0.1628    -0.2549    -1.5366 C.ar    
   3 N3             1.0760    -0.6394    -1.7980 N.ar    
   4 C4             1.3556    -1.9215    -2.0134 C.ar    
   5 C5             0.3032    -2.8574    -1.9565 C.ar    
   6 C6            -0.9830    -2.4055    -1.6786 C.ar    
   7 N7             2.5179    -2.5932    -2.2994 N.pl3   
   8 C8             2.2714    -3.9492    -2.4348 C.ar    
   9 C9             0.8994    -4.1712    -2.2300 C.ar    
  10 N10           -0.4130     1.0898    -1.3180 N.pl3   
  11 C11           -1.7236     1.5372    -1.1515 C.ar    
  12 C12            3.8333    -1.9644    -2.4421 C.3     
  13 C13            3.8030    -0.9319    -3.5827 C.3     
  14 C14            3.0839    -5.0440    -2.7165 C.ar    
  15 N15            2.5686    -6.2564    -2.7873 N.ar    
  16 C16            1.2814    -6.4912    -2.5986 C.ar    
  17 C17            0.4099    -5.4752    -2.3176 C.ar    
  18 C18            4.1438     0.4333    -2.9504 C.3     
  19 C19            4.9307     0.0714    -1.6663 C.3     
  20 C20            4.1914    -1.1905    -1.1566 C.3     
  21 N21           -2.7283     0.6896    -1.3034 N.ar    
  22 C22           -3.9836     1.0685    -1.1551 C.ar    
  23 C23           -4.2947     2.3806    -0.8320 C.ar    
  24 C24           -3.2623     3.3023    -0.6640 C.ar    
  25 C25           -1.9591     2.8675    -0.8222 C.ar    
  26 N26           -5.6290     2.7750    -0.6769 N.3     
  27 C27           -6.5412     1.6453    -0.8999 C.3     
  28 C28           -7.9704     2.0695    -0.5455 C.3     
  29 N29           -8.2960     3.2899    -1.2991 N.am    
  30 C30           -7.3560     4.4193    -1.2344 C.3     
  31 C31           -5.9510     3.9026    -1.5616 C.3     
  32 F32            4.4074    -4.8639    -2.9190 F       
  33 C33           -8.9467     0.9546    -0.9260 C.3     
  34 Si34          -9.4242    -1.5634    -0.7543 Si      
  35 C35           -8.8767    -3.0535     0.2207 C.3     
  36 C36           -9.1916    -1.8919    -2.5734 C.3     
  37 C37          -11.2230    -1.2225    -0.4099 C.3     
  38 C38           -7.4361    -3.4071    -0.1541 C.3     
  39 C39           -8.9524    -2.7402     1.7164 C.3     
  40 C40           -9.7921    -4.2369    -0.0994 C.3     
  41 O41           -8.5322    -0.2699    -0.3171 O.3     
  42 O42           -9.6535     4.4522    -2.7991 O.3     
  43 C43          -10.9442     4.5312    -3.4594 C.3     
  44 C44          -12.0581     4.4337    -2.4150 C.3     
  45 C45          -11.0566     5.8642    -4.2020 C.3     
  46 C46          -11.0782     3.3788    -4.4569 C.3     
  47 C47           -9.4255     3.3709    -2.0300 C.2     
  48 O48          -10.2380     2.4681    -1.9948 O.2     
  49 H49           -1.8102    -3.0980    -1.6279 H       
  50 H50            0.3231     1.7203    -1.2807 H       
  51 H51            4.5894    -2.7229    -2.6451 H       
  52 H52            4.5450    -1.1888    -4.3387 H       
  53 H53            2.8096    -0.8987    -4.0300 H       
  54 H54            0.9112    -7.5034    -2.6679 H       
  55 H55           -0.6398    -5.6788    -2.1653 H       
  56 H56            4.7650     1.0220    -3.6254 H       
  57 H57            3.2322     0.9755    -2.6990 H       
  58 H58            5.9698    -0.1584    -1.9020 H       
  59 H59            4.8685     0.8774    -0.9351 H       
  60 H60            3.2875    -0.9106    -0.6155 H       
  61 H61            4.8474    -1.7869    -0.5225 H       
  62 H62           -4.7777     0.3485    -1.2873 H       
  63 H63           -3.4751     4.3309    -0.4126 H       
  64 H64           -1.1349     3.5544    -0.6991 H       
  65 H65           -6.4997     1.3456    -1.9470 H       
  66 H66           -6.2435     0.8075    -0.2693 H       
  67 H67           -8.0383     2.2704     0.5237 H       
  68 H68           -7.6453     5.1785    -1.9610 H       
  69 H69           -7.3648     4.8460    -0.2315 H       
  70 H70           -5.2253     4.7018    -1.4110 H       
  71 H71           -5.9178     3.5714    -2.5996 H       
  72 H72           -9.9468     1.2131    -0.5782 H       
  73 H73           -8.9582     0.8359    -2.0095 H       
  74 H74           -9.7877    -2.7564    -2.8656 H       
  75 H75           -9.5119    -1.0200    -3.1438 H       
  76 H76           -8.1391    -2.0913    -2.7749 H       
  77 H77          -11.3591    -1.0303     0.6544 H       
  78 H78          -11.5433    -0.3507    -0.9804 H       
  79 H79          -11.8191    -2.0870    -0.7021 H       
  80 H80           -6.7840    -2.5640     0.0740 H       
  81 H81           -7.1158    -4.2789     0.4164 H       
  82 H82           -7.3822    -3.6303    -1.2196 H       
  83 H83           -9.9915    -2.5749     2.0008 H       
  84 H84           -8.5493    -3.5789     2.2841 H       
  85 H85           -8.3702    -1.8438     1.9297 H       
  86 H86           -9.7382    -4.4601    -1.1650 H       
  87 H87           -9.4718    -5.1088     0.4710 H       
  88 H88          -10.8185    -3.9850     0.1676 H       
  89 H89          -11.9050     5.1934    -1.6485 H       
  90 H90          -13.0228     4.5930    -2.8968 H       
  91 H91          -12.0402     3.4454    -1.9558 H       
  92 H92          -10.2630     5.9336    -4.9460 H       
  93 H93          -12.0255     5.9234    -4.6976 H       
  94 H94          -10.9612     6.6851    -3.4913 H       
  95 H95          -10.9981     2.4292    -3.9279 H       
  96 H96          -12.0471     3.4381    -4.9526 H       
  97 H97          -10.2846     3.4482    -5.2009 H       
@<TRIPOS>BOND
   1    1    2 ar
   2    1    6 ar
   3    2    3 ar
   4    2   10 1
   5    3    4 ar
   6    4    5 ar
   7    4    7 1
   8    5    6 ar
   9    5    9 1
  10    6   49 1
  11    7    8 1
  12    7   12 1
  13    8    9 ar
  14    8   14 ar
  15    9   17 ar
  16   10   11 1
  17   10   50 1
  18   11   21 ar
  19   11   25 ar
  20   12   13 1
  21   12   20 1
  22   12   51 1
  23   13   18 1
  24   13   52 1
  25   13   53 1
  26   14   15 ar
  27   14   32 1
  28   15   16 ar
  29   16   17 ar
  30   16   54 1
  31   17   55 1
  32   18   19 1
  33   18   56 1
  34   18   57 1
  35   19   20 1
  36   19   58 1
  37   19   59 1
  38   20   60 1
  39   20   61 1
  40   21   22 ar
  41   22   23 ar
  42   22   62 1
  43   23   24 ar
  44   23   26 1
  45   24   25 ar
  46   24   63 1
  47   25   64 1
  48   26   27 1
  49   26   31 1
  50   27   28 1
  51   27   65 1
  52   27   66 1
  53   28   29 1
  54   28   33 1
  55   28   67 1
  56   29   30 1
  57   29   47 am
  58   30   31 1
  59   30   68 1
  60   30   69 1
  61   31   70 1
  62   31   71 1
  63   33   41 1
  64   33   72 1
  65   33   73 1
  66   34   35 1
  67   34   36 1
  68   34   37 1
  69   34   41 1
  70   35   38 1
  71   35   39 1
  72   35   40 1
  73   36   74 1
  74   36   75 1
  75   36   76 1
  76   37   77 1
  77   37   78 1
  78   37   79 1
  79   38   80 1
  80   38   81 1
  81   38   82 1
  82   39   83 1
  83   39   84 1
  84   39   85 1
  85   40   86 1
  86   40   87 1
  87   40   88 1
  88   42   43 1
  89   42   47 1
  90   43   44 1
  91   43   45 1
  92   43   46 1
  93   44   89 1
  94   44   90 1
  95   44   91 1
  96   45   92 1
  97   45   93 1
  98   45   94 1
  99   46   95 1
 100   46   96 1
 101   46   97 1
 102   47   48 2

#	End of record

