#	Name: ASD01882632
#	Creating user name:	WinNT
#	Creation time:	15. 06. 2019 19:44

#	Modifying user name:	WinNT
#	Modification time:	15. 06. 2019 19:44

#	Program:	/corina/corina34_cracker 3.40 0067  02.08.2006

@<TRIPOS>MOLECULE
ASD01882632
  54   57    0    0    0
SMALL
NO_CHARGES


@<TRIPOS>ATOM
   1 C1             1.5386     1.5513    -1.0711 C.2     
   2 C2             1.6412     0.0925    -1.1356 C.2     
   3 C3             1.2465    -0.6462    -0.0133 C.2     
   4 C4             0.7706     0.0359     1.1229 C.2     
   5 C5             0.6902     1.3797     1.1446 C.2     
   6 N6             1.0636     2.1390     0.0757 N.pl3   
   7 N7             1.5462     3.6580    -1.3728 N.2     
   8 N8             1.8192     2.5235    -1.9157 N.2     
   9 C9             1.0850     3.4827    -0.1631 C.2     
  10 C10            2.1307    -0.5603    -2.3124 C.1     
  11 N11            2.5191    -1.0781    -3.2460 N.1     
  12 N12            1.3225    -2.0264    -0.0210 N.pl3   
  13 C13            2.6184    -2.7104    -0.1471 C.3     
  14 C14            2.7352    -3.7433     0.9788 C.3     
  15 N15            1.5616    -4.6264     0.9525 N.3     
  16 C16            0.3251    -3.8773     1.2129 C.3     
  17 C17            0.1101    -2.8499     0.1028 C.3     
  18 C18            1.7156    -5.7352     1.9037 C.3     
  19 C19            0.4273    -6.5597     1.9388 C.3     
  20 C20            0.1423    -7.1202     0.5440 C.3     
  21 C21            1.3061    -8.0111     0.1048 C.3     
  22 C22            2.5944    -7.1866     0.0696 C.3     
  23 C23            2.8794    -6.6260     1.4644 C.3     
  24 C24            1.0211    -8.5716    -1.2900 C.3     
  25 F25            0.8743    -7.5156    -2.1959 F       
  26 F26            2.0852    -9.3861    -1.6917 F       
  27 F27           -0.1570    -9.3255    -1.2579 F       
  28 C28            0.6570     4.5654     0.7937 C.3     
  29 C29            1.8557     5.0030     1.6378 C.3     
  30 F30            2.8626     5.4930     0.7993 F       
  31 F31            1.4584     6.0082     2.5261 F       
  32 F32            2.3421     3.9080     2.3600 F       
  33 H33            0.4646    -0.5283     1.9915 H       
  34 H34            0.3197     1.8694     2.0330 H       
  35 H35            2.6747    -3.2132    -1.1126 H       
  36 H36            3.4260    -1.9833    -0.0621 H       
  37 H37            3.6392    -4.3355     0.8368 H       
  38 H38            2.7830    -3.2305     1.9394 H       
  39 H39           -0.5188    -4.5667     1.2407 H       
  40 H40            0.4064    -3.3626     2.1703 H       
  41 H41           -0.7399    -2.2149     0.3528 H       
  42 H42           -0.0794    -3.3663    -0.8382 H       
  43 H43            1.9187    -5.3359     2.8974 H       
  44 H44            0.5416    -7.3825     2.6446 H       
  45 H45           -0.4018    -5.9251     2.2518 H       
  46 H46           -0.7756    -7.7076     0.5691 H       
  47 H47            0.0280    -6.2975    -0.1618 H       
  48 H48            1.4204    -8.8338     0.8106 H       
  49 H49            3.4235    -7.8212    -0.2433 H       
  50 H50            2.4801    -6.3638    -0.6362 H       
  51 H51            3.7973    -6.0386     1.4394 H       
  52 H52            2.9937    -7.4488     2.1702 H       
  53 H53            0.2781     5.4186     0.2310 H       
  54 H54           -0.1275     4.1837     1.4470 H       
@<TRIPOS>BOND
   1    1    2 1
   2    1    6 1
   3    1    8 2
   4    2    3 2
   5    2   10 1
   6    3    4 1
   7    3   12 1
   8    4    5 2
   9    4   33 1
  10    5    6 1
  11    5   34 1
  12    6    9 1
  13    7    8 1
  14    7    9 2
  15    9   28 1
  16   10   11 3
  17   12   13 1
  18   12   17 1
  19   13   14 1
  20   13   35 1
  21   13   36 1
  22   14   15 1
  23   14   37 1
  24   14   38 1
  25   15   16 1
  26   15   18 1
  27   16   17 1
  28   16   39 1
  29   16   40 1
  30   17   41 1
  31   17   42 1
  32   18   19 1
  33   18   23 1
  34   18   43 1
  35   19   20 1
  36   19   44 1
  37   19   45 1
  38   20   21 1
  39   20   46 1
  40   20   47 1
  41   21   22 1
  42   21   24 1
  43   21   48 1
  44   22   23 1
  45   22   49 1
  46   22   50 1
  47   23   51 1
  48   23   52 1
  49   24   25 1
  50   24   26 1
  51   24   27 1
  52   28   29 1
  53   28   53 1
  54   28   54 1
  55   29   30 1
  56   29   31 1
  57   29   32 1

#	End of record

