#	Name: ASD01912657
#	Creating user name:	WinNT
#	Creation time:	15. 06. 2019 20:00

#	Modifying user name:	WinNT
#	Modification time:	15. 06. 2019 20:00

#	Program:	/corina/corina34_cracker 3.40 0067  02.08.2006

@<TRIPOS>MOLECULE
ASD01912657
  40   43    0    0    0
SMALL
NO_CHARGES


@<TRIPOS>ATOM
   1 C1            -0.0261     1.3424     0.2515 C.2     
   2 N2             0.0029    -0.0021    -0.0157 N.pl3   
   3 C3            -1.1915    -0.6647    -0.2561 C.2     
   4 C4            -2.3527    -0.0233    -0.2318 C.2     
   5 N5            -2.4358     1.3306     0.0325 N.am    
   6 C6            -1.3125     2.0403     0.2813 C.2     
   7 C7             1.2836     1.7381     0.4487 C.2     
   8 C8             2.0432     0.5810     0.2848 C.2     
   9 N9             1.2235    -0.4067     0.0129 N.2     
  10 O10           -1.3686     3.2339     0.5164 O.2     
  11 C11           -3.6830     1.9659     0.0473 C.ar    
  12 C12            3.5426     0.4818     0.3993 C.3     
  13 O13            4.0830     1.7687     0.7057 O.3     
  14 C14            5.4323     1.8543     0.8438 C.ar    
  15 C15            6.0243     3.0732     1.1413 C.ar    
  16 C16            7.3961     3.1576     1.2811 C.ar    
  17 C17            8.1789     2.0286     1.1248 C.ar    
  18 C18            7.5913     0.8128     0.8279 C.ar    
  19 C19            6.2194     0.7219     0.6932 C.ar    
  20 C20           -4.0175     2.9064    -0.9238 C.ar    
  21 N21           -5.2062     3.4842    -0.8746 N.ar    
  22 C22           -6.0675     3.1805     0.0756 C.ar    
  23 N23           -5.7887     2.2964     1.0126 N.ar    
  24 C24           -4.6241     1.6697     1.0301 C.ar    
  25 C25           -7.4103     3.8644     0.0916 C.3     
  26 H26           -1.1761    -1.7237    -0.4676 H       
  27 H27           -3.2603    -0.5759    -0.4247 H       
  28 H28            1.6415     2.7306     0.6798 H       
  29 H29            3.8008    -0.2191     1.1931 H       
  30 H30            3.9566     0.1295    -0.5454 H       
  31 H31            5.4134     3.9554     1.2630 H       
  32 H32            7.8575     4.1063     1.5122 H       
  33 H33            9.2511     2.0967     1.2345 H       
  34 H34            8.2049    -0.0675     0.7057 H       
  35 H35            5.7608    -0.2280     0.4613 H       
  36 H36           -3.3165     3.1604    -1.7051 H       
  37 H37           -4.4026     0.9462     1.8007 H       
  38 H38           -8.1215     3.2824    -0.4945 H       
  39 H39           -7.7653     3.9440     1.1191 H       
  40 H40           -7.3152     4.8616    -0.3382 H       
@<TRIPOS>BOND
   1    1    2 1
   2    1    7 2
   3    1    6 1
   4    2    3 1
   5    2    9 1
   6    3    4 2
   7    3   26 1
   8    4    5 1
   9    4   27 1
  10    5    6 am
  11    5   11 1
  12    6   10 2
  13    7    8 1
  14    7   28 1
  15    8    9 2
  16    8   12 1
  17   11   20 ar
  18   11   24 ar
  19   12   13 1
  20   12   29 1
  21   12   30 1
  22   13   14 1
  23   14   15 ar
  24   14   19 ar
  25   15   16 ar
  26   15   31 1
  27   16   17 ar
  28   16   32 1
  29   17   18 ar
  30   17   33 1
  31   18   19 ar
  32   18   34 1
  33   19   35 1
  34   20   21 ar
  35   20   36 1
  36   21   22 ar
  37   22   23 ar
  38   22   25 1
  39   23   24 ar
  40   24   37 1
  41   25   38 1
  42   25   39 1
  43   25   40 1

#	End of record

