#	Name: ASD01880308
#	Creating user name:	WinNT
#	Creation time:	15. 06. 2019 19:40

#	Modifying user name:	WinNT
#	Modification time:	15. 06. 2019 19:40

#	Program:	/corina/corina34_cracker 3.40 0067  02.08.2006

@<TRIPOS>MOLECULE
ASD01880308
  40   42    0    0    0
SMALL
NO_CHARGES


@<TRIPOS>ATOM
   1 C1             0.2541     1.3081    -0.7114 C.2     
   2 C2             0.3451    -0.0479    -0.7134 C.2     
   3 N3            -0.5551    -0.8009    -1.4010 N.am    
   4 C4            -1.5531    -0.2202    -2.0933 C.2     
   5 C5            -1.6772     1.1791    -2.1131 C.2     
   6 C6            -0.7821     1.9406    -1.4215 C.2     
   7 O7            -2.3520    -0.9112    -2.7058 O.2     
   8 C8            -0.4369    -2.2611    -1.3886 C.3     
   9 C9            -1.2275    -2.8193    -0.2334 C.ar    
  10 C10           -2.5563    -3.1593    -0.4059 C.ar    
  11 C11           -3.2820    -3.6713     0.6532 C.ar    
  12 C12           -2.6783    -3.8434     1.8861 C.ar    
  13 C13           -1.3484    -3.5028     2.0581 C.ar    
  14 C14           -0.6222    -2.9963     0.9967 C.ar    
  15 Cl15          -3.5892    -4.4858     3.2170 Cl      
  16 N16            1.1878     2.0746     0.0019 N.pl3   
  17 C17            1.1681     3.4691    -0.0960 C.ar    
  18 C18            0.4344     4.2200     0.8137 C.ar    
  19 C19            0.4163     5.5974     0.7150 C.ar    
  20 C20            1.1288     6.2301    -0.2898 C.ar    
  21 C21            1.8609     5.4837    -1.1978 C.ar    
  22 C22            1.8866     4.1063    -1.0996 C.ar    
  23 C23            2.1836     1.4138     0.8492 C.3     
  24 F24            1.1093     7.5776    -0.3846 F       
  25 H25            1.1393    -0.5318    -0.1644 H       
  26 H26           -2.4769     1.6473    -2.6678 H       
  27 H27           -0.8629     3.0175    -1.4260 H       
  28 H28           -0.8252    -2.6650    -2.3235 H       
  29 H29            0.6112    -2.5399    -1.2799 H       
  30 H30           -3.0276    -3.0246    -1.3682 H       
  31 H31           -4.3202    -3.9366     0.5185 H       
  32 H32           -0.8766    -3.6369     3.0203 H       
  33 H33            0.4159    -2.7304     1.1309 H       
  34 H34           -0.1217     3.7270     1.5973 H       
  35 H35           -0.1542     6.1816     1.4219 H       
  36 H36            2.4158     5.9793    -1.9806 H       
  37 H37            2.4580     3.5246    -1.8078 H       
  38 H38            3.0777     1.2032     0.2624 H       
  39 H39            2.4418     2.0666     1.6831 H       
  40 H40            1.7723     0.4801     1.2325 H       
@<TRIPOS>BOND
   1    1    2 2
   2    1   16 1
   3    1    6 1
   4    2    3 1
   5    2   25 1
   6    3    4 am
   7    3    8 1
   8    4    5 1
   9    4    7 2
  10    5    6 2
  11    5   26 1
  12    6   27 1
  13    8    9 1
  14    8   28 1
  15    8   29 1
  16    9   10 ar
  17    9   14 ar
  18   10   11 ar
  19   10   30 1
  20   11   12 ar
  21   11   31 1
  22   12   13 ar
  23   12   15 1
  24   13   14 ar
  25   13   32 1
  26   14   33 1
  27   16   23 1
  28   16   17 1
  29   17   18 ar
  30   17   22 ar
  31   18   19 ar
  32   18   34 1
  33   19   20 ar
  34   19   35 1
  35   20   21 ar
  36   20   24 1
  37   21   22 ar
  38   21   36 1
  39   22   37 1
  40   23   38 1
  41   23   39 1
  42   23   40 1

#	End of record

