#	Name: ASD01916208
#	Creating user name:	WinNT
#	Creation time:	15. 06. 2019 20:06

#	Modifying user name:	WinNT
#	Modification time:	15. 06. 2019 20:06

#	Program:	/corina/corina34_cracker 3.40 0067  02.08.2006

@<TRIPOS>MOLECULE
ASD01916208
  36   38    0    0    0
SMALL
NO_CHARGES


@<TRIPOS>ATOM
   1 C1             0.1374     1.2959     0.1145 C.ar    
   2 C2             0.2415    -0.0817     0.1624 C.ar    
   3 C3             1.4696    -0.6787     0.3622 C.ar    
   4 C4             2.6112     0.1094     0.5166 C.ar    
   5 C5             2.5047     1.4998     0.4680 C.ar    
   6 C6             1.2676     2.0885     0.2671 C.ar    
   7 O7             1.1594     3.4423     0.2187 O.3     
   8 C8             1.5770     4.0757    -0.9088 C.ar    
   9 C9             1.4841     5.4558    -1.0158 C.ar    
  10 N10            1.8880     6.0745    -2.1077 N.ar    
  11 C11            2.3917     5.4161    -3.1330 C.ar    
  12 C12            2.5161     4.0394    -3.1007 C.ar    
  13 C13            2.1092     3.3499    -1.9702 C.ar    
  14 N14            4.0283    -1.8699     0.7782 N.am    
  15 C15            5.2528    -2.4694     1.0893 C.ar    
  16 C16            5.2838    -3.6481     1.8232 C.ar    
  17 C17            6.4946    -4.2385     2.1288 C.ar    
  18 C18            7.6754    -3.6575     1.7056 C.ar    
  19 C19            7.6486    -2.4824     0.9743 C.ar    
  20 C20            6.4400    -1.8903     0.6602 C.ar    
  21 Cl21           9.1339    -1.7556     0.4458 Cl      
  22 C22            3.9282    -0.5266     0.7312 C.2     
  23 O23            4.9211     0.1618     0.8654 O.2     
  24 H24           -0.8257     1.7575    -0.0466 H       
  25 H25           -0.6411    -0.6927     0.0435 H       
  26 H26            1.5472    -1.7553     0.3994 H       
  27 H27            3.3844     2.1150     0.5871 H       
  28 H28            1.0765     6.0292    -0.1964 H       
  29 H29            2.7110     5.9594    -4.0101 H       
  30 H30            2.9294     3.5083    -3.9454 H       
  31 H31            2.1947     2.2746    -1.9174 H       
  32 H32            3.2509    -2.4207     0.5961 H       
  33 H33            4.3619    -4.1025     2.1550 H       
  34 H34            6.5188    -5.1551     2.6995 H       
  35 H35            8.6207    -4.1210     1.9462 H       
  36 H36            6.4191    -0.9736     0.0897 H       
@<TRIPOS>BOND
   1    1    2 ar
   2    1    6 ar
   3    1   24 1
   4    2    3 ar
   5    2   25 1
   6    3    4 ar
   7    3   26 1
   8    4    5 ar
   9    4   22 1
  10    5    6 ar
  11    5   27 1
  12    6    7 1
  13    7    8 1
  14    8    9 ar
  15    8   13 ar
  16    9   10 ar
  17    9   28 1
  18   10   11 ar
  19   11   12 ar
  20   11   29 1
  21   12   13 ar
  22   12   30 1
  23   13   31 1
  24   14   15 1
  25   14   22 am
  26   14   32 1
  27   15   16 ar
  28   15   20 ar
  29   16   17 ar
  30   16   33 1
  31   17   18 ar
  32   17   34 1
  33   18   19 ar
  34   18   35 1
  35   19   20 ar
  36   19   21 1
  37   20   36 1
  38   22   23 2

#	End of record

