#	Name: ASD01000093
#	Creating user name:	WinNT
#	Creation time:	15. 06. 2019 18:54

#	Modifying user name:	WinNT
#	Modification time:	15. 06. 2019 18:54

#	Program:	/corina/corina34_cracker 3.40 0067  02.08.2006

@<TRIPOS>MOLECULE
ASD01000093
  66   69    0    0    0
SMALL
NO_CHARGES


@<TRIPOS>ATOM
   1 C1             1.0368     0.5389     0.6031 C.2     
   2 C2             0.5045    -0.5954    -0.2342 C.3     
   3 C3             1.3112    -1.8633     0.0528 C.3     
   4 C4            -1.4006    -0.4787     2.4656 C.3     
   5 C5            -1.2609    -1.5089     1.3430 C.3     
   6 N6            -0.9038    -0.8273     0.0964 N.am    
   7 C7             0.8408    -2.9874    -0.8724 C.3     
   8 C8            -2.3868    -0.9975     3.5140 C.3     
   9 N9            -2.5209    -0.0083     4.5918 N.3     
  10 C10           -1.8708    -0.4137    -0.7464 C.2     
  11 C11           -3.2805    -0.7780    -0.4899 C.ar    
  12 O12           -1.5839     0.2589    -1.7174 O.2     
  13 C13           -4.0583    -1.3299    -1.5090 C.ar    
  14 C14           -5.3731    -1.6677    -1.2630 C.ar    
  15 C15           -5.9209    -1.4604    -0.0095 C.ar    
  16 C16           -5.1555    -0.9133     1.0049 C.ar    
  17 C17           -3.8376    -0.5769     0.7739 C.ar    
  18 N18            1.9017     1.4189     0.0387 N.am    
  19 C19            2.2952     1.2477    -1.3620 C.3     
  20 C20            1.3531     2.0227    -2.2468 C.ar    
  21 C21            1.4908     3.3926    -2.3708 C.ar    
  22 C22            0.3547     1.3630    -2.9388 C.ar    
  23 C23           -0.5095     2.0738    -3.7504 C.ar    
  24 C24           -0.3756     3.4445    -3.8696 C.ar    
  25 C25            0.6266     4.1035    -3.1824 C.ar    
  26 C26           -7.3579    -1.8318     0.2519 C.3     
  27 C27            2.4041     2.4500     0.7499 C.2     
  28 C28            1.9846     2.5899     2.1563 C.2     
  29 C29            1.0855     1.6220     2.6366 C.2     
  30 N30            0.6461     0.6428     1.8413 N.2     
  31 O31            3.1812     3.2410     0.2451 O.2     
  32 C32            2.3238     3.5333     3.1306 C.2     
  33 N33            1.8053     3.4255     4.3079 N.2     
  34 S34            0.7898     2.0668     4.3198 S.3     
  35 C35            3.2779     4.6555     2.8124 C.3     
  36 H36            0.5925    -0.3399    -1.2902 H       
  37 H37            2.3693    -1.6680    -0.1217 H       
  38 H38            1.1631    -2.1611     1.0908 H       
  39 H39           -0.4287    -0.3143     2.9308 H       
  40 H40           -1.7695     0.4604     2.0530 H       
  41 H41           -0.4809    -2.2249     1.6020 H       
  42 H42           -2.2070    -2.0339     1.2119 H       
  43 H43            1.4155    -3.8908    -0.6680 H       
  44 H44           -0.2173    -3.1827    -0.6979 H       
  45 H45            0.9889    -2.6897    -1.9104 H       
  46 H46           -3.3587    -1.1619     3.0487 H       
  47 H47           -2.0179    -1.9365     3.9265 H       
  48 H48           -3.1675    -0.3279     5.2974 H       
  49 H49           -1.6227     0.2096     4.9965 H       
  50 H50           -3.6320    -1.4919    -2.4880 H       
  51 H51           -5.9762    -2.0945    -2.0507 H       
  52 H52           -5.5892    -0.7538     1.9810 H       
  53 H53           -3.2410    -0.1503     1.5667 H       
  54 H54            3.3113     1.6169    -1.5017 H       
  55 H55            2.2535     0.1907    -1.6246 H       
  56 H56            2.2734     3.9075    -1.8334 H       
  57 H57            0.2501     0.2921    -2.8456 H       
  58 H58           -1.2891     1.5583    -4.2916 H       
  59 H59           -1.0506     3.9998    -4.5040 H       
  60 H60            0.7312     5.1743    -3.2756 H       
  61 H61           -7.4090    -2.8635     0.5998 H       
  62 H62           -7.7712    -1.1706     1.0136 H       
  63 H63           -7.9327    -1.7298    -0.6685 H       
  64 H64            2.7182     5.5140     2.4413 H       
  65 H65            3.8205     4.9379     3.7146 H       
  66 H66            3.9852     4.3262     2.0512 H       
@<TRIPOS>BOND
   1    1    2 1
   2    1   18 1
   3    1   30 2
   4    2    3 1
   5    2    6 1
   6    2   36 1
   7    3    7 1
   8    3   37 1
   9    3   38 1
  10    4    5 1
  11    4    8 1
  12    4   39 1
  13    4   40 1
  14    5    6 1
  15    5   41 1
  16    5   42 1
  17    6   10 am
  18    7   43 1
  19    7   44 1
  20    7   45 1
  21    8    9 1
  22    8   46 1
  23    8   47 1
  24    9   48 1
  25    9   49 1
  26   10   11 1
  27   10   12 2
  28   11   13 ar
  29   11   17 ar
  30   13   14 ar
  31   13   50 1
  32   14   15 ar
  33   14   51 1
  34   15   16 ar
  35   15   26 1
  36   16   17 ar
  37   16   52 1
  38   17   53 1
  39   18   19 1
  40   18   27 am
  41   19   20 1
  42   19   54 1
  43   19   55 1
  44   20   21 ar
  45   20   22 ar
  46   21   25 ar
  47   21   56 1
  48   22   23 ar
  49   22   57 1
  50   23   24 ar
  51   23   58 1
  52   24   25 ar
  53   24   59 1
  54   25   60 1
  55   26   61 1
  56   26   62 1
  57   26   63 1
  58   27   28 1
  59   27   31 2
  60   28   29 2
  61   28   32 1
  62   29   30 1
  63   29   34 1
  64   32   33 2
  65   32   35 1
  66   33   34 1
  67   35   64 1
  68   35   65 1
  69   35   66 1

#	End of record

