#	Name: ASD01917826
#	Creating user name:	WinNT
#	Creation time:	15. 06. 2019 20:10

#	Modifying user name:	WinNT
#	Modification time:	15. 06. 2019 20:10

#	Program:	/corina/corina34_cracker 3.40 0067  02.08.2006

@<TRIPOS>MOLECULE
ASD01917826
  43   46    0    0    0
SMALL
NO_CHARGES


@<TRIPOS>ATOM
   1 C1            -0.5704     1.8019     1.0744 C.2     
   2 C2            -0.3590     0.4721     1.1080 C.2     
   3 C3            -1.3824    -0.5663     0.7240 C.3     
   4 C4            -2.7732     0.0803     0.7375 C.3     
   5 N5            -2.7060     1.3825     0.0576 N.am    
   6 C6            -1.8714     2.4408     0.6551 C.3     
   7 C7            -3.3897     1.6029    -1.0828 C.2     
   8 O8            -3.9923     0.6915    -1.6161 O.2     
   9 O9             0.5591     2.3988     1.4769 O.3     
  10 C10            1.4492     1.4335     1.7562 C.2     
  11 N11            0.8954     0.2729     1.5342 N.2     
  12 C12            2.8574     1.6540     2.2456 C.3     
  13 O13            3.7396     1.7589     1.1263 O.3     
  14 C14            5.0563     1.9607     1.3954 C.ar    
  15 C15            5.9685     2.0718     0.3562 C.ar    
  16 C16            7.3071     2.2770     0.6309 C.ar    
  17 C17            7.7389     2.3716     1.9404 C.ar    
  18 C18            6.8310     2.2606     2.9806 C.ar    
  19 C19            5.4891     2.0614     2.7095 C.ar    
  20 C20           -3.4069     2.9505    -1.6841 C.ar    
  21 C21           -3.2488     3.1053    -3.0655 C.ar    
  22 C22           -3.2659     4.3705    -3.6213 C.ar    
  23 C23           -3.4391     5.4817    -2.8131 C.ar    
  24 C24           -3.5957     5.3326    -1.4425 C.ar    
  25 C25           -3.5868     4.0768    -0.8769 C.ar    
  26 F26           -3.0795     2.0213    -3.8537 F       
  27 F27           -3.4551     6.7163    -3.3615 F       
  28 F28            7.2551     2.3525     4.2600 F       
  29 H29           -1.1640    -0.9421    -0.2756 H       
  30 H30           -1.3548    -1.3883     1.4394 H       
  31 H31           -3.4805    -0.5660     0.2178 H       
  32 H32           -3.0983     0.2236     1.7680 H       
  33 H33           -2.3742     2.8630     1.5251 H       
  34 H34           -1.6810     3.2226    -0.0802 H       
  35 H35            2.8995     2.5739     2.8288 H       
  36 H36            3.1608     0.8137     2.8699 H       
  37 H37            5.6325     1.9977    -0.6676 H       
  38 H38            8.0168     2.3631    -0.1786 H       
  39 H39            8.7855     2.5319     2.1529 H       
  40 H40            4.7806     1.9752     3.5201 H       
  41 H41           -3.1438     4.4928    -4.6874 H       
  42 H42           -3.7300     6.2035    -0.8180 H       
  43 H43           -3.7093     3.9633     0.1902 H       
@<TRIPOS>BOND
   1    1    2 2
   2    1    9 1
   3    1    6 1
   4    2    3 1
   5    2   11 1
   6    3    4 1
   7    3   29 1
   8    3   30 1
   9    4    5 1
  10    4   31 1
  11    4   32 1
  12    5    6 1
  13    5    7 am
  14    6   33 1
  15    6   34 1
  16    7    8 2
  17    7   20 1
  18    9   10 1
  19   10   11 2
  20   10   12 1
  21   12   13 1
  22   12   35 1
  23   12   36 1
  24   13   14 1
  25   14   15 ar
  26   14   19 ar
  27   15   16 ar
  28   15   37 1
  29   16   17 ar
  30   16   38 1
  31   17   18 ar
  32   17   39 1
  33   18   19 ar
  34   18   28 1
  35   19   40 1
  36   20   21 ar
  37   20   25 ar
  38   21   22 ar
  39   21   26 1
  40   22   23 ar
  41   22   41 1
  42   23   24 ar
  43   23   27 1
  44   24   25 ar
  45   24   42 1
  46   25   43 1

#	End of record

