#	Name: ASD04590405
#	Creating user name:	WinNT
#	Creation time:	15. 06. 2019 20:50

#	Modifying user name:	WinNT
#	Modification time:	15. 06. 2019 20:50

#	Program:	/corina/corina34_cracker 3.40 0067  02.08.2006

@<TRIPOS>MOLECULE
ASD04590405
  40   43    0    0    0
SMALL
NO_CHARGES


@<TRIPOS>ATOM
   1 C1            -0.0167     1.3832     0.0096 C.ar    
   2 C2             0.0021    -0.0041     0.0020 C.ar    
   3 C3             2.4020     0.0223    -0.0208 C.ar    
   4 C4             2.3769     1.4283    -0.0130 C.ar    
   5 C5             1.1624     2.0986     0.0022 C.ar    
   6 N6             3.7040    -0.3552    -0.0358 N.2     
   7 C7             4.4709     0.7083    -0.0376 C.2     
   8 N8             3.6969     1.8375    -0.0239 N.pl3   
   9 C9             5.9482     0.6906    -0.0524 C.2     
  10 C10            6.7657    -0.4631    -0.0672 C.2     
  11 C11            8.0579    -0.0539    -0.0781 C.2     
  12 N12            8.0646     1.3050    -0.0705 N.pl3   
  13 N13            6.7360     1.7480    -0.0598 N.2     
  14 N14            6.3188    -1.7944    -0.0701 N.am    
  15 C15            7.2108    -2.8046    -0.0848 C.2     
  16 O16            8.4028    -2.5633    -0.0956 O.2     
  17 C17            6.7415    -4.2026    -0.0879 C.ar    
  18 C18            1.1969    -0.6870    -0.0131 C.ar    
  19 C19            7.2142    -6.5669    -0.1059 C.ar    
  20 C20            5.8578    -6.8319    -0.0935 C.ar    
  21 C21            4.9403    -5.7918    -0.0841 C.ar    
  22 C22            5.3727    -4.4841    -0.0813 C.ar    
  23 C23            7.6660    -5.2562    -0.1032 C.ar    
  24 O24            8.9971    -4.9945    -0.1158 O.3     
  25 C25            9.8792    -6.1186    -0.1311 C.3     
  26 Cl26           5.2993    -8.4756    -0.0976 Cl      
  27 H27           -0.9614     1.9066     0.0170 H       
  28 H28           -0.9283    -0.5525     0.0084 H       
  29 H29            1.1403     3.1784     0.0079 H       
  30 H30            4.0155     2.7537    -0.0224 H       
  31 H31            8.9276    -0.6941    -0.0902 H       
  32 H32            8.8529     1.8702    -0.0754 H       
  33 H33            5.3681    -1.9869    -0.0614 H       
  34 H34            1.2037    -1.7669    -0.0186 H       
  35 H35            7.9230    -7.3818    -0.1128 H       
  36 H36            3.8822    -6.0082    -0.0748 H       
  37 H37            4.6548    -3.6773    -0.0736 H       
  38 H38           10.9119    -5.7700    -0.1401 H       
  39 H39            9.7086    -6.7264     0.7575 H       
  40 H40            9.6899    -6.7169    -1.0223 H       
@<TRIPOS>BOND
   1    1    2 ar
   2    1    5 ar
   3    1   27 1
   4    2   18 ar
   5    2   28 1
   6    3    4 ar
   7    3    6 1
   8    3   18 ar
   9    4    5 ar
  10    4    8 1
  11    5   29 1
  12    6    7 2
  13    7    8 1
  14    7    9 1
  15    8   30 1
  16    9   10 1
  17    9   13 2
  18   10   11 2
  19   10   14 1
  20   11   12 1
  21   11   31 1
  22   12   13 1
  23   12   32 1
  24   14   15 am
  25   14   33 1
  26   15   16 2
  27   15   17 1
  28   17   23 ar
  29   17   22 ar
  30   18   34 1
  31   19   20 ar
  32   19   23 ar
  33   19   35 1
  34   20   21 ar
  35   20   26 1
  36   21   22 ar
  37   21   36 1
  38   22   37 1
  39   23   24 1
  40   24   25 1
  41   25   38 1
  42   25   39 1
  43   25   40 1

#	End of record

