#	Name: ASD01810080
#	Creating user name:	WinNT
#	Creation time:	15. 06. 2019 19:23

#	Modifying user name:	WinNT
#	Modification time:	15. 06. 2019 19:23

#	Program:	/corina/corina34_cracker 3.40 0067  02.08.2006

@<TRIPOS>MOLECULE
ASD01810080
  33   35    0    0    0
SMALL
NO_CHARGES


@<TRIPOS>ATOM
   1 O1            -0.0173     1.4248     0.0099 O.3     
   2 C2             7.6996     1.9308     3.9302 C.ar    
   3 C3             7.4577     1.4173     2.6673 C.ar    
   4 C4             6.7071     2.1275     1.7486 C.ar    
   5 C5             6.1852     3.3696     2.0839 C.ar    
   6 C6             6.4320     3.8884     3.3658 C.ar    
   7 C7             7.1902     3.1639     4.2847 C.ar    
   8 N8             5.4106     4.2700     1.3562 N.am    
   9 C9             5.1228     5.3665     2.0786 C.2     
  10 C10            5.7603     5.1999     3.4260 C.2     
  11 O11            5.7297     5.9737     4.3603 O.2     
  12 O12            4.4675     6.3178     1.7080 O.2     
  13 C13            4.9659     4.0499    -0.0222 C.3     
  14 C14            3.6326     3.3475    -0.0137 C.ar    
  15 C15            2.4636     4.0858     0.0010 C.ar    
  16 C16            1.2402     3.4444     0.0087 C.ar    
  17 C17            1.1850     2.0582     0.0018 C.ar    
  18 C18            2.3594     1.3196    -0.0129 C.ar    
  19 C19            3.5802     1.9659    -0.0264 C.ar    
  20 C20            0.0021    -0.0041     0.0020 C.3     
  21 F21            0.6787    -0.4675     1.1354 F       
  22 F22           -1.3104    -0.4883     0.0119 F       
  23 F23            0.6569    -0.4552    -1.1490 F       
  24 H24            8.2837     1.3641     4.6401 H       
  25 H25            7.8598     0.4521     2.3969 H       
  26 H26            6.5263     1.7148     0.7670 H       
  27 H27            7.3779     3.5655     5.2696 H       
  28 H28            4.8679     5.0094    -0.5300 H       
  29 H29            5.6973     3.4346    -0.5461 H       
  30 H30            2.5071     5.1650     0.0067 H       
  31 H31            0.3274     4.0215     0.0206 H       
  32 H32            2.3190     0.2404    -0.0180 H       
  33 H33            4.4947     1.3914    -0.0382 H       
@<TRIPOS>BOND
   1    1   20 1
   2    1   17 1
   3    2    3 ar
   4    2    7 ar
   5    2   24 1
   6    3    4 ar
   7    3   25 1
   8    4    5 ar
   9    4   26 1
  10    5    6 ar
  11    5    8 1
  12    6    7 ar
  13    6   10 1
  14    7   27 1
  15    8    9 am
  16    8   13 1
  17    9   10 1
  18    9   12 2
  19   10   11 2
  20   13   14 1
  21   13   28 1
  22   13   29 1
  23   14   15 ar
  24   14   19 ar
  25   15   16 ar
  26   15   30 1
  27   16   17 ar
  28   16   31 1
  29   17   18 ar
  30   18   19 ar
  31   18   32 1
  32   19   33 1
  33   20   21 1
  34   20   22 1
  35   20   23 1

#	End of record

