#	Name: ASD01410468
#	Creating user name:	WinNT
#	Creation time:	15. 06. 2019 19:17

#	Modifying user name:	WinNT
#	Modification time:	15. 06. 2019 19:17

#	Program:	/corina/corina34_cracker 3.40 0067  02.08.2006

@<TRIPOS>MOLECULE
ASD01410468
  58   62    0    0    0
SMALL
NO_CHARGES


@<TRIPOS>ATOM
   1 Cl1            0.2519    -0.1735     0.3038 Cl      
   2 C2             0.1898     1.5598     0.2275 C.ar    
   3 C3             1.0491     2.2441    -0.6166 C.ar    
   4 C4             1.0054     3.6206    -0.6823 C.ar    
   5 C5             0.0922     4.3258     0.1039 C.ar    
   6 C6            -0.7728     3.6304     0.9535 C.ar    
   7 C7            -0.7222     2.2518     1.0063 C.ar    
   8 Cl8           -1.9121     4.4976     1.9352 Cl      
   9 C9             0.0407     5.8006     0.0384 C.2     
  10 O10           -1.0082     6.3616    -0.2126 O.2     
  11 N11            1.1565     6.5242     0.2570 N.am    
  12 C12            1.1341     7.9778     0.0758 C.3     
  13 C13            0.1979     8.5951     1.0825 C.2     
  14 O14           -0.3903     7.8929     1.8705 O.2     
  15 O15            0.0174     9.9250     1.1038 O.3     
  16 C16            0.6523     8.3081    -1.3383 C.3     
  17 C17            1.6584     7.8062    -2.3418 C.ar    
  18 C18            1.5641     6.5160    -2.8290 C.ar    
  19 C19            2.4870     6.0556    -3.7494 C.ar    
  20 C20            3.5038     6.8857    -4.1831 C.ar    
  21 C21            3.5975     8.1762    -3.6966 C.ar    
  22 C22            2.6721     8.6380    -2.7794 C.ar    
  23 C23            2.3918     5.8572     0.6757 C.3     
  24 C24            2.4090     5.7282     2.1771 C.2     
  25 C25            2.0158     4.6485     2.8605 C.2     
  26 C26            2.1193     4.7543     4.2308 C.2     
  27 C27            2.6036     5.9369     4.6700 C.2     
  28 S28            2.9563     6.9725     3.2927 S.3     
  29 C29            2.8098     6.2996     6.0807 C.2     
  30 C30            3.2968     7.4893     6.5182 C.2     
  31 C31            3.3279     7.4019     7.9794 C.ar    
  32 C32            2.8388     6.1213     8.2945 C.ar    
  33 O33            2.5382     5.5030     7.1339 O.3     
  34 C34            2.7493     5.7395     9.6266 C.ar    
  35 C35            3.1382     6.6145    10.6194 C.ar    
  36 C36            3.6195     7.8768    10.3031 C.ar    
  37 C37            3.7164     8.2736     8.9983 C.ar    
  38 H38            1.7553     1.6980    -1.2244 H       
  39 H39            1.6766     4.1524    -1.3404 H       
  40 H40           -1.3899     1.7126     1.6619 H       
  41 H41            2.1378     8.3774     0.2203 H       
  42 H42           -0.5928    10.2747     1.7675 H       
  43 H43           -0.3094     7.8269    -1.5161 H       
  44 H44            0.5431     9.3876    -1.4420 H       
  45 H45            0.7697     5.8675    -2.4901 H       
  46 H46            2.4138     5.0474    -4.1295 H       
  47 H47            4.2252     6.5257    -4.9017 H       
  48 H48            4.3921     8.8245    -4.0352 H       
  49 H49            2.7453     9.6462    -2.3993 H       
  50 H50            2.4400     4.8657     0.2253 H       
  51 H51            3.2502     6.4456     0.3517 H       
  52 H52            1.6440     3.7586     2.3744 H       
  53 H53            1.8356     3.9558     4.9003 H       
  54 H54            3.6003     8.3295     5.9113 H       
  55 H55            2.3755     4.7597     9.8848 H       
  56 H56            3.0670     6.3139    11.6543 H       
  57 H57            3.9192     8.5502    11.0924 H       
  58 H58            4.0917     9.2571     8.7569 H       
@<TRIPOS>BOND
   1    1    2 1
   2    2    3 ar
   3    2    7 ar
   4    3    4 ar
   5    3   38 1
   6    4    5 ar
   7    4   39 1
   8    5    6 ar
   9    5    9 1
  10    6    7 ar
  11    6    8 1
  12    7   40 1
  13    9   10 2
  14    9   11 am
  15   11   12 1
  16   11   23 1
  17   12   13 1
  18   12   16 1
  19   12   41 1
  20   13   14 2
  21   13   15 1
  22   15   42 1
  23   16   17 1
  24   16   43 1
  25   16   44 1
  26   17   18 ar
  27   17   22 ar
  28   18   19 ar
  29   18   45 1
  30   19   20 ar
  31   19   46 1
  32   20   21 ar
  33   20   47 1
  34   21   22 ar
  35   21   48 1
  36   22   49 1
  37   23   24 1
  38   23   50 1
  39   23   51 1
  40   24   25 2
  41   24   28 1
  42   25   26 1
  43   25   52 1
  44   26   27 2
  45   26   53 1
  46   27   28 1
  47   27   29 1
  48   29   30 2
  49   29   33 1
  50   30   31 1
  51   30   54 1
  52   31   32 ar
  53   31   37 ar
  54   32   33 1
  55   32   34 ar
  56   34   35 ar
  57   34   55 1
  58   35   36 ar
  59   35   56 1
  60   36   37 ar
  61   36   57 1
  62   37   58 1

#	End of record

