#	Name: ASD01916743
#	Creating user name:	WinNT
#	Creation time:	15. 06. 2019 20:07

#	Modifying user name:	WinNT
#	Modification time:	15. 06. 2019 20:07

#	Program:	/corina/corina34_cracker 3.40 0067  02.08.2006

@<TRIPOS>MOLECULE
ASD01916743
  19   18    0    0    0
SMALL
NO_CHARGES


@<TRIPOS>ATOM
   1 C1            -0.0184     1.5028     0.0103 C.2     
   2 C2             0.0021    -0.0041     0.0020 C.3     
   3 C3             1.4513    -0.4944    -0.0145 C.3     
   4 C4             1.4713    -1.9662    -0.0225 C.1     
   5 C5             1.4872    -3.1401    -0.0290 C.1     
   6 O6             1.0197     2.1211     0.0037 O.2     
   7 O7            -1.1898     2.1580     0.0194 O.3     
   8 C8            -1.1335     3.6089     0.0270 C.3     
   9 C9            -2.5551     4.1744     0.0369 C.3     
  10 H10           -0.4983    -0.3791     0.8948 H       
  11 H11           -0.5153    -0.3696    -0.8850 H       
  12 H12            1.9516    -0.1193    -0.9073 H       
  13 H13            1.9686    -0.1289     0.8726 H       
  14 H14            1.5014    -4.1900    -0.0348 H       
  15 H15           -0.6017     3.9472     0.9164 H       
  16 H16           -0.6102     3.9569    -0.8636 H       
  17 H17           -3.0869     3.8361    -0.8525 H       
  18 H18           -3.0784     3.8265     0.9275 H       
  19 H19           -2.5128     5.2636     0.0426 H       
@<TRIPOS>BOND
   1    1    2 1
   2    1    6 2
   3    1    7 1
   4    2    3 1
   5    2   10 1
   6    2   11 1
   7    3    4 1
   8    3   12 1
   9    3   13 1
  10    4    5 3
  11    5   14 1
  12    7    8 1
  13    8    9 1
  14    8   15 1
  15    8   16 1
  16    9   17 1
  17    9   18 1
  18    9   19 1

#	End of record

