#	Name: ASD09116394
#	Creating user name:	WinNT
#	Creation time:	15. 06. 2019 21:21

#	Modifying user name:	WinNT
#	Modification time:	15. 06. 2019 21:21

#	Program:	/corina/corina34_cracker 3.40 0067  02.08.2006

@<TRIPOS>MOLECULE
ASD09116394
  72   78    0    0    0
SMALL
NO_CHARGES


@<TRIPOS>ATOM
   1 N1            -0.1424     1.7954    -0.2832 N.2     
   2 N2            -0.1883     0.4575    -0.7070 N.pl3   
   3 C3             1.1201     2.1507    -0.2733 C.2     
   4 N4             1.8682     1.1131    -0.6663 N.2     
   5 C5             1.0931     0.0834    -0.9317 C.2     
   6 N6             1.5130    -1.1603    -1.3639 N.pl3   
   7 C7            -1.3298    -0.3312    -0.8648 C.ar    
   8 N8             1.6049     3.4077     0.0880 N.pl3   
   9 C9             2.9853     3.6311     0.1620 C.ar    
  10 C10            3.4999     4.8929    -0.1059 C.ar    
  11 C11            3.8392     2.5922     0.5088 C.ar    
  12 C12            5.2004     2.8125     0.5816 C.ar    
  13 C13            5.7155     4.0728     0.3081 C.ar    
  14 C14            4.8611     5.1131    -0.0331 C.ar    
  15 N15           -1.3164    -1.3562    -1.7033 N.ar    
  16 N16           -2.3456    -2.0995    -1.8986 N.ar    
  17 C17           -3.4931    -1.8812    -1.2681 C.ar    
  18 C18           -3.5872    -0.8516    -0.3356 C.ar    
  19 C19           -2.4848    -0.0431    -0.1343 C.ar    
  20 C20           -4.6942    -2.6843    -1.5902 C.ar    
  21 C21           -5.8871    -2.0341    -1.9234 C.ar    
  22 S22           -5.9132    -0.2735    -2.0022 S.3     
  23 C23           -5.8514     0.2192    -0.2521 C.3     
  24 C24           -4.8353    -0.6688     0.4725 C.3     
  25 C25           -4.6503    -4.0748    -1.5614 C.ar    
  26 C26           -5.7906    -4.8006    -1.8464 C.ar    
  27 C27           -6.9742    -4.1538    -2.1575 C.ar    
  28 C28           -7.0276    -2.7726    -2.1968 C.ar    
  29 N29            7.0953     4.2960     0.3820 N.3     
  30 C30            7.4210     5.6904     0.0562 C.3     
  31 C31            7.8264     3.3634    -0.4852 C.3     
  32 C32            9.3315     3.5379    -0.2700 C.3     
  33 C33            9.7247     4.9816    -0.5953 C.3     
  34 C34            8.9139     5.9343     0.2876 C.3     
  35 N35           11.1579     5.1707    -0.3346 N.3     
  36 C36           11.9726     4.3088    -1.2106 C.3     
  37 C37           11.5557     6.5772    -0.5562 C.3     
  38 C38           13.0037     6.4977    -1.1008 C.3     
  39 C39           12.9345     5.2291    -1.9911 C.3     
  40 H40            2.4580    -1.3337    -1.4976 H       
  41 H41            0.8628    -1.8598    -1.5337 H       
  42 H42            0.9858     4.1271     0.2882 H       
  43 H43            2.8355     5.7018    -0.3716 H       
  44 H44            3.4386     1.6121     0.7218 H       
  45 H45            5.8644     2.0047     0.8517 H       
  46 H46            5.2617     6.0932    -0.2458 H       
  47 H47           -2.5175     0.7860     0.5570 H       
  48 H48           -5.5447     1.2624    -0.1766 H       
  49 H49           -6.8356     0.0915     0.1986 H       
  50 H50           -5.2844    -1.6443     0.6590 H       
  51 H51           -4.5774    -0.2090     1.4265 H       
  52 H52           -3.7295    -4.5840    -1.3179 H       
  53 H53           -5.7584    -5.8799    -1.8267 H       
  54 H54           -7.8614    -4.7314    -2.3711 H       
  55 H55           -7.9534    -2.2719    -2.4389 H       
  56 H56            7.1788     5.8854    -0.9885 H       
  57 H57            6.8409     6.3574     0.6940 H       
  58 H58            7.5408     2.3403    -0.2408 H       
  59 H59            7.5823     3.5693    -1.5274 H       
  60 H60            9.5784     3.3188     0.7688 H       
  61 H61            9.8742     2.8565    -0.9252 H       
  62 H62            9.5139     5.1890    -1.6444 H       
  63 H63            9.1583     6.9651     0.0309 H       
  64 H64            9.1542     5.7529     1.3352 H       
  65 H65           12.5429     3.6015    -0.6085 H       
  66 H66           11.3275     3.7715    -1.9059 H       
  67 H67           10.8997     7.0461    -1.2896 H       
  68 H68           11.5333     7.1304     0.3828 H       
  69 H69           13.2464     7.3789    -1.6948 H       
  70 H70           13.7195     6.3666    -0.2892 H       
  71 H71           13.9182     4.7689    -2.0834 H       
  72 H72           12.5264     5.4692    -2.9729 H       
@<TRIPOS>BOND
   1    1    2 1
   2    1    3 2
   3    2    7 1
   4    2    5 1
   5    3    4 1
   6    3    8 1
   7    4    5 2
   8    5    6 1
   9    6   40 1
  10    6   41 1
  11    7   15 ar
  12    7   19 ar
  13    8    9 1
  14    8   42 1
  15    9   10 ar
  16    9   11 ar
  17   10   14 ar
  18   10   43 1
  19   11   12 ar
  20   11   44 1
  21   12   13 ar
  22   12   45 1
  23   13   14 ar
  24   13   29 1
  25   14   46 1
  26   15   16 ar
  27   16   17 ar
  28   17   18 ar
  29   17   20 1
  30   18   19 ar
  31   18   24 1
  32   19   47 1
  33   20   21 ar
  34   20   25 ar
  35   21   22 1
  36   21   28 ar
  37   22   23 1
  38   23   24 1
  39   23   48 1
  40   23   49 1
  41   24   50 1
  42   24   51 1
  43   25   26 ar
  44   25   52 1
  45   26   27 ar
  46   26   53 1
  47   27   28 ar
  48   27   54 1
  49   28   55 1
  50   29   30 1
  51   29   31 1
  52   30   34 1
  53   30   56 1
  54   30   57 1
  55   31   32 1
  56   31   58 1
  57   31   59 1
  58   32   33 1
  59   32   60 1
  60   32   61 1
  61   33   34 1
  62   33   35 1
  63   33   62 1
  64   34   63 1
  65   34   64 1
  66   35   36 1
  67   35   37 1
  68   36   39 1
  69   36   65 1
  70   36   66 1
  71   37   38 1
  72   37   67 1
  73   37   68 1
  74   38   39 1
  75   38   69 1
  76   38   70 1
  77   39   71 1
  78   39   72 1

#	End of record

