#	Name: ASD08150060
#	Creating user name:	WinNT
#	Creation time:	15. 06. 2019 21:15

#	Modifying user name:	WinNT
#	Modification time:	15. 06. 2019 21:15

#	Program:	/corina/corina34_cracker 3.40 0067  02.08.2006

@<TRIPOS>MOLECULE
ASD08150060
  56   58    0    0    0
SMALL
NO_CHARGES


@<TRIPOS>ATOM
   1 O1            -2.3608     3.1162    -1.1916 O.3     
   2 C2            -2.9590     1.9834    -1.5769 C.2     
   3 N3            -2.1085     1.0375    -1.9982 N.am    
   4 C4            -0.7351     1.5557    -1.9032 C.3     
   5 C5            -0.9185     2.9817    -1.3490 C.3     
   6 O6            -4.1635     1.8263    -1.5468 O.2     
   7 C7            -0.0792     1.5962    -3.2848 C.3     
   8 C8            -0.2157     3.1266     0.0022 C.3     
   9 C9            -0.3908     4.5566     0.5174 C.3     
  10 O10            0.2657     4.6919     1.7795 O.3     
  11 Si11           0.2398     6.2075     2.3816 Si      
  12 C12           -1.5204     6.8315     2.4220 C.ar    
  13 C13           -2.0877     7.2226     3.6204 C.ar    
  14 C14           -3.3903     7.6843     3.6504 C.ar    
  15 C15           -4.1255     7.7553     2.4819 C.ar    
  16 C16           -3.5579     7.3651     1.2834 C.ar    
  17 C17           -2.2538     6.9074     1.2528 C.ar    
  18 C18            0.9382     6.2012     4.1141 C.ar    
  19 C19            0.1348     5.8473     5.1819 C.ar    
  20 C20            0.6516     5.8427     6.4640 C.ar    
  21 C21            1.9719     6.1915     6.6783 C.ar    
  22 C22            2.7756     6.5446     5.6104 C.ar    
  23 C23            2.2600     6.5450     4.3278 C.ar    
  24 C24            1.2693     7.3226     1.3011 C.3     
  25 C25            0.4726     7.6978     0.0499 C.3     
  26 C26            1.6303     8.5918     2.0755 C.3     
  27 C27            2.5505     6.5939     0.8905 C.3     
  28 H28           -2.3578     0.1550    -2.3144 H       
  29 H29           -0.1444     0.9507    -1.2154 H       
  30 H30           -0.5412     3.7187    -2.0581 H       
  31 H31           -0.6714     2.2248    -3.9499 H       
  32 H32            0.9269     2.0064    -3.1975 H       
  33 H33           -0.0257     0.5863    -3.6914 H       
  34 H34           -0.6520     2.4274     0.7155 H       
  35 H35            0.8461     2.9103    -0.1155 H       
  36 H36            0.0456     5.2558    -0.1959 H       
  37 H37           -1.4526     4.7729     0.6352 H       
  38 H38           -1.5134     7.1671     4.5333 H       
  39 H39           -3.8338     7.9892     4.5867 H       
  40 H40           -5.1434     8.1154     2.5054 H       
  41 H41           -4.1324     7.4203     0.3705 H       
  42 H42           -1.8092     6.6060     0.3159 H       
  43 H43           -0.8968     5.5747     5.0145 H       
  44 H44            0.0237     5.5669     7.2983 H       
  45 H45            2.3755     6.1886     7.6800 H       
  46 H46            3.8070     6.8174     5.7778 H       
  47 H47            2.8888     6.8172     3.4930 H       
  48 H48           -0.4827     8.1324     0.3443 H       
  49 H49            1.0368     8.4234    -0.5360 H       
  50 H50            0.2962     6.8049    -0.5498 H       
  51 H51            2.2902     8.3362     2.9046 H       
  52 H52            2.1366     9.2915     1.4106 H       
  53 H53            0.7213     9.0518     2.4631 H       
  54 H54            2.2975     5.7414     0.2601 H       
  55 H55            3.1951     7.2765     0.3368 H       
  56 H56            3.0715     6.2447     1.7819 H       
@<TRIPOS>BOND
   1    1    2 1
   2    1    5 1
   3    2    3 am
   4    2    6 2
   5    3    4 1
   6    3   28 1
   7    4    5 1
   8    4    7 1
   9    4   29 1
  10    5    8 1
  11    5   30 1
  12    7   31 1
  13    7   32 1
  14    7   33 1
  15    8    9 1
  16    8   34 1
  17    8   35 1
  18    9   10 1
  19    9   36 1
  20    9   37 1
  21   10   11 1
  22   11   12 1
  23   11   18 1
  24   11   24 1
  25   12   13 ar
  26   12   17 ar
  27   13   14 ar
  28   13   38 1
  29   14   15 ar
  30   14   39 1
  31   15   16 ar
  32   15   40 1
  33   16   17 ar
  34   16   41 1
  35   17   42 1
  36   18   19 ar
  37   18   23 ar
  38   19   20 ar
  39   19   43 1
  40   20   21 ar
  41   20   44 1
  42   21   22 ar
  43   21   45 1
  44   22   23 ar
  45   22   46 1
  46   23   47 1
  47   24   25 1
  48   24   27 1
  49   24   26 1
  50   25   48 1
  51   25   49 1
  52   25   50 1
  53   26   51 1
  54   26   52 1
  55   26   53 1
  56   27   54 1
  57   27   55 1
  58   27   56 1

#	End of record

