#	Name: ASD01816213
#	Creating user name:	WinNT
#	Creation time:	15. 06. 2019 19:34

#	Modifying user name:	WinNT
#	Modification time:	15. 06. 2019 19:34

#	Program:	/corina/corina34_cracker 3.40 0067  02.08.2006

@<TRIPOS>MOLECULE
ASD01816213
  68   73    0    0    0
SMALL
NO_CHARGES


@<TRIPOS>ATOM
   1 C1            -0.0167     1.3813     0.0096 C.ar    
   2 C2             0.0021    -0.0041     0.0020 C.ar    
   3 C3             1.1984    -0.6909    -0.0131 C.ar    
   4 C4             2.4015     0.0059    -0.0203 C.ar    
   5 C5             2.3790     1.4106    -0.0126 C.ar    
   6 C6             1.1663     2.0916     0.0022 C.ar    
   7 N7             3.6053    -0.6772    -0.0345 N.pl3   
   8 C8             4.7970    -0.0586    -0.0420 C.2     
   9 C9             4.9000     1.3103    -0.0361 C.2     
  10 C10            3.6670     2.1301    -0.0205 C.2     
  11 C11            5.9971     2.2729    -0.0415 C.2     
  12 N12            5.4246     3.4960    -0.0304 N.am    
  13 N13            4.0323     3.3799    -0.0179 N.2     
  14 C14            6.1265     4.7082    -0.0309 C.ar    
  15 C15            5.8873     5.6525     0.9617 C.ar    
  16 C16            7.0667     4.9675    -1.0190 C.ar    
  17 C17            7.7574     6.1637    -1.0169 C.ar    
  18 C18            7.5143     7.1036    -0.0320 C.ar    
  19 C19            6.5827     6.8481     0.9573 C.ar    
  20 F20            4.9771     5.4027     1.9283 F       
  21 O21            7.1914     2.0229    -0.0529 O.2     
  22 C22            3.5779    -2.1419    -0.0411 C.3     
  23 C23            3.5552    -2.6451    -1.4858 C.3     
  24 C24            3.5266    -4.1748    -1.4927 C.3     
  25 C25            3.3782    -4.6755    -2.9312 C.3     
  26 C26            3.3151    -6.2061    -2.9310 C.3     
  27 N27            4.4958    -6.7280    -2.2292 N.am    
  28 C28            4.7828    -6.2429    -0.8724 C.3     
  29 C29            4.8294    -4.7118    -0.8957 C.3     
  30 C30            5.3000    -7.6347    -2.8187 C.2     
  31 O31            5.0515    -8.0284    -3.9411 O.2     
  32 O32            6.3785    -8.1044    -2.1639 O.3     
  33 C33            8.3518    -9.4864    -1.9783 C.ar    
  34 C34            8.2170   -10.5589    -1.1165 C.ar    
  35 C35            9.2757   -10.9363    -0.3119 C.ar    
  36 C36           10.4694   -10.2415    -0.3692 C.ar    
  37 C37           10.6045    -9.1696    -1.2316 C.ar    
  38 C38            9.5453    -8.7914    -2.0353 C.ar    
  39 C39            7.1996    -9.0789    -2.8600 C.3     
  40 H40           -0.9602     1.9068     0.0169 H       
  41 H41           -0.9289    -0.5516     0.0083 H       
  42 H42            1.2004    -1.7709    -0.0189 H       
  43 H43            1.1506     3.1715     0.0084 H       
  44 H44            5.6983    -0.6536    -0.0527 H       
  45 H45            7.2583     4.2342    -1.7884 H       
  46 H46            8.4887     6.3652    -1.7856 H       
  47 H47            8.0566     8.0375    -0.0330 H       
  48 H48            6.3950     7.5844     1.7248 H       
  49 H49            4.4656    -2.5242     0.4629 H       
  50 H50            2.6860    -2.4910     0.4793 H       
  51 H51            2.6675    -2.2628    -1.9898 H       
  52 H52            4.4471    -2.2960    -2.0062 H       
  53 H53            2.6832    -4.5249    -0.8975 H       
  54 H54            2.4618    -4.2737    -3.3636 H       
  55 H55            4.2339    -4.3468    -3.5210 H       
  56 H56            2.4108    -6.5345    -2.4187 H       
  57 H57            3.3092    -6.5718    -3.9578 H       
  58 H58            3.9981    -6.5742    -0.1922 H       
  59 H59            5.7452    -6.6327    -0.5409 H       
  60 H60            5.6714    -4.3827    -1.5046 H       
  61 H61            4.9459    -4.3359     0.1208 H       
  62 H62            7.2844   -11.1017    -1.0717 H       
  63 H63            9.1702   -11.7737     0.3619 H       
  64 H64           11.2963   -10.5359     0.2600 H       
  65 H65           11.5369    -8.6264    -1.2759 H       
  66 H66            9.6506    -7.9535    -2.7085 H       
  67 H67            6.5981    -9.9556    -3.1002 H       
  68 H68            7.5842    -8.6389    -3.7802 H       
@<TRIPOS>BOND
   1    1    2 ar
   2    1    6 ar
   3    1   40 1
   4    2    3 ar
   5    2   41 1
   6    3    4 ar
   7    3   42 1
   8    4    5 ar
   9    4    7 1
  10    5    6 ar
  11    5   10 1
  12    6   43 1
  13    7    8 1
  14    7   22 1
  15    8    9 2
  16    8   44 1
  17    9   10 1
  18    9   11 1
  19   10   13 2
  20   11   12 am
  21   11   21 2
  22   12   13 1
  23   12   14 1
  24   14   15 ar
  25   14   16 ar
  26   15   20 1
  27   15   19 ar
  28   16   17 ar
  29   16   45 1
  30   17   18 ar
  31   17   46 1
  32   18   19 ar
  33   18   47 1
  34   19   48 1
  35   22   23 1
  36   22   49 1
  37   22   50 1
  38   23   24 1
  39   23   51 1
  40   23   52 1
  41   24   25 1
  42   24   29 1
  43   24   53 1
  44   25   26 1
  45   25   54 1
  46   25   55 1
  47   26   27 1
  48   26   56 1
  49   26   57 1
  50   27   28 1
  51   27   30 am
  52   28   29 1
  53   28   58 1
  54   28   59 1
  55   29   60 1
  56   29   61 1
  57   30   31 2
  58   30   32 1
  59   32   39 1
  60   33   34 ar
  61   33   38 ar
  62   33   39 1
  63   34   35 ar
  64   34   62 1
  65   35   36 ar
  66   35   63 1
  67   36   37 ar
  68   36   64 1
  69   37   38 ar
  70   37   65 1
  71   38   66 1
  72   39   67 1
  73   39   68 1

#	End of record

