#	Name: ASD01816120
#	Creating user name:	WinNT
#	Creation time:	15. 06. 2019 19:34

#	Modifying user name:	WinNT
#	Modification time:	15. 06. 2019 19:34

#	Program:	/corina/corina34_cracker 3.40 0067  02.08.2006

@<TRIPOS>MOLECULE
ASD01816120
  60   65    0    0    0
SMALL
NO_CHARGES


@<TRIPOS>ATOM
   1 C1            -0.0167     1.3813     0.0096 C.ar    
   2 C2             0.0021    -0.0041     0.0020 C.ar    
   3 C3             1.1984    -0.6909    -0.0127 C.ar    
   4 C4             2.4015     0.0059    -0.0200 C.ar    
   5 C5             2.3790     1.4106    -0.0127 C.ar    
   6 C6             1.1663     2.0916     0.0022 C.ar    
   7 N7             3.6053    -0.6772    -0.0338 N.pl3   
   8 C8             4.7970    -0.0586    -0.0409 C.2     
   9 C9             4.9000     1.3103    -0.0349 C.2     
  10 C10            3.6670     2.1301    -0.0207 C.2     
  11 C11            5.9971     2.2729    -0.0391 C.2     
  12 N12            5.4246     3.4960    -0.0282 N.am    
  13 N13            4.0323     3.3799    -0.0174 N.2     
  14 O14            7.1915     2.0229    -0.0495 O.2     
  15 C15            3.5779    -2.1419    -0.0404 C.3     
  16 C16            3.5560    -2.6375    -1.4634 C.ar    
  17 N17            2.4046    -2.7352    -2.0991 N.ar    
  18 C18            2.3311    -3.1625    -3.3431 C.ar    
  19 C19            3.4830    -3.5302    -4.0357 C.ar    
  20 C20            4.7191    -3.4380    -3.3891 C.ar    
  21 C21            4.7444    -2.9775    -2.0842 C.ar    
  22 C22            6.1265     4.7081    -0.0278 C.ar    
  23 C23            5.8865     5.6523     0.9648 C.ar    
  24 C24            7.0677     4.9677    -1.0150 C.ar    
  25 C25            7.7583     6.1639    -1.0120 C.ar    
  26 C26            7.5140     7.1037    -0.0273 C.ar    
  27 C27            6.5819     6.8478     0.9614 C.ar    
  28 F28            4.9754     5.4022     1.9305 F       
  29 C29            3.3990    -4.0121    -5.4357 C.ar    
  30 C30            4.2252    -3.4696    -6.4232 C.ar    
  31 C31            2.4954    -5.0206    -5.7864 C.ar    
  32 N32            2.4203    -5.4510    -7.0343 N.ar    
  33 C33            3.1875    -4.9510    -7.9898 C.ar    
  34 C34            4.1115    -3.9508    -7.7145 C.ar    
  35 O35            1.6903    -5.5616    -4.8388 O.3     
  36 C36            0.7897    -6.5875    -5.2612 C.3     
  37 O37            3.0734    -5.4256    -9.2554 O.3     
  38 C38            2.1100    -6.4575    -9.4769 C.3     
  39 H39           -0.9602     1.9068     0.0170 H       
  40 H40           -0.9289    -0.5515     0.0080 H       
  41 H41            1.2004    -1.7709    -0.0181 H       
  42 H42            1.1506     3.1715     0.0077 H       
  43 H43            5.6983    -0.6536    -0.0513 H       
  44 H44            4.4654    -2.5242     0.4639 H       
  45 H45            2.6859    -2.4910     0.4797 H       
  46 H46            1.3695    -3.2288    -3.8303 H       
  47 H47            5.6314    -3.7147    -3.8965 H       
  48 H48            5.6812    -2.8927    -1.5534 H       
  49 H49            7.2599     4.2346    -1.7845 H       
  50 H50            8.4906     6.3655    -1.7798 H       
  51 H51            8.0560     8.0378    -0.0278 H       
  52 H52            6.3934     7.5839     1.7289 H       
  53 H53            4.9358    -2.6924    -6.1836 H       
  54 H54            4.7323    -3.5503    -8.5023 H       
  55 H55            0.1192    -6.1910    -6.0236 H       
  56 H56            1.3570    -7.4214    -5.6744 H       
  57 H57            0.2059    -6.9325    -4.4078 H       
  58 H58            2.3559    -7.3224    -8.8608 H       
  59 H59            1.1183    -6.0919    -9.2107 H       
  60 H60            2.1211    -6.7453   -10.5282 H       
@<TRIPOS>BOND
   1    1    2 ar
   2    1    6 ar
   3    1   39 1
   4    2    3 ar
   5    2   40 1
   6    3    4 ar
   7    3   41 1
   8    4    5 ar
   9    4    7 1
  10    5    6 ar
  11    5   10 1
  12    6   42 1
  13    7    8 1
  14    7   15 1
  15    8    9 2
  16    8   43 1
  17    9   10 1
  18    9   11 1
  19   10   13 2
  20   11   12 am
  21   11   14 2
  22   12   13 1
  23   12   22 1
  24   15   16 1
  25   15   44 1
  26   15   45 1
  27   16   17 ar
  28   16   21 ar
  29   17   18 ar
  30   18   19 ar
  31   18   46 1
  32   19   20 ar
  33   19   29 1
  34   20   21 ar
  35   20   47 1
  36   21   48 1
  37   22   23 ar
  38   22   24 ar
  39   23   28 1
  40   23   27 ar
  41   24   25 ar
  42   24   49 1
  43   25   26 ar
  44   25   50 1
  45   26   27 ar
  46   26   51 1
  47   27   52 1
  48   29   31 ar
  49   29   30 ar
  50   30   34 ar
  51   30   53 1
  52   31   32 ar
  53   31   35 1
  54   32   33 ar
  55   33   34 ar
  56   33   37 1
  57   34   54 1
  58   35   36 1
  59   36   55 1
  60   36   56 1
  61   36   57 1
  62   37   38 1
  63   38   58 1
  64   38   59 1
  65   38   60 1

#	End of record

