#	Name: ASD01200132
#	Creating user name:	WinNT
#	Creation time:	15. 06. 2019 19:08

#	Modifying user name:	WinNT
#	Modification time:	15. 06. 2019 19:08

#	Program:	/corina/corina34_cracker 3.40 0067  02.08.2006

@<TRIPOS>MOLECULE
ASD01200132
  43   46    0    0    0
SMALL
NO_CHARGES


@<TRIPOS>ATOM
   1 C1            -0.0192     1.3728    -0.0068 C.ar    
   2 C2             0.0020    -0.0104    -0.0141 C.ar    
   3 C3             1.2098    -0.6884    -0.0240 C.ar    
   4 C4             2.3920     0.0144    -0.0264 C.ar    
   5 C5             2.3822     1.4115    -0.0191 C.ar    
   6 C6             1.1611     2.0876    -0.0091 C.ar    
   7 C7             3.8416    -0.4018    -0.0361 C.3     
   8 N8             4.6252     0.8387    -0.0337 N.am    
   9 C9             3.7799     1.8839    -0.0239 C.2     
  10 O10            4.1187     3.0513    -0.0192 O.2     
  11 S11            4.2191    -1.3804     1.4439 S.3     
  12 C12            6.0877     0.9242    -0.0409 C.3     
  13 C13            6.5818     0.9610    -1.4641 C.2     
  14 C14            3.6296    -3.0372     0.9990 C.3     
  15 C15            3.8764    -3.9830     2.1460 C.2     
  16 N16            3.5169    -5.2777     2.0411 N.am    
  17 O17            4.3985    -3.5792     3.1634 O.2     
  18 C18            3.8413    -6.1757     3.0569 C.ar    
  19 C19            6.7703     2.0678    -2.1843 C.2     
  20 C20            7.2317     1.8543    -3.4718 C.2     
  21 C21            7.4179     0.5742    -3.7971 C.2     
  22 S22            7.0052    -0.4486    -2.4271 S.3     
  23 N23            4.5862    -5.7807     4.0804 N.ar    
  24 C24            4.8920    -6.6350     5.0419 C.ar    
  25 C25            4.4368    -7.9386     4.9815 C.ar    
  26 N26            3.6936    -8.3365     3.9626 N.ar    
  27 C27            3.3792    -7.4879     3.0022 C.ar    
  28 H28           -0.9641     1.8958    -0.0037 H       
  29 H29           -0.9258    -0.5631    -0.0118 H       
  30 H30            1.2232    -1.7683    -0.0293 H       
  31 H31            1.1401     3.1674    -0.0038 H       
  32 H32            4.0592    -0.9805    -0.9339 H       
  33 H33            6.4011     1.8312     0.4761 H       
  34 H34            6.5049     0.0543     0.4663 H       
  35 H35            2.5617    -2.9974     0.7842 H       
  36 H36            4.1648    -3.3885     0.1168 H       
  37 H37            3.0324    -5.5847     1.2588 H       
  38 H38            6.5772     3.0556    -1.7927 H       
  39 H39            7.4259     2.6630    -4.1608 H       
  40 H40            7.7714     0.2201    -4.7543 H       
  41 H41            5.4987    -6.3138     5.8757 H       
  42 H42            4.6889    -8.6342     5.7683 H       
  43 H43            2.7722    -7.8133     2.1703 H       
@<TRIPOS>BOND
   1    1    2 ar
   2    1    6 ar
   3    1   28 1
   4    2    3 ar
   5    2   29 1
   6    3    4 ar
   7    3   30 1
   8    4    5 ar
   9    4    7 1
  10    5    6 ar
  11    5    9 1
  12    6   31 1
  13    7    8 1
  14    7   11 1
  15    7   32 1
  16    8    9 am
  17    8   12 1
  18    9   10 2
  19   11   14 1
  20   12   13 1
  21   12   33 1
  22   12   34 1
  23   13   19 2
  24   13   22 1
  25   14   15 1
  26   14   35 1
  27   14   36 1
  28   15   16 am
  29   15   17 2
  30   16   18 1
  31   16   37 1
  32   18   23 ar
  33   18   27 ar
  34   19   20 1
  35   19   38 1
  36   20   21 2
  37   20   39 1
  38   21   22 1
  39   21   40 1
  40   23   24 ar
  41   24   25 ar
  42   24   41 1
  43   25   26 ar
  44   25   42 1
  45   26   27 ar
  46   27   43 1

#	End of record

