#	Name: ASD01815996
#	Creating user name:	WinNT
#	Creation time:	15. 06. 2019 19:34

#	Modifying user name:	WinNT
#	Modification time:	15. 06. 2019 19:34

#	Program:	/corina/corina34_cracker 3.40 0067  02.08.2006

@<TRIPOS>MOLECULE
ASD01815996
  56   61    0    0    0
SMALL
NO_CHARGES


@<TRIPOS>ATOM
   1 C1            -0.0010     1.3795     0.3145 C.ar    
   2 C2             0.0175    -0.0058     0.3031 C.ar    
   3 C3             1.2086    -0.6921     0.1873 C.ar    
   4 C4             2.4067     0.0053     0.0804 C.ar    
   5 C5             2.3844     1.4100     0.0922 C.ar    
   6 C6             1.1770     2.0904     0.2096 C.ar    
   7 N7             3.6053    -0.6772    -0.0356 N.pl3   
   8 C8             4.7920    -0.0580    -0.1415 C.2     
   9 C9             4.8946     1.3109    -0.1421 C.2     
  10 C10            3.6670     2.1301    -0.0224 C.2     
  11 C11            5.9872     2.2741    -0.2378 C.2     
  12 N12            5.4171     3.4969    -0.1773 N.am    
  13 N13            4.0308     3.3801    -0.0487 N.2     
  14 C14            6.1160     4.7094    -0.2349 C.ar    
  15 O15            7.1765     2.0246    -0.3493 O.2     
  16 C16            3.5779    -2.1419    -0.0427 C.3     
  17 C17            6.4427     5.2666    -1.4639 C.ar    
  18 C18            7.1321     6.4623    -1.5177 C.ar    
  19 C19            7.4980     7.1054    -0.3493 C.ar    
  20 C20            7.1751     6.5548     0.8772 C.ar    
  21 C21            6.4795     5.3608     0.9388 C.ar    
  22 F22            6.1636     4.8228     2.1371 F       
  23 C23            4.9863    -2.6780    -0.3091 C.3     
  24 C24            3.0922    -2.6507     1.3174 C.3     
  25 C25            4.0791    -2.2081     2.4012 C.3     
  26 C26            5.4730    -2.7423     2.0639 C.3     
  27 N27            5.8926    -2.2266     0.7546 N.3     
  28 C28            7.2125    -2.5873     0.4741 C.ar    
  29 C29            8.2296    -2.2475     1.3571 C.ar    
  30 C30            9.5335    -2.6061     1.0769 C.ar    
  31 C31            9.8271    -3.3027    -0.0810 C.ar    
  32 C32            8.8170    -3.6426    -0.9621 C.ar    
  33 C33            7.5102    -3.2917    -0.6855 C.ar    
  34 H34           -0.9408     1.9046     0.4012 H       
  35 H35           -0.9095    -0.5537     0.3861 H       
  36 H36            1.2105    -1.7720     0.1800 H       
  37 H37            1.1615     3.1703     0.2181 H       
  38 H38            5.6895    -0.6526    -0.2282 H       
  39 H39            2.9023    -2.4895    -0.8243 H       
  40 H40            6.1583     4.7653    -2.3773 H       
  41 H41            7.3861     6.8956    -2.4738 H       
  42 H42            8.0375     8.0399    -0.3950 H       
  43 H43            7.4626     7.0593     1.7878 H       
  44 H44            4.9627    -3.7676    -0.3279 H       
  45 H45            5.3408    -2.3059    -1.2704 H       
  46 H46            2.1069    -2.2362     1.5306 H       
  47 H47            3.0345    -3.7391     1.2997 H       
  48 H48            4.1074    -1.1193     2.4449 H       
  49 H49            3.7615    -2.6035     3.3660 H       
  50 H50            6.1809    -2.4168     2.8262 H       
  51 H51            5.4470    -3.8315     2.0340 H       
  52 H52            8.0010    -1.7031     2.2614 H       
  53 H53           10.3248    -2.3419     1.7628 H       
  54 H54           10.8477    -3.5816    -0.2978 H       
  55 H55            9.0497    -4.1867    -1.8656 H       
  56 H56            6.7217    -3.5578    -1.3739 H       
@<TRIPOS>BOND
   1    1    2 ar
   2    1    6 ar
   3    1   34 1
   4    2    3 ar
   5    2   35 1
   6    3    4 ar
   7    3   36 1
   8    4    5 ar
   9    4    7 1
  10    5    6 ar
  11    5   10 1
  12    6   37 1
  13    7    8 1
  14    7   16 1
  15    8    9 2
  16    8   38 1
  17    9   10 1
  18    9   11 1
  19   10   13 2
  20   11   12 am
  21   11   15 2
  22   12   13 1
  23   12   14 1
  24   14   17 ar
  25   14   21 ar
  26   16   23 1
  27   16   24 1
  28   16   39 1
  29   17   18 ar
  30   17   40 1
  31   18   19 ar
  32   18   41 1
  33   19   20 ar
  34   19   42 1
  35   20   21 ar
  36   20   43 1
  37   21   22 1
  38   23   27 1
  39   23   44 1
  40   23   45 1
  41   24   25 1
  42   24   46 1
  43   24   47 1
  44   25   26 1
  45   25   48 1
  46   25   49 1
  47   26   27 1
  48   26   50 1
  49   26   51 1
  50   27   28 1
  51   28   29 ar
  52   28   33 ar
  53   29   30 ar
  54   29   52 1
  55   30   31 ar
  56   30   53 1
  57   31   32 ar
  58   31   54 1
  59   32   33 ar
  60   32   55 1
  61   33   56 1

#	End of record

