#	Name: ASD01900828
#	Creating user name:	WinNT
#	Creation time:	15. 06. 2019 19:52

#	Modifying user name:	WinNT
#	Modification time:	15. 06. 2019 19:52

#	Program:	/corina/corina34_cracker 3.40 0067  02.08.2006

@<TRIPOS>MOLECULE
ASD01900828
  39   41    0    0    0
SMALL
NO_CHARGES


@<TRIPOS>ATOM
   1 N1            -0.0179     1.4653     0.0101 N.3     
   2 C2             0.4732     2.5683    -0.8278 C.3     
   3 C3             1.3247     2.0007    -1.9659 C.3     
   4 N4             0.5174     1.0614    -2.7568 N.3     
   5 C5             0.0264    -0.0415    -1.9189 C.3     
   6 C6            -0.8252     0.5260    -0.7808 C.3     
   7 C7            -0.7415     1.9505     1.1033 C.ar    
   8 C8            -0.0926     2.6829     2.1036 C.ar    
   9 C9            -0.8356     3.1620     3.1939 C.ar    
  10 C10           -2.2056     2.9103     3.2773 C.ar    
  11 C11           -2.8309     2.1855     2.2800 C.ar    
  12 C12           -2.1007     1.7122     1.1948 C.ar    
  13 N13            1.2622     2.9318     2.0211 N.pl3   
  14 C14            1.9298     3.6252     2.9502 C.2     
  15 C15            1.3073     4.1463     4.0677 C.2     
  16 C16           -0.1381     3.9325     4.2407 C.2     
  17 C17            2.0755     4.9024     5.0666 C.2     
  18 O18            1.4565     5.4060     6.1532 O.3     
  19 O19            3.2693     5.0736     4.9132 O.2     
  20 O20           -0.7337     4.3724     5.2086 O.2     
  21 O21           -4.1654     1.9383     2.3579 O.3     
  22 C22           -4.8561     2.4572     3.4962 C.3     
  23 F23           -4.3049     1.9162     4.6627 F       
  24 F24           -4.7296     3.8502     3.5233 F       
  25 H25           -0.3738     3.1134    -1.2444 H       
  26 H26            1.0784     3.2432    -0.2225 H       
  27 H27            1.6662     2.8147    -2.6054 H       
  28 H28            2.1865     1.4787    -1.5498 H       
  29 H29           -0.2467     1.5367    -3.2132 H       
  30 H30           -0.5788    -0.7165    -2.5241 H       
  31 H31            0.8734    -0.5867    -1.5023 H       
  32 H32           -1.1666    -0.2880    -0.1413 H       
  33 H33           -1.6869     1.0480    -1.1968 H       
  34 H34           -2.7748     3.2798     4.1174 H       
  35 H35           -2.5990     1.1507     0.4184 H       
  36 H36            1.7515     2.5890     1.2569 H       
  37 H37            2.9906     3.7825     2.8225 H       
  38 H38            2.0035     5.8960     6.7823 H       
  39 H39           -5.9108     2.1893     3.4346 H       
@<TRIPOS>BOND
   1    1    2 1
   2    1    6 1
   3    1    7 1
   4    2    3 1
   5    2   25 1
   6    2   26 1
   7    3    4 1
   8    3   27 1
   9    3   28 1
  10    4    5 1
  11    4   29 1
  12    5    6 1
  13    5   30 1
  14    5   31 1
  15    6   32 1
  16    6   33 1
  17    7    8 ar
  18    7   12 ar
  19    8   13 1
  20    8    9 ar
  21    9   10 ar
  22    9   16 1
  23   10   11 ar
  24   10   34 1
  25   11   12 ar
  26   11   21 1
  27   12   35 1
  28   13   14 1
  29   13   36 1
  30   14   15 2
  31   14   37 1
  32   15   16 1
  33   15   17 1
  34   16   20 2
  35   17   18 1
  36   17   19 2
  37   18   38 1
  38   21   22 1
  39   22   23 1
  40   22   24 1
  41   22   39 1

#	End of record

