#	Name: ASD07300513
#	Creating user name:	WinNT
#	Creation time:	15. 06. 2019 21:09

#	Modifying user name:	WinNT
#	Modification time:	15. 06. 2019 21:09

#	Program:	/corina/corina34_cracker 3.40 0067  02.08.2006

@<TRIPOS>MOLECULE
ASD07300513
  43   47    0    0    0
SMALL
NO_CHARGES


@<TRIPOS>ATOM
   1 C1            -0.0214     1.4730     0.4519 C.2     
   2 N2            -0.0004     0.3176     1.0835 N.2     
   3 C3             1.2836    -0.0542     1.3248 C.ar    
   4 C4             2.1119     0.9496     0.8013 C.ar    
   5 N5             1.2604     1.9078     0.2526 N.am    
   6 C6             1.8596    -1.1636     1.9483 C.ar    
   7 C7             3.2309    -1.2597     2.0421 C.ar    
   8 C8             4.0434    -0.2642     1.5225 C.ar    
   9 C9             3.4880     0.8385     0.9033 C.ar    
  10 N10           -0.9347     2.3765    -0.0630 N.pl3   
  11 C11           -0.1558     3.4784    -0.6459 C.3     
  12 C12            1.2844     3.0928    -0.3939 C.2     
  13 O13            2.2690     3.7252    -0.7100 O.2     
  14 C14           -2.3301     2.2626    -0.0349 C.ar    
  15 C15           -3.1195     3.2576    -0.5967 C.ar    
  16 C16           -4.4952     3.1453    -0.5689 C.ar    
  17 C17           -5.0897     2.0370     0.0204 C.ar    
  18 C18           -4.3002     1.0418     0.5818 C.ar    
  19 C19           -2.9244     1.1518     0.5498 C.ar    
  20 N20           -6.4848     1.9234     0.0490 N.pl3   
  21 C21           -7.0819     0.6699    -0.0272 C.ar    
  22 C22           -8.4599     0.5521     0.1257 C.ar    
  23 C23           -9.0406    -0.7006     0.0472 C.ar    
  24 C24           -8.2209    -1.7980    -0.1825 C.ar    
  25 C25           -6.8611    -1.6083    -0.3247 C.ar    
  26 N26           -6.3348    -0.4005    -0.2500 N.ar    
  27 N27           -9.2929     1.7512     0.3696 N.pl3   
  28 O28          -10.5071     1.6561     0.3869 O.2     
  29 O29           -8.7641     2.8330     0.5530 O.2     
  30 H30            1.2325    -1.9428     2.3556 H       
  31 H31            3.6761    -2.1173     2.5244 H       
  32 H32            5.1169    -0.3510     1.6027 H       
  33 H33            4.1253     1.6114     0.4997 H       
  34 H34           -0.3511     3.5591    -1.7153 H       
  35 H35           -0.3886     4.4172    -0.1433 H       
  36 H36           -2.6572     4.1193    -1.0550 H       
  37 H37           -5.1091     3.9194    -1.0052 H       
  38 H38           -4.7625     0.1800     1.0401 H       
  39 H39           -2.3104     0.3759     0.9827 H       
  40 H40           -7.0348     2.7190     0.1219 H       
  41 H41          -10.1075    -0.8228     0.1622 H       
  42 H42           -8.6432    -2.7898    -0.2489 H       
  43 H43           -6.2201    -2.4589    -0.5034 H       
@<TRIPOS>BOND
   1    1    2 2
   2    1    5 1
   3    1   10 1
   4    2    3 1
   5    3    4 ar
   6    3    6 ar
   7    4    5 1
   8    4    9 ar
   9    5   12 am
  10    6    7 ar
  11    6   30 1
  12    7    8 ar
  13    7   31 1
  14    8    9 ar
  15    8   32 1
  16    9   33 1
  17   10   11 1
  18   10   14 1
  19   11   12 1
  20   11   34 1
  21   11   35 1
  22   12   13 2
  23   14   15 ar
  24   14   19 ar
  25   15   16 ar
  26   15   36 1
  27   16   17 ar
  28   16   37 1
  29   17   18 ar
  30   17   20 1
  31   18   19 ar
  32   18   38 1
  33   19   39 1
  34   20   21 1
  35   20   40 1
  36   21   22 ar
  37   21   26 ar
  38   22   23 ar
  39   22   27 1
  40   23   24 ar
  41   23   41 1
  42   24   25 ar
  43   24   42 1
  44   25   26 ar
  45   25   43 1
  46   27   28 2
  47   27   29 2

#	End of record

