#	Name: ASD01230621
#	Creating user name:	WinNT
#	Creation time:	15. 06. 2019 19:14

#	Modifying user name:	WinNT
#	Modification time:	15. 06. 2019 19:14

#	Program:	/corina/corina34_cracker 3.40 0067  02.08.2006

@<TRIPOS>MOLECULE
ASD01230621
  46   49    0    0    0
SMALL
NO_CHARGES


@<TRIPOS>ATOM
   1 C1            -0.0184     1.5053     0.0103 C.2     
   2 C2             0.0021    -0.0041     0.0020 C.3     
   3 C3             1.4876    -0.3898    -0.0142 C.3     
   4 C4             2.2622     0.9062    -0.0147 C.ar    
   5 C5             3.6248     1.1374    -0.0264 C.ar    
   6 C6             4.1137     2.4308    -0.0237 C.ar    
   7 C7             3.2409     3.5050    -0.0096 C.ar    
   8 C8             1.8807     3.2912     0.0018 C.ar    
   9 C9             1.3746     1.9818    -0.0004 C.ar    
  10 O10           -1.0096     2.2037     0.0190 O.2     
  11 C11           -0.6737    -0.5503     1.2613 C.3     
  12 C12           -0.6977    -0.5368    -1.2499 C.3     
  13 S13            5.5874     4.2209    -3.7189 S.o2    
  14 N14            5.2527     3.4305    -2.3127 N.am    
  15 C15            5.9866     3.4666    -1.2727 C.2     
  16 N16            7.1394     4.2018    -1.1634 N.pl3   
  17 C17            7.3867     5.3644    -2.0088 C.3     
  18 C18            7.2196     4.9696    -3.4775 C.3     
  19 C19            5.6013     2.6717    -0.0356 C.3     
  20 C20            6.0038     3.5040     1.1844 C.3     
  21 C21            7.5087     3.7335     1.2238 C.3     
  22 C22            8.1268     3.7699    -0.1686 C.3     
  23 O23            5.6556     3.1861    -4.6904 O.2     
  24 O24            4.5873     5.2273    -3.7974 O.2     
  25 H25            1.7329    -0.9722     0.8739 H       
  26 H26            1.7158    -0.9626    -0.9131 H       
  27 H27            4.3112     0.3036    -0.0375 H       
  28 H28            3.6277     4.5133    -0.0072 H       
  29 H29            1.2025     4.1316     0.0128 H       
  30 H30           -1.7153    -0.2298     1.2829 H       
  31 H31           -0.6288    -1.6394     1.2544 H       
  32 H32           -0.1585    -0.1710     2.1438 H       
  33 H33           -0.1994    -0.1480    -2.1380 H       
  34 H34           -0.6528    -1.6259    -1.2556 H       
  35 H35           -1.7394    -0.2162    -1.2482 H       
  36 H36            6.6752     6.1521    -1.7609 H       
  37 H37            8.4016     5.7255    -1.8427 H       
  38 H38            7.9928     4.2517    -3.7511 H       
  39 H39            7.3088     5.8566    -4.1047 H       
  40 H40            6.1311     1.7191    -0.0272 H       
  41 H41            5.4966     4.4678     1.1422 H       
  42 H42            5.6987     2.9803     2.0904 H       
  43 H43            7.7083     4.6814     1.7235 H       
  44 H44            7.9735     2.9303     1.7955 H       
  45 H45            8.4858     2.7739    -0.4281 H       
  46 H46            8.9663     4.4651    -0.1707 H       
@<TRIPOS>BOND
   1    1    2 1
   2    1    9 1
   3    1   10 2
   4    2    3 1
   5    2   11 1
   6    2   12 1
   7    3    4 1
   8    3   25 1
   9    3   26 1
  10    4    5 ar
  11    4    9 ar
  12    5    6 ar
  13    5   27 1
  14    6    7 ar
  15    6   19 1
  16    7    8 ar
  17    7   28 1
  18    8    9 ar
  19    8   29 1
  20   11   30 1
  21   11   31 1
  22   11   32 1
  23   12   33 1
  24   12   34 1
  25   12   35 1
  26   13   14 am
  27   13   18 1
  28   13   23 2
  29   13   24 2
  30   14   15 2
  31   15   16 1
  32   15   19 1
  33   16   17 1
  34   16   22 1
  35   17   18 1
  36   17   36 1
  37   17   37 1
  38   18   38 1
  39   18   39 1
  40   19   20 1
  41   19   40 1
  42   20   21 1
  43   20   41 1
  44   20   42 1
  45   21   22 1
  46   21   43 1
  47   21   44 1
  48   22   45 1
  49   22   46 1

#	End of record

