#	Name: ASD01148663
#	Creating user name:	WinNT
#	Creation time:	15. 06. 2019 19:02

#	Modifying user name:	WinNT
#	Modification time:	15. 06. 2019 19:02

#	Program:	/corina/corina34_cracker 3.40 0067  02.08.2006

@<TRIPOS>MOLECULE
ASD01148663
  50   52    0    0    0
SMALL
NO_CHARGES


@<TRIPOS>ATOM
   1 N1            -5.1014    -4.2517    -2.9122 N.am    
   2 N2            -4.7333    -4.4940    -1.5823 N.am    
   3 C3            -4.9363    -5.8212    -0.9963 C.3     
   4 C4            -4.1925    -3.5060    -0.8421 C.2     
   5 C5            -3.9040    -2.1968    -1.4573 C.ar    
   6 C6            -3.0119    -2.1054    -2.5365 C.ar    
   7 C7            -2.7480    -0.8678    -3.1077 C.ar    
   8 C8            -3.3609     0.2667    -2.6146 C.ar    
   9 C9            -4.2428     0.1804    -1.5486 C.ar    
  10 C10           -4.5216    -1.0417    -0.9729 C.ar    
  11 O11           -3.9423    -3.6939     0.3329 O.2     
  12 C12           -1.7909    -0.7626    -4.2669 C.3     
  13 Cl13          -5.0051     1.6163    -0.9396 Cl      
  14 N14           -2.3940    -3.2503    -3.0320 N.am    
  15 C15           -1.3290    -3.7720    -2.3915 C.2     
  16 O16           -0.9019    -3.2372    -1.3860 O.2     
  17 N17            0.6211    -6.7923    -3.1239 N.2     
  18 N18            0.2931    -5.7197    -2.2853 N.pl3   
  19 C19           -0.6834    -4.9878    -2.9084 C.2     
  20 C20           -0.9466    -5.6084    -4.1131 C.2     
  21 C21           -0.1150    -6.7233    -4.2056 C.2     
  22 C22            0.8595    -5.4455    -1.0381 C.ar    
  23 C23            1.1881    -6.4937    -0.1849 C.ar    
  24 C24            1.7490    -6.2071     1.0488 C.ar    
  25 C25            1.9619    -4.8778     1.3861 C.ar    
  26 C26            1.6109    -3.8878     0.4888 C.ar    
  27 N27            1.0834    -4.1911    -0.6813 N.ar    
  28 Cl28           0.8987    -8.1383    -0.6594 Cl      
  29 Br29          -0.0579    -7.9364    -5.6551 Br      
  30 C30           -6.3869    -3.9862    -3.2179 C.2     
  31 O31           -6.7061    -3.7761    -4.3714 O.2     
  32 O32           -7.3173    -3.9539    -2.2453 O.3     
  33 C33           -8.6816    -3.6618    -2.6476 C.3     
  34 H34           -4.4304    -4.2710    -3.6124 H       
  35 H35           -4.0271    -6.4116    -1.1103 H       
  36 H36           -5.1724    -5.7185     0.0629 H       
  37 H37           -5.7603    -6.3210    -1.5054 H       
  38 H38           -3.1518     1.2272    -3.0619 H       
  39 H39           -5.2131    -1.1046    -0.1456 H       
  40 H40           -2.3224    -0.9661    -5.1966 H       
  41 H41           -1.3707     0.2425    -4.3012 H       
  42 H42           -0.9873    -1.4883    -4.1416 H       
  43 H43           -2.7299    -3.6725    -3.8381 H       
  44 H44           -1.6673    -5.2880    -4.8508 H       
  45 H45            2.0143    -6.9998     1.7326 H       
  46 H46            2.3971    -4.6200     2.3403 H       
  47 H47            1.7748    -2.8521     0.7470 H       
  48 H48           -9.3280    -3.6663    -1.7700 H       
  49 H49           -8.7186    -2.6807    -3.1211 H       
  50 H50           -9.0222    -4.4190    -3.3538 H       
@<TRIPOS>BOND
   1    1    2 1
   2    1   30 am
   3    1   34 1
   4    2    3 1
   5    2    4 am
   6    3   35 1
   7    3   36 1
   8    3   37 1
   9    4    5 1
  10    4   11 2
  11    5    6 ar
  12    5   10 ar
  13    6    7 ar
  14    6   14 1
  15    7    8 ar
  16    7   12 1
  17    8    9 ar
  18    8   38 1
  19    9   10 ar
  20    9   13 1
  21   10   39 1
  22   12   40 1
  23   12   41 1
  24   12   42 1
  25   14   15 am
  26   14   43 1
  27   15   16 2
  28   15   19 1
  29   17   18 1
  30   17   21 2
  31   18   19 1
  32   18   22 1
  33   19   20 2
  34   20   21 1
  35   20   44 1
  36   21   29 1
  37   22   23 ar
  38   22   27 ar
  39   23   24 ar
  40   23   28 1
  41   24   25 ar
  42   24   45 1
  43   25   26 ar
  44   25   46 1
  45   26   27 ar
  46   26   47 1
  47   30   31 2
  48   30   32 1
  49   32   33 1
  50   33   48 1
  51   33   49 1
  52   33   50 1

#	End of record

