#	Name: ASD01815992
#	Creating user name:	WinNT
#	Creation time:	15. 06. 2019 19:34

#	Modifying user name:	WinNT
#	Modification time:	15. 06. 2019 19:34

#	Program:	/corina/corina34_cracker 3.40 0067  02.08.2006

@<TRIPOS>MOLECULE
ASD01815992
  49   54    0    0    0
SMALL
NO_CHARGES


@<TRIPOS>ATOM
   1 C1            -0.1464     1.2348     0.2113 C.ar    
   2 C2            -0.0730    -0.1487     0.1957 C.ar    
   3 C3             1.1473    -0.7872     0.1159 C.ar    
   4 C4             2.3198    -0.0429     0.0501 C.ar    
   5 C5             2.2419     1.3598     0.0661 C.ar    
   6 C6             1.0055     1.9918     0.1469 C.ar    
   7 N7             3.5474    -0.6773    -0.0296 N.pl3   
   8 C8             4.7117    -0.0116    -0.0950 C.2     
   9 C9             4.7603     1.3603    -0.0874 C.2     
  10 C10            3.4982     2.1302    -0.0046 C.2     
  11 C11            5.8166     2.3660    -0.1445 C.2     
  12 N12            5.1972     3.5652    -0.0981 N.am    
  13 N13            3.8132     3.3936    -0.0148 N.2     
  14 C14            5.8495     4.8044    -0.1289 C.ar    
  15 O15            7.0178     2.1639    -0.2185 O.2     
  16 C16            3.5779    -2.1419    -0.0427 C.3     
  17 C17            6.1932     5.3799    -1.3448 C.ar    
  18 C18            6.8364     6.6020    -1.3721 C.ar    
  19 C19            7.1390     7.2533    -0.1903 C.ar    
  20 C20            6.7989     6.6846     1.0233 C.ar    
  21 C21            6.1492     5.4641     1.0582 C.ar    
  22 F22            5.8164     4.9083     2.2438 F       
  23 C23            3.4314    -2.6348    -1.4593 C.ar    
  24 C24            3.4796    -4.0093    -1.7380 C.ar    
  25 C25            3.3389    -4.4526    -3.0791 C.ar    
  26 C26            3.1546    -3.5123    -4.1024 C.ar    
  27 C27            3.1130    -2.1856    -3.7945 C.ar    
  28 C28            3.2457    -1.7497    -2.4778 C.ar    
  29 C29            3.6639    -4.9690    -0.7293 C.ar    
  30 N30            3.7026    -6.2438    -1.0389 N.ar    
  31 C31            3.5738    -6.6848    -2.2829 C.ar    
  32 C32            3.3913    -5.8357    -3.3317 C.ar    
  33 H33           -1.1084     1.7222     0.2695 H       
  34 H34           -0.9799    -0.7329     0.2468 H       
  35 H35            1.1919    -1.8662     0.1048 H       
  36 H36            0.9473     3.0702     0.1587 H       
  37 H37            5.6341    -0.5701    -0.1548 H       
  38 H38            4.5266    -2.4893     0.3666 H       
  39 H39            2.7579    -2.5278     0.5629 H       
  40 H40            5.9582     4.8722    -2.2686 H       
  41 H41            7.1037     7.0495    -2.3180 H       
  42 H42            7.6426     8.2084    -0.2153 H       
  43 H43            7.0370     7.1957     1.9444 H       
  44 H44            3.0467    -3.8368    -5.1268 H       
  45 H45            2.9709    -1.4611    -4.5827 H       
  46 H46            3.2089    -0.6921    -2.2622 H       
  47 H47            3.7740    -4.6586     0.2992 H       
  48 H48            3.6150    -7.7478    -2.4695 H       
  49 H49            3.2884    -6.2164    -4.3371 H       
@<TRIPOS>BOND
   1    1    2 ar
   2    1    6 ar
   3    1   33 1
   4    2    3 ar
   5    2   34 1
   6    3    4 ar
   7    3   35 1
   8    4    5 ar
   9    4    7 1
  10    5    6 ar
  11    5   10 1
  12    6   36 1
  13    7    8 1
  14    7   16 1
  15    8    9 2
  16    8   37 1
  17    9   10 1
  18    9   11 1
  19   10   13 2
  20   11   12 am
  21   11   15 2
  22   12   13 1
  23   12   14 1
  24   14   17 ar
  25   14   21 ar
  26   16   23 1
  27   16   38 1
  28   16   39 1
  29   17   18 ar
  30   17   40 1
  31   18   19 ar
  32   18   41 1
  33   19   20 ar
  34   19   42 1
  35   20   21 ar
  36   20   43 1
  37   21   22 1
  38   23   24 ar
  39   23   28 ar
  40   24   25 ar
  41   24   29 ar
  42   25   26 ar
  43   25   32 ar
  44   26   27 ar
  45   26   44 1
  46   27   28 ar
  47   27   45 1
  48   28   46 1
  49   29   30 ar
  50   29   47 1
  51   30   31 ar
  52   31   32 ar
  53   31   48 1
  54   32   49 1

#	End of record

