#	Name: ASD01670023
#	Creating user name:	WinNT
#	Creation time:	15. 06. 2019 19:22

#	Modifying user name:	WinNT
#	Modification time:	15. 06. 2019 19:22

#	Program:	/corina/corina34_cracker 3.40 0067  02.08.2006

@<TRIPOS>MOLECULE
ASD01670023
  56   59    0    0    0
SMALL
NO_CHARGES


@<TRIPOS>ATOM
   1 C1             0.3143     1.7539    -0.0701 C.ar    
   2 C2             0.1792     0.3804     0.0039 C.ar    
   3 C3             1.5722     2.3198    -0.1480 C.ar    
   4 C4             1.3024    -0.4239    -0.0002 C.ar    
   5 C5             1.9045    -2.9442     1.2320 C.ar    
   6 C6             1.0558    -3.9783     0.8733 C.ar    
   7 C7             3.4379    -3.5956    -0.5009 C.ar    
   8 C8             2.6990     1.5153    -0.1521 C.ar    
   9 C9             2.5639     0.1413    -0.0778 C.ar    
  10 C10            3.0881    -2.7480     0.5548 C.ar    
  11 C11            1.3874    -4.8269    -0.1695 C.ar    
  12 C12            2.5801    -4.6412    -0.8637 C.ar    
  13 C13            4.7031    -3.3891    -1.2286 C.2     
  14 C14            7.2945     1.0801    -0.0655 C.2     
  15 C15            4.1657     1.8817    -0.2276 C.3     
  16 C16            1.3426    -6.1143    -1.9930 C.3     
  17 C17            3.9306    -0.5089    -0.0979 C.3     
  18 C18            4.9216     0.6225     0.2468 C.3     
  19 C19            4.0054    -1.6200     0.9514 C.3     
  20 C20            8.5853     0.9124    -0.8248 C.3     
  21 C21            9.6904     1.7154    -0.1358 C.3     
  22 C22           11.0010     1.5451    -0.9067 C.3     
  23 C23           12.1060     2.3481    -0.2176 C.3     
  24 N24           13.3643     2.1846    -0.9579 N.3     
  25 N25            6.1765     0.4594    -0.4914 N.am    
  26 O26            5.7174    -3.9424    -0.8527 O.2     
  27 O27            7.2616     1.7736     0.9289 O.2     
  28 O28            0.7341    -5.8992    -0.7059 O.3     
  29 O29            2.6754    -5.5940    -1.8321 O.3     
  30 O30            4.7347    -2.5868    -2.3107 O.3     
  31 H31           -0.5629     2.3840    -0.0715 H       
  32 H32           -0.8034    -0.0635     0.0653 H       
  33 H33            1.6769     3.3931    -0.2061 H       
  34 H34            1.1961    -1.4971     0.0575 H       
  35 H35            1.6349    -2.2853     2.0441 H       
  36 H36            0.1302    -4.1238     1.4103 H       
  37 H37            4.4425     2.1250    -1.2535 H       
  38 H38            4.3800     2.7225     0.4322 H       
  39 H39            1.3723    -7.1779    -2.2298 H       
  40 H40            0.8074    -5.5635    -2.7666 H       
  41 H41            4.1447    -0.9087    -1.0891 H       
  42 H42            5.1049     0.6621     1.3206 H       
  43 H43            3.6988    -1.2259     1.9203 H       
  44 H44            5.0287    -1.9897     1.0168 H       
  45 H45            8.8608    -0.1421    -0.8446 H       
  46 H46            8.4562     1.2734    -1.8452 H       
  47 H47            9.4149     2.7698    -0.1160 H       
  48 H48            9.8195     1.3544     0.8846 H       
  49 H49           11.2765     0.4907    -0.9265 H       
  50 H50           10.8718     1.9061    -1.9271 H       
  51 H51           11.8305     3.4025    -0.1979 H       
  52 H52           12.2352     1.9871     0.8027 H       
  53 H53           13.2527     2.4521    -1.9243 H       
  54 H54           14.1105     2.7058    -0.5223 H       
  55 H55            6.2028    -0.0953    -1.2867 H       
  56 H56            5.5872    -2.4822    -2.7550 H       
@<TRIPOS>BOND
   1    1    2 ar
   2    1    3 ar
   3    1   31 1
   4    2    4 ar
   5    2   32 1
   6    3    8 ar
   7    3   33 1
   8    4    9 ar
   9    4   34 1
  10    5    6 ar
  11    5   10 ar
  12    5   35 1
  13    6   11 ar
  14    6   36 1
  15    7   10 ar
  16    7   12 ar
  17    7   13 1
  18    8    9 ar
  19    8   15 1
  20    9   17 1
  21   10   19 1
  22   11   12 ar
  23   11   28 1
  24   12   29 1
  25   13   26 2
  26   13   30 1
  27   14   20 1
  28   14   25 am
  29   14   27 2
  30   15   18 1
  31   15   37 1
  32   15   38 1
  33   16   28 1
  34   16   29 1
  35   16   39 1
  36   16   40 1
  37   17   18 1
  38   17   19 1
  39   17   41 1
  40   18   25 1
  41   18   42 1
  42   19   43 1
  43   19   44 1
  44   20   21 1
  45   20   45 1
  46   20   46 1
  47   21   22 1
  48   21   47 1
  49   21   48 1
  50   22   23 1
  51   22   49 1
  52   22   50 1
  53   23   24 1
  54   23   51 1
  55   23   52 1
  56   24   53 1
  57   24   54 1
  58   25   55 1
  59   30   56 1

#	End of record

