#	Name: ASD01900503
#	Creating user name:	WinNT
#	Creation time:	15. 06. 2019 19:52

#	Modifying user name:	WinNT
#	Modification time:	15. 06. 2019 19:52

#	Program:	/corina/corina34_cracker 3.40 0067  02.08.2006

@<TRIPOS>MOLECULE
ASD01900503
  28   30    0    0    0
SMALL
NO_CHARGES


@<TRIPOS>ATOM
   1 C1            -0.0152     1.5204    -0.5802 C.ar    
   2 C2             0.0524     0.4086    -1.4327 C.ar    
   3 C3             1.2636    -0.2639    -1.5713 C.ar    
   4 C4             2.3542     0.1970    -0.8574 C.ar    
   5 C5             2.2140     1.3037    -0.0324 C.ar    
   6 N6             1.0614     1.9248     0.0843 N.ar    
   7 O7            -1.1729     0.2324    -1.9651 O.3     
   8 N8            -2.0490     1.2237    -1.4673 N.2     
   9 C9            -1.4061     2.0015    -0.6419 C.2     
  10 N10           -1.9330     3.0872     0.0458 N.pl3   
  11 C11           -3.3015     3.3613    -0.0242 C.ar    
  12 C12           -3.7574     4.6676     0.1029 C.ar    
  13 C13           -5.1103     4.9349     0.0333 C.ar    
  14 C14           -6.0113     3.9039    -0.1623 C.ar    
  15 C15           -5.5611     2.6027    -0.2887 C.ar    
  16 C16           -4.2087     2.3291    -0.2267 C.ar    
  17 C17           -5.6057     6.3514     0.1711 C.3     
  18 F18           -5.6599     6.9514    -1.0916 F       
  19 F19           -6.8839     6.3452     0.7397 F       
  20 F20           -4.7331     7.0727     0.9930 F       
  21 H21            1.3488    -1.1236    -2.2194 H       
  22 H22            3.3088    -0.3012    -0.9412 H       
  23 H23            3.0677     1.6615     0.5241 H       
  24 H24           -1.3510     3.6552     0.5746 H       
  25 H25           -3.0544     5.4730     0.2563 H       
  26 H26           -7.0690     4.1157    -0.2160 H       
  27 H27           -6.2674     1.7999    -0.4407 H       
  28 H28           -3.8573     1.3131    -0.3304 H       
@<TRIPOS>BOND
   1    1    2 ar
   2    1    6 ar
   3    1    9 1
   4    2    3 ar
   5    2    7 1
   6    3    4 ar
   7    3   21 1
   8    4    5 ar
   9    4   22 1
  10    5    6 ar
  11    5   23 1
  12    7    8 1
  13    8    9 2
  14    9   10 1
  15   10   11 1
  16   10   24 1
  17   11   12 ar
  18   11   16 ar
  19   12   13 ar
  20   12   25 1
  21   13   14 ar
  22   13   17 1
  23   14   15 ar
  24   14   26 1
  25   15   16 ar
  26   15   27 1
  27   16   28 1
  28   17   18 1
  29   17   19 1
  30   17   20 1

#	End of record

