#	Name: ASD01913488
#	Creating user name:	WinNT
#	Creation time:	15. 06. 2019 20:01

#	Modifying user name:	WinNT
#	Modification time:	15. 06. 2019 20:01

#	Program:	/corina/corina34_cracker 3.40 0067  02.08.2006

@<TRIPOS>MOLECULE
ASD01913488
  34   36    0    0    0
SMALL
NO_CHARGES


@<TRIPOS>ATOM
   1 C1            -0.3707    -0.6920    -2.1185 C.ar    
   2 C2            -0.8241    -0.0300    -0.9820 C.ar    
   3 C3            -0.8065     1.3610    -0.9783 C.ar    
   4 N4            -0.3626     2.0003    -2.0479 N.ar    
   5 C5             0.0588     1.3370    -3.1059 C.ar    
   6 N6             0.0579     0.0198    -3.1479 N.ar    
   7 C7            -1.2499    -2.0818     0.0363 C.ar    
   8 C8            -0.0538    -2.7716     0.1766 C.ar    
   9 N9            -0.0230    -4.0885     0.1247 N.ar    
  10 C10           -1.1148    -4.8030    -0.0608 C.ar    
  11 C11           -2.3511    -4.1868    -0.2100 C.ar    
  12 C12           -2.4250    -2.7981    -0.1611 C.ar    
  13 N13           -3.5055    -4.9517    -0.4070 N.am    
  14 C14           -4.6756    -4.5573     0.1330 C.2     
  15 O15           -1.2729    -0.7244     0.0966 O.3     
  16 C16           -5.8693    -5.4223     0.0231 C.ar    
  17 C17           -5.7961    -6.6501    -0.6380 C.ar    
  18 N18           -6.8549    -7.4274    -0.7408 N.ar    
  19 C19           -8.0218    -7.0901    -0.2310 C.ar    
  20 C20           -7.0865    -5.0259     0.5844 C.ar    
  21 O21           -4.7494    -3.4901     0.7105 O.2     
  22 C22           -8.1849    -5.8794     0.4475 C.ar    
  23 C23           -9.4572    -5.5206     0.9981 C.1     
  24 N24          -10.4665    -5.2360     1.4350 N.1     
  25 H25           -0.3646    -1.7712    -2.1581 H       
  26 H26           -1.1507     1.9110    -0.1149 H       
  27 H27            0.4152     1.8888    -3.9632 H       
  28 H28            0.8635    -2.2225     0.3299 H       
  29 H29           -1.0476    -5.8803    -0.0977 H       
  30 H30           -3.3712    -2.2896    -0.2734 H       
  31 H31           -3.4638    -5.7661    -0.9323 H       
  32 H32           -4.8588    -6.9667    -1.0714 H       
  33 H33           -8.8636    -7.7579    -0.3391 H       
  34 H34           -7.1767    -4.0847     1.1063 H       
@<TRIPOS>BOND
   1    1    2 ar
   2    1    6 ar
   3    1   25 1
   4    2    3 ar
   5    2   15 1
   6    3    4 ar
   7    3   26 1
   8    4    5 ar
   9    5    6 ar
  10    5   27 1
  11    7    8 ar
  12    7   12 ar
  13    7   15 1
  14    8    9 ar
  15    8   28 1
  16    9   10 ar
  17   10   11 ar
  18   10   29 1
  19   11   12 ar
  20   11   13 1
  21   12   30 1
  22   13   14 am
  23   13   31 1
  24   14   16 1
  25   14   21 2
  26   16   17 ar
  27   16   20 ar
  28   17   18 ar
  29   17   32 1
  30   18   19 ar
  31   19   22 ar
  32   19   33 1
  33   20   22 ar
  34   20   34 1
  35   22   23 1
  36   23   24 3

#	End of record

