#	Name: ASD01915435
#	Creating user name:	WinNT
#	Creation time:	15. 06. 2019 20:05

#	Modifying user name:	WinNT
#	Modification time:	15. 06. 2019 20:05

#	Program:	/corina/corina34_cracker 3.40 0067  02.08.2006

@<TRIPOS>MOLECULE
ASD01915435
  38   40    0    0    0
SMALL
NO_CHARGES


@<TRIPOS>ATOM
   1 C1            -0.0167     1.3796     0.0096 C.ar    
   2 C2             0.0021    -0.0041     0.0020 C.ar    
   3 C3             1.2058    -0.6865    -0.0132 C.ar    
   4 C4             2.3967     0.0091    -0.0204 C.ar    
   5 C5             2.3857     1.4065    -0.0128 C.ar    
   6 C6             1.1662     2.0887     0.0021 C.ar    
   7 C7             3.6180     2.1358    -0.0198 C.1     
   8 C8             4.6284     2.7337    -0.0255 C.1     
   9 C9             5.8608     3.4629    -0.0324 C.ar    
  10 C10            5.8579     4.8662    -0.0248 C.ar    
  11 C11            7.0706     5.5243    -0.0315 C.ar    
  12 C12            8.2484     4.7813    -0.0454 C.ar    
  13 N13            8.2182     3.4566    -0.0527 N.ar    
  14 C14            7.0832     2.7884    -0.0410 C.ar    
  15 N15            9.4720     5.4380    -0.0522 N.pl3   
  16 C16            9.5174     6.9023    -0.0447 C.3     
  17 C17           10.8484     7.3853     0.5577 C.3     
  18 C18           11.5603     8.1996    -0.5424 C.3     
  19 C19           10.4127     8.6664    -1.4721 C.3     
  20 C20            9.4668     7.4400    -1.4898 C.3     
  21 H21           -0.9600     1.9055     0.0170 H       
  22 H22           -0.9274    -0.5541     0.0083 H       
  23 H23            1.2128    -1.7664    -0.0191 H       
  24 H24            3.3354    -0.5248    -0.0316 H       
  25 H25            1.1500     3.1686     0.0081 H       
  26 H26            4.9292     5.4176    -0.0144 H       
  27 H27            7.1061     6.6037    -0.0264 H       
  28 H28            7.0982     1.7085    -0.0471 H       
  29 H29           10.2965     4.9272    -0.0619 H       
  30 H30            8.6812     7.2986     0.5314 H       
  31 H31           10.6582     8.0166     1.4256 H       
  32 H32           11.4606     6.5302     0.8444 H       
  33 H33           12.0737     9.0581    -0.1095 H       
  34 H34           12.2621     7.5700    -1.0892 H       
  35 H35            9.9078     9.5376    -1.0549 H       
  36 H36           10.7886     8.8788    -2.4729 H       
  37 H37            9.8306     6.6877    -2.1896 H       
  38 H38            8.4526     7.7442    -1.7483 H       
@<TRIPOS>BOND
   1    1    2 ar
   2    1    6 ar
   3    1   21 1
   4    2    3 ar
   5    2   22 1
   6    3    4 ar
   7    3   23 1
   8    4    5 ar
   9    4   24 1
  10    5    6 ar
  11    5    7 1
  12    6   25 1
  13    7    8 3
  14    8    9 1
  15    9   10 ar
  16    9   14 ar
  17   10   11 ar
  18   10   26 1
  19   11   12 ar
  20   11   27 1
  21   12   13 ar
  22   12   15 1
  23   13   14 ar
  24   14   28 1
  25   15   16 1
  26   15   29 1
  27   16   17 1
  28   16   20 1
  29   16   30 1
  30   17   18 1
  31   17   31 1
  32   17   32 1
  33   18   19 1
  34   18   33 1
  35   18   34 1
  36   19   20 1
  37   19   35 1
  38   19   36 1
  39   20   37 1
  40   20   38 1

#	End of record

