#	Name: ASD00311347
#	Creating user name:	WinNT
#	Creation time:	15. 06. 2019 18:34

#	Modifying user name:	WinNT
#	Modification time:	15. 06. 2019 18:34

#	Program:	/corina/corina34_cracker 3.40 0067  02.08.2006

@<TRIPOS>MOLECULE
ASD00311347
  41   44    0    0    0
SMALL
NO_CHARGES


@<TRIPOS>ATOM
   1 C1            -0.0167     1.3781     0.0096 C.2     
   2 C2             0.0021    -0.0041     0.0020 C.2     
   3 C3             1.2588    -0.6765    -0.0136 C.2     
   4 C4             2.4315     0.0676    -0.0208 C.2     
   5 C5             2.3575     1.4755    -0.0125 C.2     
   6 N6             1.1649     2.0908     0.0022 N.am    
   7 C7            -1.3431    -0.5748     0.0118 C.2     
   8 C8            -2.3221     0.3255     0.0260 C.2     
   9 S9            -1.6795     1.9560     0.0358 S.3     
  10 O10            3.3824     2.1375    -0.0187 O.2     
  11 C11            3.7476    -0.6116    -0.0365 C.ar    
  12 C12            4.5934    -0.4742    -1.1370 C.ar    
  13 C13            5.8183    -1.1095    -1.1457 C.ar    
  14 C14            6.2080    -1.8815    -0.0659 C.ar    
  15 C15            5.3735    -2.0216     1.0286 C.ar    
  16 C16            4.1487    -1.3866     1.0516 C.ar    
  17 C17           -1.5956    -2.0355     0.0056 C.ar    
  18 C18           -1.2003    -2.8205     1.0942 C.ar    
  19 C19           -1.4388    -4.1836     1.0823 C.ar    
  20 C20           -2.0684    -4.7688    -0.0069 C.ar    
  21 C21           -2.4609    -3.9908    -1.0874 C.ar    
  22 C22           -2.2323    -2.6298    -1.0817 C.ar    
  23 O23           -2.3010    -6.1078    -0.0162 O.3     
  24 C24           -2.9532    -6.6450    -1.1686 C.3     
  25 O25           -0.5834    -2.2461     2.1600 O.3     
  26 O26            1.3089    -2.0290    -0.0209 O.3     
  27 H27            1.1328     3.0602     0.0077 H       
  28 H28           -3.3746     0.0835     0.0344 H       
  29 H29            4.2901     0.1279    -1.9807 H       
  30 H30            6.4739    -1.0041    -1.9974 H       
  31 H31            7.1675    -2.3770    -0.0775 H       
  32 H32            5.6832    -2.6256     1.8686 H       
  33 H33            3.4999    -1.4931     1.9085 H       
  34 H34           -1.1345    -4.7922     1.9210 H       
  35 H35           -2.9503    -4.4511    -1.9330 H       
  36 H36           -2.5429    -2.0264    -1.9219 H       
  37 H37           -2.3487    -6.4467    -2.0537 H       
  38 H38           -3.0775    -7.7211    -1.0472 H       
  39 H39           -3.9308    -6.1771    -1.2840 H       
  40 H40           -1.1900    -1.9455     2.8505 H       
  41 H41            2.2062    -2.3893    -0.0314 H       
@<TRIPOS>BOND
   1    1    2 2
   2    1    6 1
   3    1    9 1
   4    2    3 1
   5    2    7 1
   6    3    4 2
   7    3   26 1
   8    4    5 1
   9    4   11 1
  10    5    6 am
  11    5   10 2
  12    6   27 1
  13    7    8 2
  14    7   17 1
  15    8    9 1
  16    8   28 1
  17   11   12 ar
  18   11   16 ar
  19   12   13 ar
  20   12   29 1
  21   13   14 ar
  22   13   30 1
  23   14   15 ar
  24   14   31 1
  25   15   16 ar
  26   15   32 1
  27   16   33 1
  28   17   18 ar
  29   17   22 ar
  30   18   19 ar
  31   18   25 1
  32   19   20 ar
  33   19   34 1
  34   20   21 ar
  35   20   23 1
  36   21   22 ar
  37   21   35 1
  38   22   36 1
  39   23   24 1
  40   24   37 1
  41   24   38 1
  42   24   39 1
  43   25   40 1
  44   26   41 1

#	End of record

