#	Name: ASD03330185
#	Creating user name:	WinNT
#	Creation time:	15. 06. 2019 20:36

#	Modifying user name:	WinNT
#	Modification time:	15. 06. 2019 20:36

#	Program:	/corina/corina34_cracker 3.40 0067  02.08.2006

@<TRIPOS>MOLECULE
ASD03330185
  57   60    0    0    0
SMALL
NO_CHARGES


@<TRIPOS>ATOM
   1 C1            -0.6617     0.2349    -2.9974 C.ar    
   2 C2            -1.4325     1.1717    -2.3213 C.ar    
   3 C3            -2.5001     0.7592    -1.5490 C.ar    
   4 C4            -2.8031    -0.5920    -1.4483 C.ar    
   5 C5            -2.0326    -1.5287    -2.1241 C.ar    
   6 C6            -0.9684    -1.1162    -2.9011 C.ar    
   7 N7            -3.8868    -1.0107    -0.6637 N.am    
   8 C8            -5.0032    -0.2583    -0.6003 C.2     
   9 N9            -6.0786    -0.7041     0.0788 N.am    
  10 O10           -5.0401     0.8228    -1.1556 O.2     
  11 C11           -7.2691     0.0316     0.0654 C.ar    
  12 C12           -8.4901    -0.6251     0.0633 C.ar    
  13 C13           -9.6721     0.1113     0.0505 C.ar    
  14 C14           -9.6210     1.5041     0.0397 C.ar    
  15 C15           -8.4008     2.1505     0.0414 C.ar    
  16 C16           -7.2277     1.4206     0.0599 C.ar    
  17 C17          -10.9821    -0.5849     0.0477 C.ar    
  18 N18          -11.0214    -1.9120     0.0576 N.ar    
  19 C19          -12.1577     0.1592     0.0405 C.ar    
  20 C20          -13.3770    -0.5010     0.0380 C.ar    
  21 C21          -13.3810    -1.8850     0.0427 C.ar    
  22 C22          -12.1690    -2.5698     0.0555 C.ar    
  23 N23          -12.1647    -3.9597     0.0599 N.3     
  24 C24          -10.7866    -4.4838     0.0736 C.3     
  25 C25          -10.6574    -5.3979     1.3101 C.3     
  26 C26          -12.1281    -5.7904     1.6098 C.3     
  27 C27          -12.8810    -4.4880     1.2403 C.3     
  28 N28            0.4203     0.6527    -3.7800 N.pl3   
  29 C29            0.6632     2.0820    -3.9907 C.3     
  30 C30            1.3102    -0.3391    -4.3887 C.3     
  31 H31           -1.1966     2.2227    -2.3994 H       
  32 H32           -3.0993     1.4876    -1.0230 H       
  33 H33           -2.2684    -2.5797    -2.0456 H       
  34 H34           -0.3691    -1.8448    -3.4267 H       
  35 H35           -3.8332    -1.8418    -0.1666 H       
  36 H36           -6.0275    -1.5349     0.5768 H       
  37 H37           -8.5245    -1.7045     0.0714 H       
  38 H38          -10.5359     2.0778     0.0297 H       
  39 H39           -8.3634     3.2298     0.0327 H       
  40 H40           -6.2759     1.9310     0.0611 H       
  41 H41          -12.1210     1.2386     0.0373 H       
  42 H42          -14.3040     0.0531     0.0328 H       
  43 H43          -14.3145    -2.4281     0.0413 H       
  44 H44          -10.5993    -5.0583    -0.8335 H       
  45 H45          -10.0771    -3.6595     0.1461 H       
  46 H46          -10.0629    -6.2810     1.0761 H       
  47 H47          -10.2255    -4.8525     2.1492 H       
  48 H48          -12.4477    -6.6189     0.9776 H       
  49 H49          -12.2606    -6.0323     2.6643 H       
  50 H50          -12.8330    -3.7754     2.0637 H       
  51 H51          -13.9183    -4.7080     0.9877 H       
  52 H52            1.3201     2.4584    -3.2065 H       
  53 H53            1.1346     2.2310    -4.9621 H       
  54 H54           -0.2843     2.6199    -3.9603 H       
  55 H55            1.0311    -1.3359    -4.0472 H       
  56 H56            1.2219    -0.2890    -5.4740 H       
  57 H57            2.3398    -0.1305    -4.0979 H       
@<TRIPOS>BOND
   1    1    2 ar
   2    1   28 1
   3    1    6 ar
   4    2    3 ar
   5    2   31 1
   6    3    4 ar
   7    3   32 1
   8    4    5 ar
   9    4    7 1
  10    5    6 ar
  11    5   33 1
  12    6   34 1
  13    7    8 am
  14    7   35 1
  15    8    9 am
  16    8   10 2
  17    9   11 1
  18    9   36 1
  19   11   12 ar
  20   11   16 ar
  21   12   13 ar
  22   12   37 1
  23   13   14 ar
  24   13   17 1
  25   14   15 ar
  26   14   38 1
  27   15   16 ar
  28   15   39 1
  29   16   40 1
  30   17   18 ar
  31   17   19 ar
  32   18   22 ar
  33   19   20 ar
  34   19   41 1
  35   20   21 ar
  36   20   42 1
  37   21   22 ar
  38   21   43 1
  39   22   23 1
  40   23   24 1
  41   23   27 1
  42   24   25 1
  43   24   44 1
  44   24   45 1
  45   25   26 1
  46   25   46 1
  47   25   47 1
  48   26   27 1
  49   26   48 1
  50   26   49 1
  51   27   50 1
  52   27   51 1
  53   28   29 1
  54   28   30 1
  55   29   52 1
  56   29   53 1
  57   29   54 1
  58   30   55 1
  59   30   56 1
  60   30   57 1

#	End of record

