#	Name: ASD05300022
#	Creating user name:	WinNT
#	Creation time:	15. 06. 2019 20:58

#	Modifying user name:	WinNT
#	Modification time:	15. 06. 2019 20:58

#	Program:	/corina/corina34_cracker 3.40 0067  02.08.2006

@<TRIPOS>MOLECULE
ASD05300022
  33   35    0    0    0
SMALL
NO_CHARGES


@<TRIPOS>ATOM
   1 N1            -0.0162     1.3436     0.0094 N.am    
   2 C2             0.0021    -0.0041     0.0020 C.2     
   3 O3             1.0605    -0.5961    -0.0113 O.2     
   4 N4            -1.1558    -0.6938     0.0094 N.am    
   5 C5            -1.1394    -2.0445     0.0020 C.2     
   6 C6            -0.5778    -2.7089     0.9891 C.2     
   7 C7            -0.6075    -4.1816     0.9962 C.2     
   8 C8            -1.2004    -4.8325     0.0181 C.2     
   9 C9            -1.8177    -4.0889    -1.0935 C.2     
  10 C10           -1.7721    -2.7738    -1.1105 C.2     
  11 C11           -2.2998    -2.0279    -2.2585 C.2     
  12 C12           -2.9003    -0.8849    -2.1841 C.2     
  13 C13           -3.1938    -0.1259    -0.9652 C.2     
  14 C14           -2.3367    -0.0353     0.0298 C.2     
  15 C15           -2.6555     0.8048     1.2029 C.2     
  16 C16           -3.8087     1.4294     1.2799 C.2     
  17 C17           -4.7892     1.2901     0.1894 C.2     
  18 C18           -4.5014     0.5581    -0.8618 C.2     
  19 C19            0.0406    -4.9429     2.1238 C.3     
  20 F20           -0.8944    -5.1524     3.1431 F       
  21 F21            0.4988    -6.1771     1.6505 F       
  22 F22            1.1192    -4.2060     2.6246 F       
  23 H23            0.8172     1.8399     0.0041 H       
  24 H24           -0.8627     1.8171     0.0160 H       
  25 H25           -0.0949    -2.1746     1.7938 H       
  26 H26           -1.2340    -5.9119     0.0302 H       
  27 H27           -2.3073    -4.6227    -1.8945 H       
  28 H28           -2.1781    -2.4660    -3.2381 H       
  29 H29           -3.2181    -0.4436    -3.1172 H       
  30 H30           -1.9362     0.9056     2.0021 H       
  31 H31           -4.0370     2.0423     2.1394 H       
  32 H32           -5.7457     1.7873     0.2549 H       
  33 H33           -5.2230     0.4582    -1.6592 H       
@<TRIPOS>BOND
   1    1    2 am
   2    1   23 1
   3    1   24 1
   4    2    3 2
   5    2    4 am
   6    4    5 1
   7    4   14 1
   8    5    6 2
   9    5   10 1
  10    6    7 1
  11    6   25 1
  12    7    8 2
  13    7   19 1
  14    8    9 1
  15    8   26 1
  16    9   10 2
  17    9   27 1
  18   10   11 1
  19   11   12 2
  20   11   28 1
  21   12   13 1
  22   12   29 1
  23   13   14 2
  24   13   18 1
  25   14   15 1
  26   15   16 2
  27   15   30 1
  28   16   17 1
  29   16   31 1
  30   17   18 2
  31   17   32 1
  32   18   33 1
  33   19   20 1
  34   19   21 1
  35   19   22 1

#	End of record

