#	Name: ASD03731616
#	Creating user name:	WinNT
#	Creation time:	15. 06. 2019 20:46

#	Modifying user name:	WinNT
#	Modification time:	15. 06. 2019 20:46

#	Program:	/corina/corina34_cracker 3.40 0067  02.08.2006

@<TRIPOS>MOLECULE
ASD03731616
  36   37    0    0    0
SMALL
NO_CHARGES


@<TRIPOS>ATOM
   1 C1            -0.4026     1.1047    -1.9611 C.2     
   2 C2            -0.2813    -0.2739    -1.4502 C.ar    
   3 C3             0.9016    -0.9935    -1.6479 C.ar    
   4 C4             1.0111    -2.2818    -1.1689 C.ar    
   5 C5            -0.0512    -2.8655    -0.4908 C.ar    
   6 C6            -1.2308    -2.1532    -0.2920 C.ar    
   7 C7            -1.3462    -0.8625    -0.7622 C.ar    
   8 O8             0.5266     1.6170    -2.5550 O.2     
   9 N9            -1.5453     1.7945    -1.7744 N.am    
  10 S10           -1.6815     3.3420    -2.3479 S.o2    
  11 O11           -2.9838     3.7493    -1.9514 O.2     
  12 O12           -0.5248     4.0023    -1.8526 O.2     
  13 C13           -1.5909     3.1661    -4.1511 C.3     
  14 F14           -2.2616    -2.7256     0.3675 F       
  15 O15            0.0608    -4.1341    -0.0209 O.3     
  16 C16            1.2639    -4.7548    -0.1403 C.ar    
  17 C17            2.2151    -4.6250     0.8617 C.ar    
  18 C18            3.4372    -5.2566     0.7385 C.ar    
  19 C19            3.7136    -6.0181    -0.3836 C.ar    
  20 C20            2.7667    -6.1483    -1.3840 C.ar    
  21 C21            1.5406    -5.5236    -1.2614 C.ar    
  22 C22            4.4706    -5.1160     1.8263 C.3     
  23 F23            3.9648    -4.3053     2.8481 F       
  24 F24            4.7788    -6.3792     2.3427 F       
  25 F25            5.6275    -4.5332     1.2980 F       
  26 Cl26           5.2506    -6.8104    -0.5364 Cl      
  27 Cl27           2.2302    -0.2656    -2.4958 Cl      
  28 H28            1.9242    -2.8380    -1.3216 H       
  29 H29           -2.2597    -0.3087    -0.6036 H       
  30 H30           -2.2880     1.3844    -1.3041 H       
  31 H31           -2.4071     2.5312    -4.4957 H       
  32 H32           -1.6732     4.1483    -4.6166 H       
  33 H33           -0.6379     2.7132    -4.4246 H       
  34 H34            2.0001    -4.0303     1.7372 H       
  35 H35            2.9845    -6.7427    -2.2590 H       
  36 H36            0.7999    -5.6294    -2.0403 H       
@<TRIPOS>BOND
   1    1    2 1
   2    1    8 2
   3    1    9 am
   4    2    3 ar
   5    2    7 ar
   6    3    4 ar
   7    3   27 1
   8    4    5 ar
   9    4   28 1
  10    5    6 ar
  11    5   15 1
  12    6    7 ar
  13    6   14 1
  14    7   29 1
  15    9   10 am
  16    9   30 1
  17   10   11 2
  18   10   12 2
  19   10   13 1
  20   13   31 1
  21   13   32 1
  22   13   33 1
  23   15   16 1
  24   16   17 ar
  25   16   21 ar
  26   17   18 ar
  27   17   34 1
  28   18   19 ar
  29   18   22 1
  30   19   20 ar
  31   19   26 1
  32   20   21 ar
  33   20   35 1
  34   21   36 1
  35   22   23 1
  36   22   24 1
  37   22   25 1

#	End of record

