#	Name: ASD01410880
#	Creating user name:	WinNT
#	Creation time:	15. 06. 2019 19:18

#	Modifying user name:	WinNT
#	Modification time:	15. 06. 2019 19:18

#	Program:	/corina/corina34_cracker 3.40 0067  02.08.2006

@<TRIPOS>MOLECULE
ASD01410880
  68   69    0    0    0
SMALL
NO_CHARGES


@<TRIPOS>ATOM
   1 S1             0.7110     2.1108    -0.6887 S.3     
   2 C2             0.4690     0.3720    -0.5936 C.2     
   3 C3             1.6442    -0.2386    -0.2219 C.2     
   4 C4             2.6937     0.6247    -0.0197 C.2     
   5 C5             2.3969     1.9417    -0.2206 C.2     
   6 C6             3.3218     3.0249    -0.0726 C.1     
   7 C7             4.0800     3.9129     0.0488 C.1     
   8 C8             5.0308     5.0264     0.2010 C.3     
   9 C9             6.3965     4.4774     0.6183 C.3     
  10 C10            5.1644     5.7684    -1.1303 C.3     
  11 C11           -0.7483    -0.2968    -0.8583 C.2     
  12 N12            1.7605    -1.6202    -0.0627 N.am    
  13 O13           -1.8700     0.4140    -1.1012 O.3     
  14 O14           -0.7848    -1.5135    -0.8671 O.2     
  15 C15            1.7655    -2.2049     1.2805 C.3     
  16 C16            1.8683    -2.4165    -1.1447 C.2     
  17 C17            1.8728    -3.9145    -0.9804 C.3     
  18 O18            1.9617    -1.9275    -2.2507 O.2     
  19 C19            2.8923    -1.5791     2.1050 C.3     
  20 C20            0.4430    -1.9351     1.9508 C.2     
  21 C21            1.9098    -4.5787    -2.3583 C.3     
  22 C22            3.1748    -4.1432    -3.1005 C.3     
  23 C23            4.4075    -4.5645    -2.2981 C.3     
  24 C24            4.3705    -3.9004    -0.9203 C.3     
  25 C25            3.1055    -4.3359    -0.1780 C.3     
  26 C26            5.6725    -4.1291    -3.0404 C.3     
  27 N27           -0.0205    -2.7811     2.8920 N.am    
  28 O28           -0.2042    -0.9566     1.6432 O.2     
  29 C29           -1.3061    -2.5187     3.5435 C.3     
  30 C30            0.7613    -3.9631     3.2635 C.3     
  31 C31            4.2335    -1.8401     1.4165 C.3     
  32 C32            4.5194     5.9906     1.2732 C.3     
  33 H33            3.6764     0.2876     0.2754 H       
  34 H34            6.7608     3.7904    -0.1456 H       
  35 H35            7.1005     5.3019     0.7310 H       
  36 H36            6.3013     3.9487     1.5667 H       
  37 H37            4.1914     6.1595    -1.4276 H       
  38 H38            5.8684     6.5929    -1.0176 H       
  39 H39            5.5287     5.0815    -1.8942 H       
  40 H40           -2.6512    -0.1299    -1.2712 H       
  41 H41            1.9231    -3.2810     1.2078 H       
  42 H42            0.9716    -4.2247    -0.4516 H       
  43 H43            2.7289    -0.5045     2.1868 H       
  44 H44            2.9028    -2.0219     3.1009 H       
  45 H45            1.9130    -5.6621    -2.2394 H       
  46 H46            1.0316    -4.2785    -2.9299 H       
  47 H47            3.2011    -4.6164    -4.0822 H       
  48 H48            3.1715    -3.0597    -3.2194 H       
  49 H49            4.4107    -5.6480    -2.1793 H       
  50 H50            5.2487    -4.2006    -0.3486 H       
  51 H51            4.3673    -2.8169    -1.0391 H       
  52 H52            3.0792    -3.8627     0.8036 H       
  53 H53            3.1088    -5.4193    -0.0591 H       
  54 H54            5.6692    -3.0456    -3.1593 H       
  55 H55            6.5507    -4.4293    -2.4688 H       
  56 H56            5.6988    -4.6022    -4.0220 H       
  57 H57           -2.0967    -2.5007     2.7934 H       
  58 H58           -1.5124    -3.3048     4.2699 H       
  59 H59           -1.2658    -1.5555     4.0521 H       
  60 H60            1.4349    -3.7105     4.0824 H       
  61 H61            0.0877    -4.7596     3.5796 H       
  62 H62            1.3430    -4.2985     2.4048 H       
  63 H63            4.3949    -2.9146     1.3309 H       
  64 H64            4.2244    -1.3936     0.4222 H       
  65 H65            5.0366    -1.3978     2.0061 H       
  66 H66            4.4242     5.4620     2.2217 H       
  67 H67            5.2234     6.8151     1.3859 H       
  68 H68            3.5464     6.3817     0.9760 H       
@<TRIPOS>BOND
   1    1    2 1
   2    1    5 1
   3    2    3 2
   4    2   11 1
   5    3    4 1
   6    3   12 1
   7    4    5 2
   8    4   33 1
   9    5    6 1
  10    6    7 3
  11    7    8 1
  12    8    9 1
  13    8   10 1
  14    8   32 1
  15    9   34 1
  16    9   35 1
  17    9   36 1
  18   10   37 1
  19   10   38 1
  20   10   39 1
  21   11   13 1
  22   11   14 2
  23   12   15 1
  24   12   16 am
  25   13   40 1
  26   15   19 1
  27   15   20 1
  28   15   41 1
  29   16   17 1
  30   16   18 2
  31   17   21 1
  32   17   25 1
  33   17   42 1
  34   19   31 1
  35   19   43 1
  36   19   44 1
  37   20   27 am
  38   20   28 2
  39   21   22 1
  40   21   45 1
  41   21   46 1
  42   22   23 1
  43   22   47 1
  44   22   48 1
  45   23   24 1
  46   23   26 1
  47   23   49 1
  48   24   25 1
  49   24   50 1
  50   24   51 1
  51   25   52 1
  52   25   53 1
  53   26   54 1
  54   26   55 1
  55   26   56 1
  56   27   29 1
  57   27   30 1
  58   29   57 1
  59   29   58 1
  60   29   59 1
  61   30   60 1
  62   30   61 1
  63   30   62 1
  64   31   63 1
  65   31   64 1
  66   31   65 1
  67   32   66 1
  68   32   67 1
  69   32   68 1

#	End of record

