#	Name: ASD01940198
#	Creating user name:	WinNT
#	Creation time:	15. 06. 2019 20:12

#	Modifying user name:	WinNT
#	Modification time:	15. 06. 2019 20:12

#	Program:	/corina/corina34_cracker 3.40 0067  02.08.2006

@<TRIPOS>MOLECULE
ASD01940198
  45   47    0    0    0
SMALL
NO_CHARGES


@<TRIPOS>ATOM
   1 C1            -0.4711     1.4862    -0.7617 C.2     
   2 C2            -0.5130    -0.0145    -0.8925 C.3     
   3 O3             0.5941     2.0560    -0.6543 O.2     
   4 N4            -1.6170     2.1956    -0.7697 N.am    
   5 S5            -2.9496     4.6010    -0.6439 S.3     
   6 C6            -1.5784     3.5798    -0.6491 C.2     
   7 N7            -0.4976     4.2842    -0.5233 N.2     
   8 C8            -0.6451     5.5918    -0.4198 C.2     
   9 C9            -1.9110     6.0121    -0.4600 C.2     
  10 C10           -2.3716     7.4438    -0.3646 C.3     
  11 S11           -2.4546     8.1643    -2.0273 S.o2    
  12 O12           -1.1509     8.3085    -2.5739 O.2     
  13 O13           -3.5018     7.5657    -2.7785 O.2     
  14 N14           -2.9675     9.7192    -1.7788 N.am    
  15 C15           -2.1943    10.5972    -1.0075 C.ar    
  16 C16           -2.8154    11.5372    -0.1860 C.ar    
  17 C17           -2.0445    12.4041     0.5763 C.ar    
  18 C18           -0.6614    12.3329     0.5186 C.ar    
  19 C19           -0.0474    11.3992    -0.2980 C.ar    
  20 C20           -0.8104    10.5290    -1.0554 C.ar    
  21 N21           -4.2142    11.6068    -0.1304 N.pl3   
  22 C22           -4.8378    12.7551     0.3676 C.ar    
  23 C23           -4.8587    13.9217    -0.3906 C.ar    
  24 C24           -5.4767    15.0545     0.1051 C.ar    
  25 C25           -6.0731    15.0283     1.3536 C.ar    
  26 C26           -6.0531    13.8701     2.1089 C.ar    
  27 C27           -5.4425    12.7322     1.6170 C.ar    
  28 I28           -7.0080    16.7475     2.1014 I       
  29 F29           -4.2756    13.9474    -1.6090 F       
  30 F30            0.0887    13.1767     1.2606 F       
  31 F31           -2.6418    13.3169     1.3734 F       
  32 H32           -0.5795    -0.4639     0.0983 H       
  33 H33           -1.3833    -0.3037    -1.4817 H       
  34 H34            0.3933    -0.3614    -1.3888 H       
  35 H35           -2.4688     1.7402    -0.8597 H       
  36 H36            0.1909     6.2668    -0.3110 H       
  37 H37           -3.3590     7.4779     0.0958 H       
  38 H38           -1.6676     8.0124     0.2430 H       
  39 H39           -3.8032    10.0221    -2.1671 H       
  40 H40            1.0305    11.3473    -0.3408 H       
  41 H41           -0.3277     9.7986    -1.6878 H       
  42 H42           -4.7496    10.8585    -0.4372 H       
  43 H43           -5.4937    15.9607    -0.4822 H       
  44 H44           -6.5190    13.8536     3.0831 H       
  45 H45           -5.4316    11.8271     2.2061 H       
@<TRIPOS>BOND
   1    1    2 1
   2    1    3 2
   3    1    4 am
   4    2   32 1
   5    2   33 1
   6    2   34 1
   7    4    6 1
   8    4   35 1
   9    5    6 1
  10    5    9 1
  11    6    7 2
  12    7    8 1
  13    8    9 2
  14    8   36 1
  15    9   10 1
  16   10   11 1
  17   10   37 1
  18   10   38 1
  19   11   12 2
  20   11   13 2
  21   11   14 am
  22   14   15 1
  23   14   39 1
  24   15   16 ar
  25   15   20 ar
  26   16   17 ar
  27   16   21 1
  28   17   18 ar
  29   17   31 1
  30   18   19 ar
  31   18   30 1
  32   19   20 ar
  33   19   40 1
  34   20   41 1
  35   21   22 1
  36   21   42 1
  37   22   23 ar
  38   22   27 ar
  39   23   24 ar
  40   23   29 1
  41   24   25 ar
  42   24   43 1
  43   25   26 ar
  44   25   28 1
  45   26   27 ar
  46   26   44 1
  47   27   45 1

#	End of record

