#	Name: ASD04880490
#	Creating user name:	WinNT
#	Creation time:	15. 06. 2019 20:53

#	Modifying user name:	WinNT
#	Modification time:	15. 06. 2019 20:53

#	Program:	/corina/corina34_cracker 3.40 0067  02.08.2006

@<TRIPOS>MOLECULE
ASD04880490
  41   43    0    0    0
SMALL
NO_CHARGES


@<TRIPOS>ATOM
   1 C1            -0.0144     1.2118     0.0087 C.2     
   2 O2            -0.0014    -0.0038    -0.0182 O.2     
   3 C3             1.2570     1.9651    -0.0128 C.ar    
   4 C4             2.4742     1.2884     0.0820 C.ar    
   5 C5             3.6589     1.9990     0.0607 C.ar    
   6 C6             3.6390     3.3801    -0.0544 C.ar    
   7 C7             2.4352     4.0546    -0.1482 C.ar    
   8 C8             1.2456     3.3557    -0.1339 C.ar    
   9 F9             4.8385     1.3468     0.1528 F       
  10 N10           -1.1884     1.8723     0.0526 N.am    
  11 N11           -1.3383     3.2501     0.1970 N.2     
  12 C12           -2.5643     3.6476     0.2107 C.2     
  13 C13           -3.4831     2.4562     0.0611 C.3     
  14 C14           -2.5211     1.2569    -0.0506 C.3     
  15 C15           -3.0027     5.0470     0.3513 C.ar    
  16 C16           -2.0549     6.0739     0.4843 C.ar    
  17 C17           -2.4798     7.3877     0.6160 C.ar    
  18 C18           -3.8299     7.6822     0.6163 C.ar    
  19 C19           -4.7675     6.6720     0.4858 C.ar    
  20 C20           -4.3634     5.3604     0.3475 C.ar    
  21 N21           -0.6940     5.7749     0.4843 N.3     
  22 C22           -0.0056     6.4547    -0.6211 C.3     
  23 C23           -0.0804     6.1147     1.7750 C.3     
  24 H24            2.4899     0.2123     0.1721 H       
  25 H25            4.5673     3.9318    -0.0707 H       
  26 H26            2.4265     5.1309    -0.2370 H       
  27 H27            0.3069     3.8841    -0.2117 H       
  28 H28           -4.1246     2.3557     0.9366 H       
  29 H29           -4.0825     2.5470    -0.8448 H       
  30 H30           -2.6391     0.7565    -1.0117 H       
  31 H31           -2.6853     0.5580     0.7696 H       
  32 H32           -1.7546     8.1813     0.7190 H       
  33 H33           -4.1556     8.7068     0.7192 H       
  34 H34           -5.8204     6.9126     0.4879 H       
  35 H35           -5.0986     4.5765     0.2408 H       
  36 H36           -0.1266     7.5328    -0.5163 H       
  37 H37            1.0549     6.2040    -0.5977 H       
  38 H38           -0.4345     6.1315    -1.5697 H       
  39 H39           -0.5635     5.5445     2.5684 H       
  40 H40            0.9817     5.8713     1.7476 H       
  41 H41           -0.2040     7.1806     1.9666 H       
@<TRIPOS>BOND
   1    1    2 2
   2    1    3 1
   3    1   10 am
   4    3    4 ar
   5    3    8 ar
   6    4    5 ar
   7    4   24 1
   8    5    6 ar
   9    5    9 1
  10    6    7 ar
  11    6   25 1
  12    7    8 ar
  13    7   26 1
  14    8   27 1
  15   10   11 1
  16   10   14 1
  17   11   12 2
  18   12   13 1
  19   12   15 1
  20   13   14 1
  21   13   28 1
  22   13   29 1
  23   14   30 1
  24   14   31 1
  25   15   16 ar
  26   15   20 ar
  27   16   17 ar
  28   16   21 1
  29   17   18 ar
  30   17   32 1
  31   18   19 ar
  32   18   33 1
  33   19   20 ar
  34   19   34 1
  35   20   35 1
  36   21   22 1
  37   21   23 1
  38   22   36 1
  39   22   37 1
  40   22   38 1
  41   23   39 1
  42   23   40 1
  43   23   41 1

#	End of record

