#	Name: ASD02198421
#	Creating user name:	WinNT
#	Creation time:	15. 06. 2019 20:19

#	Modifying user name:	WinNT
#	Modification time:	15. 06. 2019 20:19

#	Program:	/corina/corina34_cracker 3.40 0067  02.08.2006

@<TRIPOS>MOLECULE
ASD02198421
  35   37    0    0    0
SMALL
NO_CHARGES


@<TRIPOS>ATOM
   1 C1             0.1636     1.8642     0.1836 C.ar    
   2 S2             0.0745     0.1100     0.0434 S.o2    
   3 N3             0.0238    -0.5027     1.5810 N.am    
   4 C4            -1.0192    -0.1510     2.4379 C.ar    
   5 C5            -0.7782     0.0207     3.8187 C.ar    
   6 C6            -1.8555     0.3785     4.6656 C.ar    
   7 C7            -3.1393     0.5554     4.1234 C.ar    
   8 C8            -3.3419     0.3823     2.7869 C.ar    
   9 C9            -2.2912     0.0369     1.9424 C.ar    
  10 N10            0.4435    -0.1492     4.3312 N.ar    
  11 C11            0.6734     0.0085     5.6121 C.ar    
  12 C12           -0.3407     0.3594     6.5006 C.ar    
  13 C13           -1.6130     0.5493     6.0419 C.ar    
  14 O14           -1.1848    -0.1819    -0.5466 O.2     
  15 O15            1.3111    -0.3111    -0.5158 O.2     
  16 C16            1.3941     2.4904     0.2534 C.ar    
  17 C17           -0.9968     2.6146     0.2181 C.ar    
  18 C18           -0.9269     3.9908     0.3281 C.ar    
  19 C19            0.3034     4.6165     0.4041 C.ar    
  20 C20            1.4640     3.8665     0.3634 C.ar    
  21 C21            0.3797     6.1168     0.5235 C.3     
  22 Br22          -4.5841     1.0323     5.2463 Br      
  23 H23            0.7194    -1.1062     1.8858 H       
  24 H24           -4.3314     0.5195     2.3765 H       
  25 H25           -2.4768    -0.0943     0.8866 H       
  26 H26            1.6751    -0.1378     5.9885 H       
  27 H27           -0.1209     0.4819     7.5509 H       
  28 H28           -2.4113     0.8219     6.7164 H       
  29 H29            2.3007     1.9044     0.2222 H       
  30 H30           -1.9580     2.1258     0.1588 H       
  31 H31           -1.8334     4.5772     0.3544 H       
  32 H32            2.4252     4.3554     0.4227 H       
  33 H33            0.3757     6.3982     1.5765 H       
  34 H34            1.2978     6.4724     0.0559 H       
  35 H35           -0.4794     6.5652     0.0244 H       
@<TRIPOS>BOND
   1    1    2 1
   2    1   16 ar
   3    1   17 ar
   4    2    3 am
   5    2   14 2
   6    2   15 2
   7    3    4 1
   8    3   23 1
   9    4    5 ar
  10    4    9 ar
  11    5    6 ar
  12    5   10 ar
  13    6    7 ar
  14    6   13 ar
  15    7    8 ar
  16    7   22 1
  17    8    9 ar
  18    8   24 1
  19    9   25 1
  20   10   11 ar
  21   11   12 ar
  22   11   26 1
  23   12   13 ar
  24   12   27 1
  25   13   28 1
  26   16   20 ar
  27   16   29 1
  28   17   18 ar
  29   17   30 1
  30   18   19 ar
  31   18   31 1
  32   19   20 ar
  33   19   21 1
  34   20   32 1
  35   21   33 1
  36   21   34 1
  37   21   35 1

#	End of record

