#	Name: ASD03082167
#	Creating user name:	WinNT
#	Creation time:	15. 06. 2019 20:27

#	Modifying user name:	WinNT
#	Modification time:	15. 06. 2019 20:27

#	Program:	/corina/corina34_cracker 3.40 0067  02.08.2006

@<TRIPOS>MOLECULE
ASD03082167
  49   51    0    0    0
SMALL
NO_CHARGES


@<TRIPOS>ATOM
   1 C1            -0.0085     1.3756    -0.1282 C.ar    
   2 C2            -1.1989     1.8257     0.4275 C.ar    
   3 C3            -2.3666     1.1162     0.2241 C.ar    
   4 C4            -2.3507    -0.0428    -0.5330 C.ar    
   5 C5            -1.1647    -0.4936    -1.0882 C.ar    
   6 C6             0.0040     0.2156    -0.8923 C.ar    
   7 C7            -1.1505    -1.7558    -1.9114 C.3     
   8 N8             1.1751     2.0923     0.0764 N.pl3   
   9 C9             4.4175    -1.5620     0.1689 C.ar    
  10 C10            3.6675    -2.6616    -0.2619 C.ar    
  11 C11            5.7327    -1.7843     0.5907 C.ar    
  12 C12            6.2351    -3.0692     0.5657 C.ar    
  13 N13            5.4937    -4.0785     0.1514 N.ar    
  14 C14            4.2494    -3.9127    -0.2541 C.ar    
  15 N15            4.5300     0.9586     0.2415 N.pl3   
  16 C16            3.8376    -0.2002     0.1725 C.2     
  17 N17            3.5781     1.9906     0.2152 N.2     
  18 C18            2.3979     1.4205     0.1285 C.2     
  19 N19            2.5551     0.0963     0.1085 N.2     
  20 C20            5.9845     1.1080     0.3321 C.3     
  21 C21            6.3973     1.1978     1.8027 C.3     
  22 C22            7.8936     1.3515     1.8959 C.2     
  23 F23            0.1507    -2.0048    -2.3609 F       
  24 F24           -1.5863    -2.8291    -1.1269 F       
  25 F25           -2.0028    -1.6052    -3.0105 F       
  26 O26            8.4841     1.4503     3.0960 O.3     
  27 F27           -3.4938    -0.7354    -0.7302 F       
  28 N28            9.6958     1.5727     3.1077 N.2     
  29 O29            8.5634     1.3859     0.8862 O.2     
  30 C30           10.3246     1.6728     4.2329 C.2     
  31 C31           11.8239     1.8243     4.2473 C.3     
  32 N32            9.6252     1.6412     5.4167 N.pl3   
  33 H33           -1.2117     2.7295     1.0184 H       
  34 H34           -3.2925     1.4657     0.6564 H       
  35 H35            0.9286    -0.1363    -1.3254 H       
  36 H36            1.1463     3.0561     0.1820 H       
  37 H37            2.6483    -2.5332    -0.5953 H       
  38 H38            6.3457    -0.9626     0.9305 H       
  39 H39            7.2493    -3.2510     0.8894 H       
  40 H40            3.6785    -4.7677    -0.5849 H       
  41 H41            6.4677     0.2466    -0.1290 H       
  42 H42            6.2894     2.0167    -0.1870 H       
  43 H43            5.9141     2.0592     2.2638 H       
  44 H44            6.0924     0.2891     2.3217 H       
  45 H45           12.0825     2.8828     4.2173 H       
  46 H46           12.2255     1.3778     5.1570 H       
  47 H47           12.2482     1.3218     3.3780 H       
  48 H48            8.6601     1.5437     5.4074 H       
  49 H49           10.0970     1.7163     6.2609 H       
@<TRIPOS>BOND
   1    1    2 ar
   2    1    8 1
   3    1    6 ar
   4    2    3 ar
   5    2   33 1
   6    3    4 ar
   7    3   34 1
   8    4    5 ar
   9    4   27 1
  10    5    6 ar
  11    5    7 1
  12    6   35 1
  13    7   23 1
  14    7   24 1
  15    7   25 1
  16    8   18 1
  17    8   36 1
  18    9   10 ar
  19    9   11 ar
  20    9   16 1
  21   10   14 ar
  22   10   37 1
  23   11   12 ar
  24   11   38 1
  25   12   13 ar
  26   12   39 1
  27   13   14 ar
  28   14   40 1
  29   15   17 1
  30   15   20 1
  31   15   16 1
  32   16   19 2
  33   17   18 2
  34   18   19 1
  35   20   21 1
  36   20   41 1
  37   20   42 1
  38   21   22 1
  39   21   43 1
  40   21   44 1
  41   22   26 1
  42   22   29 2
  43   26   28 1
  44   28   30 2
  45   30   31 1
  46   30   32 1
  47   31   45 1
  48   31   46 1
  49   31   47 1
  50   32   48 1
  51   32   49 1

#	End of record

