#	Name: ASD01810516
#	Creating user name:	WinNT
#	Creation time:	15. 06. 2019 19:24

#	Modifying user name:	WinNT
#	Modification time:	15. 06. 2019 19:24

#	Program:	/corina/corina34_cracker 3.40 0067  02.08.2006

@<TRIPOS>MOLECULE
ASD01810516
  76   78    0    0    0
SMALL
NO_CHARGES


@<TRIPOS>ATOM
   1 C1             0.0946     1.0934    -0.6371 C.ar    
   2 C2             0.0061    -0.2933    -0.6036 C.ar    
   3 C3            -1.2062    -0.9165    -0.3883 C.ar    
   4 C4            -2.3607    -0.1605    -0.2011 C.ar    
   5 C5            -2.2665     1.2410    -0.2239 C.ar    
   6 C6            -1.0330     1.8624    -0.4426 C.ar    
   7 N7            -3.5669    -0.8099    -0.0086 N.3     
   8 C8            -4.5538    -0.0217     0.7305 C.3     
   9 C9            -4.7971     1.3097     0.0051 C.3     
  10 C10           -3.4735     2.0535    -0.0009 C.2     
  11 C11           -3.3639    -2.1222     0.6195 C.3     
  12 C12           -4.7017    -2.7511     0.9127 C.ar    
  13 C13           -5.3094    -3.5556    -0.0331 C.ar    
  14 C14           -6.5365    -4.1324     0.2358 C.ar    
  15 C15           -7.1558    -3.9051     1.4506 C.ar    
  16 C16           -6.5477    -3.1013     2.3967 C.ar    
  17 C17           -5.3185    -2.5280     2.1295 C.ar    
  18 Cl18           1.4352    -1.2512    -0.8357 Cl      
  19 F19            1.2879     1.6883    -0.8550 F       
  20 O20           -3.4139     3.2533     0.1690 O.2     
  21 C21           -5.2490     1.0507    -1.4091 C.2     
  22 O22           -5.3684    -0.0881    -1.8087 O.2     
  23 C23           -7.5659     5.2649    -8.5243 C.3     
  24 C24           -8.0073     5.0120    -9.9056 C.1     
  25 C25           -8.3594     4.8103   -11.0072 C.1     
  26 C26           -8.8008     4.5574   -12.3885 C.3     
  27 O27           -9.0238     5.8028   -13.0529 O.3     
  28 C28           -9.4363     5.7470   -14.3395 C.2     
  29 N29           -9.6442     4.6807   -15.0115 N.2     
  30 C30           -9.7368     6.9399   -15.2268 C.3     
  31 C31           -9.7638     6.3078   -16.6393 C.3     
  32 O32          -10.0780     4.9325   -16.3333 O.3     
  33 N33           -7.3367     3.9847    -7.8413 N.4     
  34 C34           -8.5843     3.2094    -7.8225 C.3     
  35 C35           -6.3003     3.2273    -8.5557 C.3     
  36 N36           -5.5206     2.0848    -2.2297 N.am    
  37 C37           -5.9599     1.8331    -3.6045 C.3     
  38 C38           -6.1986     3.1665    -4.3158 C.3     
  39 C39           -6.6574     2.9036    -5.7515 C.3     
  40 C40           -6.8962     4.2370    -6.4628 C.3     
  41 H41           -1.2598    -1.9950    -0.3652 H       
  42 H42           -0.9655     2.9400    -0.4679 H       
  43 H43           -5.4894    -0.5775     0.7927 H       
  44 H44           -4.1817     0.1755     1.7359 H       
  45 H45           -5.5494     1.8919     0.5371 H       
  46 H46           -2.8005    -2.7653    -0.0565 H       
  47 H47           -2.8092    -1.9980     1.5495 H       
  48 H48           -4.8256    -3.7332    -0.9822 H       
  49 H49           -7.0116    -4.7604    -0.5033 H       
  50 H50           -8.1148    -4.3552     1.6604 H       
  51 H51           -7.0317    -2.9234     3.3457 H       
  52 H52           -4.8434    -1.9000     2.8686 H       
  53 H53           -6.6402     5.8401    -8.5382 H       
  54 H54           -8.3349     5.8269    -7.9942 H       
  55 H55           -8.0318     3.9954   -12.9186 H       
  56 H56           -9.7265     3.9822   -12.3746 H       
  57 H57          -10.7056     7.3733   -14.9780 H       
  58 H58           -8.9466     7.6869   -15.1520 H       
  59 H59          -10.5437     6.7575   -17.2538 H       
  60 H60           -8.7907     6.3908   -17.1232 H       
  61 H61           -9.3533     3.7714    -7.2925 H       
  62 H62           -8.9112     3.0222    -8.8453 H       
  63 H63           -8.4142     2.2595    -7.3157 H       
  64 H64           -6.1302     2.2774    -8.0489 H       
  65 H65           -6.6272     3.0400    -9.5785 H       
  66 H66           -5.3746     3.8025    -8.5696 H       
  67 H67           -5.4251     2.9956    -1.9102 H       
  68 H68           -5.1909     1.2711    -4.1345 H       
  69 H69           -6.8856     1.2579    -3.5905 H       
  70 H70           -6.9676     3.7285    -3.7857 H       
  71 H71           -5.2729     3.7417    -4.3297 H       
  72 H72           -5.8884     2.3417    -6.2816 H       
  73 H73           -7.5832     2.3284    -5.7376 H       
  74 H74           -5.9704     4.8123    -6.4768 H       
  75 H75           -7.6652     4.7990    -5.9328 H       
  76 Br76           6.4352    12.6869     8.3457 Br      
@<TRIPOS>BOND
   1    1    2 ar
   2    1   19 1
   3    1    6 ar
   4    2    3 ar
   5    2   18 1
   6    3    4 ar
   7    3   41 1
   8    4    5 ar
   9    4    7 1
  10    5    6 ar
  11    5   10 1
  12    6   42 1
  13    7    8 1
  14    7   11 1
  15    8    9 1
  16    8   43 1
  17    8   44 1
  18    9   10 1
  19    9   21 1
  20    9   45 1
  21   10   20 2
  22   11   12 1
  23   11   46 1
  24   11   47 1
  25   12   13 ar
  26   12   17 ar
  27   13   14 ar
  28   13   48 1
  29   14   15 ar
  30   14   49 1
  31   15   16 ar
  32   15   50 1
  33   16   17 ar
  34   16   51 1
  35   17   52 1
  36   21   36 am
  37   21   22 2
  38   23   24 1
  39   23   33 1
  40   23   53 1
  41   23   54 1
  42   24   25 3
  43   25   26 1
  44   26   27 1
  45   26   55 1
  46   26   56 1
  47   27   28 1
  48   28   29 2
  49   28   30 1
  50   29   32 1
  51   30   31 1
  52   30   57 1
  53   30   58 1
  54   31   32 1
  55   31   59 1
  56   31   60 1
  57   33   40 1
  58   33   34 1
  59   33   35 1
  60   34   61 1
  61   34   62 1
  62   34   63 1
  63   35   64 1
  64   35   65 1
  65   35   66 1
  66   36   37 1
  67   36   67 1
  68   37   38 1
  69   37   68 1
  70   37   69 1
  71   38   39 1
  72   38   70 1
  73   38   71 1
  74   39   40 1
  75   39   72 1
  76   39   73 1
  77   40   74 1
  78   40   75 1

#	End of record

