#	Name: ASD01120281
#	Creating user name:	WinNT
#	Creation time:	15. 06. 2019 18:59

#	Modifying user name:	WinNT
#	Modification time:	15. 06. 2019 18:59

#	Program:	/corina/corina34_cracker 3.40 0067  02.08.2006

@<TRIPOS>MOLECULE
ASD01120281
  27   28    0    0    0
SMALL
NO_CHARGES


@<TRIPOS>ATOM
   1 C1            -0.0187     1.5258     0.0104 C.3     
   2 C2             0.0021    -0.0041     0.0020 C.3     
   3 O3            -1.3601    -0.5067     0.0123 O.3     
   4 C4            -1.5187    -1.8458     0.0066 C.2     
   5 O5            -0.5446    -2.5732    -0.0066 O.2     
   6 C6            -2.8679    -2.4255     0.0164 C.2     
   7 C7            -3.1552    -3.7545     0.0125 C.2     
   8 C8            -4.5637    -3.8909     0.0255 C.ar    
   9 C9            -5.1031    -2.5897     0.0374 C.ar    
  10 N10           -4.0489    -1.7074     0.0371 N.pl3   
  11 C11           -6.4852    -2.4221     0.0517 C.ar    
  12 C12           -7.3092    -3.5252     0.0541 C.ar    
  13 C13           -6.7760    -4.8078     0.0424 C.ar    
  14 C14           -5.4238    -4.9985     0.0276 C.ar    
  15 Cl15          -4.7715    -6.6073     0.0128 Cl      
  16 N16           -7.0674    -1.0612     0.0647 N.pl3   
  17 O17           -8.2767    -0.9163     0.0772 O.2     
  18 O18           -6.3372    -0.0864     0.0630 O.2     
  19 H19            1.0039     1.9031     0.0027 H       
  20 H20           -0.5459     1.8868    -0.8726 H       
  21 H21           -0.5289     1.8773     0.9072 H       
  22 H22            0.5123    -0.3556    -0.8948 H       
  23 H23            0.5293    -0.3651     0.8851 H       
  24 H24           -2.4373    -4.5613     0.0011 H       
  25 H25           -4.1218    -0.7402     0.0445 H       
  26 H26           -8.3808    -3.3920     0.0655 H       
  27 H27           -7.4368    -5.6621     0.0449 H       
@<TRIPOS>BOND
   1    1    2 1
   2    1   19 1
   3    1   20 1
   4    1   21 1
   5    2    3 1
   6    2   22 1
   7    2   23 1
   8    3    4 1
   9    4    5 2
  10    4    6 1
  11    6    7 2
  12    6   10 1
  13    7    8 1
  14    7   24 1
  15    8    9 ar
  16    8   14 ar
  17    9   10 1
  18    9   11 ar
  19   10   25 1
  20   11   12 ar
  21   11   16 1
  22   12   13 ar
  23   12   26 1
  24   13   14 ar
  25   13   27 1
  26   14   15 1
  27   16   17 2
  28   16   18 2

#	End of record

