#	Name: ASD01917559
#	Creating user name:	WinNT
#	Creation time:	15. 06. 2019 20:09

#	Modifying user name:	WinNT
#	Modification time:	15. 06. 2019 20:09

#	Program:	/corina/corina34_cracker 3.40 0067  02.08.2006

@<TRIPOS>MOLECULE
ASD01917559
  45   48    0    0    0
SMALL
NO_CHARGES


@<TRIPOS>ATOM
   1 C1             2.2533     1.8398    -2.7402 C.ar    
   2 C2             2.6417     0.5910    -3.1851 C.ar    
   3 C3             3.9848     0.2845    -3.3028 C.ar    
   4 C4             4.9431     1.2266    -2.9761 C.ar    
   5 C5             4.5609     2.4768    -2.5313 C.ar    
   6 C6             3.2129     2.7874    -2.4116 C.ar    
   7 N7             2.8216     4.0563    -1.9601 N.pl3   
   8 N8             1.6122     4.4759    -1.8028 N.2     
   9 N9             1.6306     5.6878    -1.3736 N.2     
  10 C10            2.8869     6.1013    -1.2360 C.2     
  11 N11            3.6723     5.1100    -1.5872 N.2     
  12 C12            1.6006    -0.4384    -3.5420 C.3     
  13 C13            3.3290     7.4603    -0.7577 C.3     
  14 C14            3.1118     8.4880    -1.8701 C.3     
  15 O15            2.5648     7.8328     0.3908 O.3     
  16 C16            3.1693     8.6365     1.2970 C.2     
  17 N17            2.6230     9.1017     2.4467 N.pl3   
  18 C18            3.5965     9.8709     3.0404 C.2     
  19 N19            4.6476     9.8367     2.2517 N.2     
  20 N20            4.3958     9.1040     1.2259 N.2     
  21 C21            3.4825    10.5971     4.3197 C.2     
  22 C22            4.4747    11.4834     4.7137 C.2     
  23 C23            4.3359    12.1590     5.9365 C.2     
  24 N24            3.2486    11.9360     6.7005 N.am    
  25 N25            2.2585    11.0389     6.2877 N.2     
  26 C26            2.3570    10.4016     5.1552 C.2     
  27 O27            5.1956    12.9437     6.3058 O.2     
  28 C28            1.2733     8.8399     2.9526 C.3     
  29 H29            1.2040     2.0801    -2.6523 H       
  30 H30            4.2861    -0.6927    -3.6502 H       
  31 H31            5.9915     0.9842    -3.0687 H       
  32 H32            5.3097     3.2120    -2.2760 H       
  33 H33            1.3426    -0.3436    -4.5968 H       
  34 H34            1.9964    -1.4362    -3.3530 H       
  35 H35            0.7096    -0.2799    -2.9344 H       
  36 H36            4.3864     7.4268    -0.4954 H       
  37 H37            3.4316     9.4709    -1.5242 H       
  38 H38            3.6947     8.2038    -2.7462 H       
  39 H39            2.0544     8.5214    -2.1325 H       
  40 H40            5.3403    11.6505     4.0898 H       
  41 H41            3.1518    12.4024     7.5455 H       
  42 H42            1.5776     9.7172     4.8546 H       
  43 H43            1.3171     8.0709     3.7238 H       
  44 H44            0.8598     9.7555     3.3755 H       
  45 H45            0.6386     8.4986     2.1348 H       
@<TRIPOS>BOND
   1    1    2 ar
   2    1    6 ar
   3    1   29 1
   4    2    3 ar
   5    2   12 1
   6    3    4 ar
   7    3   30 1
   8    4    5 ar
   9    4   31 1
  10    5    6 ar
  11    5   32 1
  12    6    7 1
  13    7    8 1
  14    7   11 1
  15    8    9 2
  16    9   10 1
  17   10   11 2
  18   10   13 1
  19   12   33 1
  20   12   34 1
  21   12   35 1
  22   13   14 1
  23   13   15 1
  24   13   36 1
  25   14   37 1
  26   14   38 1
  27   14   39 1
  28   15   16 1
  29   16   17 1
  30   16   20 2
  31   17   18 1
  32   17   28 1
  33   18   19 2
  34   18   21 1
  35   19   20 1
  36   21   22 2
  37   21   26 1
  38   22   23 1
  39   22   40 1
  40   23   24 am
  41   23   27 2
  42   24   25 1
  43   24   41 1
  44   25   26 2
  45   26   42 1
  46   28   43 1
  47   28   44 1
  48   28   45 1

#	End of record

