#	Name: ASD03082074
#	Creating user name:	WinNT
#	Creation time:	15. 06. 2019 20:27

#	Modifying user name:	WinNT
#	Modification time:	15. 06. 2019 20:27

#	Program:	/corina/corina34_cracker 3.40 0067  02.08.2006

@<TRIPOS>MOLECULE
ASD03082074
  52   54    0    0    0
SMALL
NO_CHARGES


@<TRIPOS>ATOM
   1 C1            -0.0176     1.4478     0.0100 C.3     
   2 O2             0.0021    -0.0041     0.0020 O.3     
   3 C3            -1.1898    -0.6320     0.0100 C.2     
   4 C4            -1.2471    -2.1073     0.0026 C.ar    
   5 O5            -2.2175     0.0157     0.0233 O.2     
   6 C6            -0.0679    -2.8551    -0.0126 C.ar    
   7 C7            -0.1286    -4.2330    -0.0190 C.ar    
   8 C8            -1.3543    -4.8756    -0.0107 C.ar    
   9 C9            -2.5271    -4.1425     0.0040 C.ar    
  10 C10           -2.4819    -2.7623     0.0168 C.ar    
  11 C11            1.4178     1.9774    -0.0009 C.3     
  12 C12            2.0960     1.5891    -1.3176 C.3     
  13 C13            3.5108     2.1738    -1.3457 C.3     
  14 C14            3.4332     3.6929    -1.1776 C.3     
  15 N15            2.7773     4.0127     0.0968 N.3     
  16 C16            1.4008     3.5022     0.1283 C.3     
  17 C17            2.8087     5.4582     0.3568 C.3     
  18 C18            1.9534     6.1825    -0.6846 C.3     
  19 C19            1.9861     7.6880    -0.4137 C.3     
  20 C20            1.1436     8.4014    -1.4396 C.ar    
  21 C21           -0.1997     8.6214    -1.1987 C.ar    
  22 C22           -0.9725     9.2758    -2.1396 C.ar    
  23 C23           -0.4019     9.7105    -3.3213 C.ar    
  24 C24            0.9416     9.4913    -3.5618 C.ar    
  25 C25            1.7154     8.8408    -2.6189 C.ar    
  26 Cl26          -3.9546    -1.8433     0.0358 Cl      
  27 H27           -0.5448     1.8089    -0.8731 H       
  28 H28           -0.5278     1.7993     0.9068 H       
  29 H29            0.8896    -2.3556    -0.0198 H       
  30 H30            0.7829    -4.8121    -0.0308 H       
  31 H31           -1.3952    -5.9548    -0.0161 H       
  32 H32           -3.4801    -4.6506     0.0100 H       
  33 H33            1.9708     1.5470     0.8341 H       
  34 H34            2.1491     0.5030    -1.3936 H       
  35 H35            1.5211     1.9860    -2.1543 H       
  36 H36            4.0972     1.7471    -0.5319 H       
  37 H37            3.9837     1.9368    -2.2988 H       
  38 H38            4.4399     4.1108    -1.1828 H       
  39 H39            2.8584     4.1203    -1.9992 H       
  40 H40            0.8355     3.9305    -0.6994 H       
  41 H41            0.9313     3.7816     1.0715 H       
  42 H42            2.4137     5.6568     1.3531 H       
  43 H43            3.8365     5.8161     0.2955 H       
  44 H44            2.3484     5.9839    -1.6809 H       
  45 H45            0.9257     5.8246    -0.6233 H       
  46 H46            1.5911     7.8865     0.5826 H       
  47 H47            3.0139     8.0459    -0.4751 H       
  48 H48           -0.6454     8.2818    -0.2755 H       
  49 H49           -2.0221     9.4471    -1.9518 H       
  50 H50           -1.0058    10.2211    -4.0568 H       
  51 H51            1.3873     9.8306    -4.4852 H       
  52 H52            2.7650     8.6695    -2.8068 H       
@<TRIPOS>BOND
   1    1    2 1
   2    1   11 1
   3    1   27 1
   4    1   28 1
   5    2    3 1
   6    3    4 1
   7    3    5 2
   8    4    6 ar
   9    4   10 ar
  10    6    7 ar
  11    6   29 1
  12    7    8 ar
  13    7   30 1
  14    8    9 ar
  15    8   31 1
  16    9   10 ar
  17    9   32 1
  18   10   26 1
  19   11   12 1
  20   11   16 1
  21   11   33 1
  22   12   13 1
  23   12   34 1
  24   12   35 1
  25   13   14 1
  26   13   36 1
  27   13   37 1
  28   14   15 1
  29   14   38 1
  30   14   39 1
  31   15   16 1
  32   15   17 1
  33   16   40 1
  34   16   41 1
  35   17   18 1
  36   17   42 1
  37   17   43 1
  38   18   19 1
  39   18   44 1
  40   18   45 1
  41   19   20 1
  42   19   46 1
  43   19   47 1
  44   20   21 ar
  45   20   25 ar
  46   21   22 ar
  47   21   48 1
  48   22   23 ar
  49   22   49 1
  50   23   24 ar
  51   23   50 1
  52   24   25 ar
  53   24   51 1
  54   25   52 1

#	End of record

