#	Name: ASD01140484
#	Creating user name:	WinNT
#	Creation time:	15. 06. 2019 19:00

#	Modifying user name:	WinNT
#	Modification time:	15. 06. 2019 19:00

#	Program:	/corina/corina34_cracker 3.40 0067  02.08.2006

@<TRIPOS>MOLECULE
ASD01140484
  36   39    0    0    0
SMALL
NO_CHARGES


@<TRIPOS>ATOM
   1 N1            -0.0169     1.3920     0.0097 N.2     
   2 N2             0.0021    -0.0041     0.0020 N.pl3   
   3 C3             2.3994     0.0536    -0.0202 C.2     
   4 C4             2.3499     1.4123    -0.0133 C.2     
   5 C5             1.1064     2.0737     0.0026 C.2     
   6 C6            -0.9690    -0.9622     0.0057 C.2     
   7 N7            -0.3628    -2.1359    -0.0066 N.2     
   8 N8             0.9138    -1.9727    -0.0177 N.2     
   9 C9             1.1967    -0.6769    -0.0130 C.2     
  10 S10            1.0566     3.8349     0.0126 S.3     
  11 C11           -0.7217     4.1927     0.0315 C.3     
  12 C12           -0.9338     5.6847     0.0415 C.ar    
  13 C13           -1.2082     7.7330     1.2519 C.ar    
  14 C14           -1.0139     6.3630     1.2428 C.ar    
  15 C15           -1.0425     6.3754    -1.1513 C.ar    
  16 C16           -1.2361     7.7440    -1.1429 C.ar    
  17 C17           -1.3217     8.4228     0.0582 C.ar    
  18 C18           -2.4269    -0.7304     0.0214 C.ar    
  19 N19           -2.8972     0.5128     0.0336 N.ar    
  20 C20           -4.1910     0.7609     0.0474 C.ar    
  21 C21           -5.1121    -0.2703     0.0502 C.ar    
  22 C22           -4.6648    -1.5846     0.0377 C.ar    
  23 C23           -3.3017    -1.8186     0.0176 C.ar    
  24 Cl24          -1.3089     8.5858     2.7606 Cl      
  25 H25            3.3501    -0.4588    -0.0328 H       
  26 H26            3.2654     1.9853    -0.0186 H       
  27 H27           -1.1877     3.7655    -0.8564 H       
  28 H28           -1.1707     3.7559     0.9234 H       
  29 H29           -0.9252     5.8239     2.1744 H       
  30 H30           -0.9757     5.8455    -2.0900 H       
  31 H31           -1.3203     8.2831    -2.0749 H       
  32 H32           -1.4734     9.4921     0.0647 H       
  33 H33           -4.5369     1.7839     0.0571 H       
  34 H34           -6.1704    -0.0552     0.0622 H       
  35 H35           -5.3658    -2.4062     0.0396 H       
  36 H36           -2.9195    -2.8286     0.0035 H       
@<TRIPOS>BOND
   1    1    2 1
   2    1    5 2
   3    2    6 1
   4    2    9 1
   5    3    4 2
   6    3    9 1
   7    3   25 1
   8    4    5 1
   9    4   26 1
  10    5   10 1
  11    6    7 2
  12    6   18 1
  13    7    8 1
  14    8    9 2
  15   10   11 1
  16   11   12 1
  17   11   27 1
  18   11   28 1
  19   12   15 ar
  20   12   14 ar
  21   13   14 ar
  22   13   17 ar
  23   13   24 1
  24   14   29 1
  25   15   16 ar
  26   15   30 1
  27   16   17 ar
  28   16   31 1
  29   17   32 1
  30   18   19 ar
  31   18   23 ar
  32   19   20 ar
  33   20   21 ar
  34   20   33 1
  35   21   22 ar
  36   21   34 1
  37   22   23 ar
  38   22   35 1
  39   23   36 1

#	End of record

