#	Name: ASD03540113
#	Creating user name:	WinNT
#	Creation time:	15. 06. 2019 20:42

#	Modifying user name:	WinNT
#	Modification time:	15. 06. 2019 20:42

#	Program:	/corina/corina34_cracker 3.40 0067  02.08.2006

@<TRIPOS>MOLECULE
ASD03540113
  53   56    0    0    0
SMALL
NO_CHARGES


@<TRIPOS>ATOM
   1 C1            -0.0180     1.4744     0.0101 C.2     
   2 C2             0.0021    -0.0041     0.0020 C.ar    
   3 C3             1.2171    -0.6858    -0.0132 C.ar    
   4 C4             1.2272    -2.0787    -0.0203 C.ar    
   5 C5             2.5119    -2.8104    -0.0360 C.2     
   6 C6             0.0206    -2.7829    -0.0121 C.ar    
   7 C7            -1.1799    -2.1012     0.0030 C.ar    
   8 C8            -1.1968    -0.7203     0.0155 C.ar    
   9 O9             1.0263     2.0964     0.0035 O.2     
  10 N10           -1.1942     2.1323     0.0193 N.am    
  11 O11            3.5609    -2.1964    -0.0428 O.2     
  12 N12            2.5199    -4.1581    -0.0429 N.am    
  13 C13            3.7929    -4.8830    -0.0584 C.3     
  14 C14            3.5262    -6.3662    -0.0634 C.ar    
  15 C15            3.3929    -7.0395    -1.2637 C.ar    
  16 C16            3.1485    -8.3991    -1.2709 C.ar    
  17 C17            3.0368    -9.0890    -0.0725 C.ar    
  18 C18            3.1710    -8.4112     1.1305 C.ar    
  19 C19            3.4210    -7.0525     1.1323 C.ar    
  20 O20            2.7959   -10.4265    -0.0769 O.3     
  21 C21            2.6931   -11.0714     1.1941 C.3     
  22 C22           -1.2141     3.5972     0.0274 C.3     
  23 O23           -6.5319     5.3959     0.3232 O.3     
  24 C24           -6.5045     5.8166     1.7000 C.3     
  25 O25           -5.4520     5.0230     2.2794 O.3     
  26 C26           -4.6011     4.7390     1.2505 C.ar    
  27 C27           -5.2652     4.9683     0.0476 C.ar    
  28 C28           -3.2894     4.2947     1.2394 C.ar    
  29 C29           -2.6415     4.0801     0.0368 C.ar    
  30 C30           -3.3002     4.3081    -1.1567 C.ar    
  31 C31           -4.6101     4.7513    -1.1533 C.ar    
  32 H32            2.1471    -0.1367    -0.0199 H       
  33 H33            0.0269    -3.8628    -0.0180 H       
  34 H34           -2.1098    -2.6503     0.0090 H       
  35 H35           -2.1393    -0.1932     0.0318 H       
  36 H36           -2.0276     1.6360     0.0206 H       
  37 H37            1.6827    -4.6481    -0.0375 H       
  38 H38            4.3545    -4.6118    -0.9524 H       
  39 H39            4.3712    -4.6208     0.8275 H       
  40 H40            3.4796    -6.5019    -2.1964 H       
  41 H41            3.0441    -8.9245    -2.2087 H       
  42 H42            3.0844    -8.9460     2.0648 H       
  43 H43            3.5302    -6.5252     2.0685 H       
  44 H44            3.6262   -10.9437     1.7429 H       
  45 H45            1.8745   -10.6283     1.7612 H       
  46 H46            2.5002   -12.1342     1.0477 H       
  47 H47           -0.7010     3.9626     0.9169 H       
  48 H48           -0.7094     3.9723    -0.8630 H       
  49 H49           -6.2675     6.8781     1.7714 H       
  50 H50           -7.4569     5.6024     2.1849 H       
  51 H51           -2.7720     4.1164     2.1705 H       
  52 H52           -2.7910     4.1393    -2.0940 H       
  53 H53           -5.1226     4.9279    -2.0874 H       
@<TRIPOS>BOND
   1    1    2 1
   2    1    9 2
   3    1   10 am
   4    2    3 ar
   5    2    8 ar
   6    3    4 ar
   7    3   32 1
   8    4    5 1
   9    4    6 ar
  10    5   11 2
  11    5   12 am
  12    6    7 ar
  13    6   33 1
  14    7    8 ar
  15    7   34 1
  16    8   35 1
  17   10   22 1
  18   10   36 1
  19   12   13 1
  20   12   37 1
  21   13   14 1
  22   13   38 1
  23   13   39 1
  24   14   15 ar
  25   14   19 ar
  26   15   16 ar
  27   15   40 1
  28   16   17 ar
  29   16   41 1
  30   17   18 ar
  31   17   20 1
  32   18   19 ar
  33   18   42 1
  34   19   43 1
  35   20   21 1
  36   21   44 1
  37   21   45 1
  38   21   46 1
  39   22   29 1
  40   22   47 1
  41   22   48 1
  42   23   24 1
  43   23   27 1
  44   24   25 1
  45   24   49 1
  46   24   50 1
  47   25   26 1
  48   26   27 ar
  49   26   28 ar
  50   27   31 ar
  51   28   29 ar
  52   28   51 1
  53   29   30 ar
  54   30   31 ar
  55   30   52 1
  56   31   53 1

#	End of record

