#	Name: ASD01000053
#	Creating user name:	WinNT
#	Creation time:	15. 06. 2019 18:54

#	Modifying user name:	WinNT
#	Modification time:	15. 06. 2019 18:54

#	Program:	/corina/corina34_cracker 3.40 0067  02.08.2006

@<TRIPOS>MOLECULE
ASD01000053
  60   63    0    0    0
SMALL
NO_CHARGES


@<TRIPOS>ATOM
   1 C1             0.7011    -3.1568    -3.3316 C.ar    
   2 C2             1.8469    -3.9203    -3.1975 C.ar    
   3 C3             2.8802    -3.4835    -2.3939 C.ar    
   4 C4             2.7679    -2.2699    -1.7169 C.ar    
   5 C5             1.6109    -1.5046    -1.8563 C.ar    
   6 C6             0.5840    -1.9519    -2.6623 C.ar    
   7 C7             3.8740    -1.7955    -0.8519 C.ar    
   8 C8             4.6206    -0.6568    -1.1930 C.ar    
   9 N9             5.6039    -0.2683    -0.3857 N.ar    
  10 C10            5.8794    -0.9345     0.7172 C.ar    
  11 N11            5.2049    -2.0081     1.0763 N.ar    
  12 C12            4.2017    -2.4673     0.3341 C.ar    
  13 N13            3.4968    -3.5999     0.7222 N.am    
  14 C14            3.8280    -4.2430     1.8594 C.2     
  15 C15            3.0635    -5.4715     2.2803 C.3     
  16 O16            4.7413    -3.8330     2.5439 O.2     
  17 N17            4.3389     0.0492    -2.3497 N.3     
  18 C18            5.4602    -0.0209    -3.2953 C.3     
  19 C19            5.0595     0.6441    -4.6141 C.3     
  20 C20            4.6811     2.1041    -4.3495 C.3     
  21 C21            3.5439     2.1508    -3.3253 C.3     
  22 C22            3.9886     1.4421    -2.0438 C.3     
  23 N23            6.1855     0.5925    -5.5498 N.am    
  24 C24            5.9604     0.6355    -6.8780 C.2     
  25 O25            4.8257     0.7169    -7.2985 O.2     
  26 C26            7.1187     0.5825    -7.8406 C.3     
  27 O27            6.6272     0.6427    -9.1811 O.3     
  28 C28            7.5494     0.6054   -10.1786 C.ar    
  29 C29            7.1420     0.6600   -11.5036 C.ar    
  30 C30            8.0821     0.6224   -12.5164 C.ar    
  31 C31            9.4284     0.5304   -12.2087 C.ar    
  32 C32            9.8356     0.4756   -10.8889 C.ar    
  33 C33            8.8998     0.5186    -9.8733 C.ar    
  34 Cl34           7.5739     0.6900   -14.1749 Cl      
  35 H35           -0.1033    -3.5007    -3.9649 H       
  36 H36            1.9327    -4.8602    -3.7225 H       
  37 H37            3.7739    -4.0807    -2.2894 H       
  38 H38            1.5183    -0.5639    -1.3339 H       
  39 H39           -0.3126    -1.3597    -2.7714 H       
  40 H40            6.6853    -0.5893     1.3479 H       
  41 H41            2.7664    -3.9278     0.1747 H       
  42 H42            3.5373    -6.3571     1.8568 H       
  43 H43            3.0633    -5.5445     3.3679 H       
  44 H44            2.0369    -5.4016     1.9207 H       
  45 H45            6.3227     0.4965    -2.8750 H       
  46 H46            5.7165    -1.0645    -3.4780 H       
  47 H47            4.2057     0.1187    -5.0419 H       
  48 H48            5.5461     2.6394    -3.9581 H       
  49 H49            4.3535     2.5696    -5.2791 H       
  50 H50            3.2988     3.1889    -3.1007 H       
  51 H51            2.6662     1.6491    -3.7328 H       
  52 H52            3.1760     1.4612    -1.3176 H       
  53 H53            4.8579     1.9527    -1.6294 H       
  54 H54            7.0930     0.5274    -5.2136 H       
  55 H55            7.7816     1.4283    -7.6583 H       
  56 H56            7.6685    -0.3477    -7.6966 H       
  57 H57            6.0914     0.7314   -11.7437 H       
  58 H58           10.1618     0.5012   -13.0009 H       
  59 H59           10.8867     0.4035   -10.6512 H       
  60 H60            9.2192     0.4805    -8.8423 H       
@<TRIPOS>BOND
   1    1    2 ar
   2    1    6 ar
   3    1   35 1
   4    2    3 ar
   5    2   36 1
   6    3    4 ar
   7    3   37 1
   8    4    5 ar
   9    4    7 1
  10    5    6 ar
  11    5   38 1
  12    6   39 1
  13    7    8 ar
  14    7   12 ar
  15    8    9 ar
  16    8   17 1
  17    9   10 ar
  18   10   11 ar
  19   10   40 1
  20   11   12 ar
  21   12   13 1
  22   13   14 am
  23   13   41 1
  24   14   15 1
  25   14   16 2
  26   15   42 1
  27   15   43 1
  28   15   44 1
  29   17   18 1
  30   17   22 1
  31   18   19 1
  32   18   45 1
  33   18   46 1
  34   19   20 1
  35   19   23 1
  36   19   47 1
  37   20   21 1
  38   20   48 1
  39   20   49 1
  40   21   22 1
  41   21   50 1
  42   21   51 1
  43   22   52 1
  44   22   53 1
  45   23   24 am
  46   23   54 1
  47   24   25 2
  48   24   26 1
  49   26   27 1
  50   26   55 1
  51   26   56 1
  52   27   28 1
  53   28   29 ar
  54   28   33 ar
  55   29   30 ar
  56   29   57 1
  57   30   31 ar
  58   30   34 1
  59   31   32 ar
  60   31   58 1
  61   32   33 ar
  62   32   59 1
  63   33   60 1

#	End of record

