#	Name: ASD01813559
#	Creating user name:	WinNT
#	Creation time:	15. 06. 2019 19:30

#	Modifying user name:	WinNT
#	Modification time:	15. 06. 2019 19:30

#	Program:	/corina/corina34_cracker 3.40 0067  02.08.2006

@<TRIPOS>MOLECULE
ASD01813559
  47   50    0    0    0
SMALL
NO_CHARGES


@<TRIPOS>ATOM
   1 C1            -0.0168     1.3825    -0.0466 C.ar    
   2 C2             0.0020    -0.0038    -0.0536 C.ar    
   3 C3             1.1975    -0.6932    -0.0497 C.ar    
   4 C4             2.4040     0.0044    -0.0390 C.ar    
   5 C5             2.3834     1.4096    -0.0324 C.ar    
   6 C6             1.1657     2.0946    -0.0360 C.ar    
   7 N7             3.6050    -0.6734    -0.0339 N.pl3   
   8 C8             4.7898    -0.0496    -0.0227 C.2     
   9 C9             4.8962     1.3266    -0.0150 C.2     
  10 C10            3.6660     2.1351    -0.0211 C.2     
  11 O11            3.7066     3.3531    -0.0151 O.2     
  12 C12            6.2155     1.9737    -0.0017 C.2     
  13 O13            6.3065     3.3187     0.0058 O.3     
  14 O14            7.2249     1.2962     0.0025 O.2     
  15 C15            3.5837    -2.1382    -0.0406 C.3     
  16 C16            3.4403    -2.6321    -1.4571 C.ar    
  17 N17            2.2385    -2.7342    -1.9905 N.ar    
  18 C18            2.0594    -3.1604    -3.2243 C.ar    
  19 C19            3.1477    -3.5213    -4.0147 C.ar    
  20 C20            4.4343    -3.4243    -3.4785 C.ar    
  21 C21            4.5714    -2.9658    -2.1796 C.ar    
  22 C22            2.9441    -4.0018    -5.4048 C.2     
  23 F23            1.1984    -2.0441    -0.0557 F       
  24 F24            1.1457     3.4455    -0.0301 F       
  25 C25            1.7459    -4.1417    -6.0420 C.2     
  26 N26            1.9959    -4.6026    -7.2842 N.pl3   
  27 N27            3.3808    -4.7534    -7.4245 N.2     
  28 C28            3.9532    -4.3903    -6.3073 C.2     
  29 C29            0.9918    -4.8951    -8.3101 C.3     
  30 C30            1.3179    -4.1278    -9.5654 C.2     
  31 C31            1.4522    -4.7613   -10.7041 C.2     
  32 H32           -0.9606     1.9075    -0.0540 H       
  33 H33           -0.9294    -0.5504    -0.0619 H       
  34 H34            5.6921    -0.6430    -0.0193 H       
  35 H35            7.1957     3.6986     0.0144 H       
  36 H36            4.5134    -2.5171     0.3839 H       
  37 H37            2.7418    -2.4920     0.5545 H       
  38 H38            1.0594    -3.2309    -3.6262 H       
  39 H39            5.3001    -3.6960    -4.0641 H       
  40 H40            5.5505    -2.8778    -1.7323 H       
  41 H41            0.7732    -3.9232    -5.6266 H       
  42 H42            5.0146    -4.3948    -6.1080 H       
  43 H43            0.9939    -5.9634    -8.5264 H       
  44 H44            0.0067    -4.5995    -7.9491 H       
  45 H45            1.4408    -3.0555    -9.5263 H       
  46 H46            1.6859    -4.2114   -11.6038 H       
  47 H47            1.3292    -5.8336   -10.7433 H       
@<TRIPOS>BOND
   1    1    2 ar
   2    1    6 ar
   3    1   32 1
   4    2    3 ar
   5    2   33 1
   6    3    4 ar
   7    3   23 1
   8    4    5 ar
   9    4    7 1
  10    5    6 ar
  11    5   10 1
  12    6   24 1
  13    7    8 1
  14    7   15 1
  15    8    9 2
  16    8   34 1
  17    9   10 1
  18    9   12 1
  19   10   11 2
  20   12   13 1
  21   12   14 2
  22   13   35 1
  23   15   16 1
  24   15   36 1
  25   15   37 1
  26   16   17 ar
  27   16   21 ar
  28   17   18 ar
  29   18   19 ar
  30   18   38 1
  31   19   20 ar
  32   19   22 1
  33   20   21 ar
  34   20   39 1
  35   21   40 1
  36   22   25 2
  37   22   28 1
  38   25   26 1
  39   25   41 1
  40   26   27 1
  41   26   29 1
  42   27   28 2
  43   28   42 1
  44   29   30 1
  45   29   43 1
  46   29   44 1
  47   30   31 2
  48   30   45 1
  49   31   46 1
  50   31   47 1

#	End of record

