#	Name: ASD07300202
#	Creating user name:	WinNT
#	Creation time:	15. 06. 2019 21:09

#	Modifying user name:	WinNT
#	Modification time:	15. 06. 2019 21:09

#	Program:	/corina/corina34_cracker 3.40 0067  02.08.2006

@<TRIPOS>MOLECULE
ASD07300202
  41   45    0    0    0
SMALL
NO_CHARGES


@<TRIPOS>ATOM
   1 C1            -0.0168     1.3865     0.0097 C.ar    
   2 C2             0.0021    -0.0041     0.0020 C.ar    
   3 C3             1.2002    -0.6829    -0.0138 C.ar    
   4 C4             2.3767     0.0578    -0.0217 C.ar    
   5 C5             2.2970     1.4364    -0.0135 C.ar    
   6 N6             1.1337     2.0539     0.0023 N.ar    
   7 N7            -1.3306     1.8466     0.0303 N.am    
   8 C8            -1.4399    -0.4518     0.0142 C.3     
   9 C9            -2.2242     0.8433     0.0374 C.2     
  10 O10           -3.4318     0.9542     0.0548 O.2     
  11 C11           -1.6818     3.2043     0.0424 C.ar    
  12 C12           -3.0198     3.5751     0.0629 C.ar    
  13 C13           -3.3657     4.9115     0.0748 C.ar    
  14 C14           -2.3752     5.8852     0.0667 C.ar    
  15 C15           -1.0368     5.5140     0.0467 C.ar    
  16 C16           -0.6914     4.1775     0.0396 C.ar    
  17 C17           -4.0289     7.7239     0.0986 C.ar    
  18 C18           -4.0572     9.1119     0.1059 C.ar    
  19 C19           -5.2673     9.7780     0.1306 C.ar    
  20 C20           -6.4365     9.0281     0.1476 C.ar    
  21 C21           -6.3458     7.6507     0.1391 C.ar    
  22 N22           -5.1768     7.0458     0.1159 N.ar    
  23 N23           -2.7256     7.2399     0.0783 N.pl3   
  24 C24           -2.6360     9.6241     0.0833 C.3     
  25 C25           -1.7717     8.3521     0.0709 C.3     
  26 H26            1.2252    -1.7626    -0.0195 H       
  27 H27            3.3368    -0.4366    -0.0338 H       
  28 H28            3.2061     2.0195    -0.0196 H       
  29 H29           -1.6692    -1.0273    -0.8826 H       
  30 H30           -1.6510    -1.0369     0.9094 H       
  31 H31           -3.7899     2.8179     0.0693 H       
  32 H32           -4.4064     5.1998     0.0901 H       
  33 H33           -0.2665     6.2710     0.0404 H       
  34 H34            0.3493     3.8888     0.0278 H       
  35 H35           -5.3035    10.8574     0.1369 H       
  36 H36           -7.4005     9.5147     0.1674 H       
  37 H37           -7.2494     7.0592     0.1522 H       
  38 H38           -2.4599    10.2194    -0.8126 H       
  39 H39           -2.4282    10.2106     0.9783 H       
  40 H40           -1.1380     8.3127     0.9569 H       
  41 H41           -1.1624     8.3217    -0.8324 H       
@<TRIPOS>BOND
   1    1    2 ar
   2    1    6 ar
   3    1    7 1
   4    2    3 ar
   5    2    8 1
   6    3    4 ar
   7    3   26 1
   8    4    5 ar
   9    4   27 1
  10    5    6 ar
  11    5   28 1
  12    7    9 am
  13    7   11 1
  14    8    9 1
  15    8   29 1
  16    8   30 1
  17    9   10 2
  18   11   12 ar
  19   11   16 ar
  20   12   13 ar
  21   12   31 1
  22   13   14 ar
  23   13   32 1
  24   14   15 ar
  25   14   23 1
  26   15   16 ar
  27   15   33 1
  28   16   34 1
  29   17   18 ar
  30   17   22 ar
  31   17   23 1
  32   18   19 ar
  33   18   24 1
  34   19   20 ar
  35   19   35 1
  36   20   21 ar
  37   20   36 1
  38   21   22 ar
  39   21   37 1
  40   23   25 1
  41   24   25 1
  42   24   38 1
  43   24   39 1
  44   25   40 1
  45   25   41 1

#	End of record

