#	Name: ASD04910100
#	Creating user name:	WinNT
#	Creation time:	15. 06. 2019 20:55

#	Modifying user name:	WinNT
#	Modification time:	15. 06. 2019 20:55

#	Program:	/corina/corina34_cracker 3.40 0067  02.08.2006

@<TRIPOS>MOLECULE
ASD04910100
  37   37    0    0    0
SMALL
NO_CHARGES


@<TRIPOS>ATOM
   1 C1            -0.5264     1.5788     1.5723 C.2     
   2 C2            -0.4731     0.1341     1.2684 C.ar    
   3 C3             0.7475    -0.4756     0.9720 C.ar    
   4 C4             0.7901    -1.8252     0.6896 C.ar    
   5 C5            -0.3732    -2.5743     0.6993 C.ar    
   6 C6            -1.5862    -1.9764     0.9918 C.ar    
   7 C7            -1.6424    -0.6290     1.2821 C.ar    
   8 O8             0.4932     2.2390     1.5646 O.2     
   9 O9            -1.7064     2.1651     1.8525 O.3     
  10 C10           -0.3189    -4.0481     0.3893 C.3     
  11 C11           -0.3549    -4.8454     1.6946 C.3     
  12 C12           -0.1491    -6.3308     1.3907 C.3     
  13 C13            1.1438    -6.5139     0.5934 C.3     
  14 C14           -0.0538    -7.1114     2.7031 C.3     
  15 C15           -1.3316    -6.8524     0.5718 C.3     
  16 O16           -1.4415    -4.4065    -0.4190 O.3     
  17 C17           -1.6834     3.5878     2.1415 C.3     
  18 H18            1.6561     0.1081     0.9634 H       
  19 H19            1.7336    -2.2981     0.4601 H       
  20 H20           -2.4906    -2.5667     0.9969 H       
  21 H21           -2.5891    -0.1644     1.5149 H       
  22 H22            0.6024    -4.2726    -0.1483 H       
  23 H23            0.4385    -4.4965     2.3555 H       
  24 H24           -1.3206    -4.7043     2.1800 H       
  25 H25            1.9862    -6.1423     1.1768 H       
  26 H26            1.2903    -7.5721     0.3769 H       
  27 H27            1.0759    -5.9578    -0.3416 H       
  28 H28           -0.9749    -6.9810     3.2712 H       
  29 H29            0.0928    -8.1696     2.4866 H       
  30 H30            0.7886    -6.7398     3.2865 H       
  31 H31           -1.3057    -6.4119    -0.4249 H       
  32 H32           -1.2673    -7.9375     0.4912 H       
  33 H33           -2.2642    -6.5793     1.0656 H       
  34 H34           -2.2970    -4.2339    -0.0027 H       
  35 H35           -1.2854     4.1269     1.2818 H       
  36 H36           -2.6963     3.9328     2.3495 H       
  37 H37           -1.0513     3.7719     3.0103 H       
@<TRIPOS>BOND
   1    1    2 1
   2    1    8 2
   3    1    9 1
   4    2    3 ar
   5    2    7 ar
   6    3    4 ar
   7    3   18 1
   8    4    5 ar
   9    4   19 1
  10    5    6 ar
  11    5   10 1
  12    6    7 ar
  13    6   20 1
  14    7   21 1
  15    9   17 1
  16   10   11 1
  17   10   16 1
  18   10   22 1
  19   11   12 1
  20   11   23 1
  21   11   24 1
  22   12   13 1
  23   12   14 1
  24   12   15 1
  25   13   25 1
  26   13   26 1
  27   13   27 1
  28   14   28 1
  29   14   29 1
  30   14   30 1
  31   15   31 1
  32   15   32 1
  33   15   33 1
  34   16   34 1
  35   17   35 1
  36   17   36 1
  37   17   37 1

#	End of record

