#	Name: ASD01918490
#	Creating user name:	WinNT
#	Creation time:	15. 06. 2019 20:11

#	Modifying user name:	WinNT
#	Modification time:	15. 06. 2019 20:11

#	Program:	/corina/corina34_cracker 3.40 0067  02.08.2006

@<TRIPOS>MOLECULE
ASD01918490
  35   37    0    0    0
SMALL
NO_CHARGES


@<TRIPOS>ATOM
   1 F1             0.0021    -0.0041     0.0020 F       
   2 C2            -0.0169     1.3948     0.0097 C.3     
   3 H3             1.0003     1.7864     0.0021 H       
   4 C4            -0.7826     1.9142     1.2482 C.3     
   5 C5            -1.5684     3.1257     0.6868 C.3     
   6 N6            -1.9653     2.6735    -0.6713 N.3     
   7 C7            -2.2925     3.8178    -1.5324 C.3     
   8 C8            -2.9205     3.3220    -2.8095 C.2     
   9 C9            -4.2293     3.1329    -3.0182 C.2     
  10 N10           -4.5615     2.6942    -4.2087 N.2     
  11 C11           -3.5900     2.4899    -5.0574 C.2     
  12 S12           -2.0590     2.8987    -4.2876 S.3     
  13 C13           -3.7448     2.0146    -6.3994 C.1     
  14 C14           -3.8718     1.6249    -7.4995 C.1     
  15 C15           -4.0266     1.1497    -8.8414 C.ar    
  16 C16           -5.3003     0.8683    -9.3445 C.ar    
  17 C17           -5.4414     0.4114   -10.6379 C.ar    
  18 C18           -4.3262     0.2313   -11.4374 C.ar    
  19 C19           -3.0621     0.5072   -10.9464 C.ar    
  20 C20           -2.9054     0.9702    -9.6569 C.ar    
  21 C21           -0.8029     1.9253    -1.2036 C.3     
  22 H22           -1.4653     1.1535     1.6267 H       
  23 H23           -0.0880     2.2319     2.0259 H       
  24 H24           -2.4485     3.3296     1.2968 H       
  25 H25           -0.9280     4.0057     0.6274 H       
  26 H26           -2.9919     4.4740    -1.0145 H       
  27 H27           -1.3816     4.3692    -1.7657 H       
  28 H28           -4.9660     3.3292    -2.2533 H       
  29 H29           -6.1714     1.0081    -8.7216 H       
  30 H30           -6.4246     0.1933   -11.0279 H       
  31 H31           -4.4430    -0.1268   -12.4496 H       
  32 H32           -2.1965     0.3638   -11.5761 H       
  33 H33           -1.9186     1.1894    -9.2765 H       
  34 H34           -0.1712     2.5889    -1.7940 H       
  35 H35           -1.1462     1.0922    -1.8168 H       
@<TRIPOS>BOND
   1    1    2 1
   2    2    3 1
   3    2   21 1
   4    2    4 1
   5    4    5 1
   6    4   22 1
   7    4   23 1
   8    5    6 1
   9    5   24 1
  10    5   25 1
  11    6    7 1
  12    6   21 1
  13    7    8 1
  14    7   26 1
  15    7   27 1
  16    8   12 1
  17    8    9 2
  18    9   10 1
  19    9   28 1
  20   10   11 2
  21   11   12 1
  22   11   13 1
  23   13   14 3
  24   14   15 1
  25   15   20 ar
  26   15   16 ar
  27   16   17 ar
  28   16   29 1
  29   17   18 ar
  30   17   30 1
  31   18   19 ar
  32   18   31 1
  33   19   20 ar
  34   19   32 1
  35   20   33 1
  36   21   34 1
  37   21   35 1

#	End of record

