#	Name: ASD01885711
#	Creating user name:	WinNT
#	Creation time:	15. 06. 2019 19:50

#	Modifying user name:	WinNT
#	Modification time:	15. 06. 2019 19:50

#	Program:	/corina/corina34_cracker 3.40 0067  02.08.2006

@<TRIPOS>MOLECULE
ASD01885711
  62   65    0    0    0
SMALL
NO_CHARGES


@<TRIPOS>ATOM
   1 C1            -0.7725     2.0828    -0.9773 C.ar    
   2 C2            -2.0190     2.6949    -1.2644 C.ar    
   3 C3            -2.0620     4.0927    -1.4996 C.ar    
   4 C4            -0.8683     4.7993    -1.4364 C.ar    
   5 C5             0.3202     4.1199    -1.1470 C.ar    
   6 N6             0.3398     2.8172    -0.9364 N.ar    
   7 C7            -0.7314     0.6951    -0.7439 C.ar    
   8 C8            -1.8806    -0.0319    -0.7918 C.ar    
   9 C9            -3.1037     0.5749    -1.0691 C.ar    
  10 C10           -3.1807     1.9140    -1.3112 C.ar    
  11 C11           -3.3389     4.7768    -1.8035 C.ar    
  12 C12           -4.1817     4.2750    -2.7955 C.ar    
  13 C13           -5.3714     4.9137    -3.0783 C.ar    
  14 C14           -3.7048     5.9220    -1.0941 C.ar    
  15 C15            1.5915     4.8807    -1.0878 C.2     
  16 N16            2.7477     4.2414    -0.8216 N.am    
  17 O17            1.5909     6.0806    -1.2793 O.2     
  18 C18           -1.8313    -1.5150    -0.5293 C.3     
  19 C19           -5.7325     6.0552    -2.3780 C.ar    
  20 C20           -4.8980     6.5575    -1.3813 C.ar    
  21 O21           -6.9053     6.6814    -2.6601 O.3     
  22 O22           -5.2546     7.6766    -0.6958 O.3     
  23 C23           -4.3515     8.1354     0.3121 C.3     
  24 C24           -7.7153     6.1091    -3.6889 C.3     
  25 N25           -1.6250    -2.2280    -1.7923 N.pl3   
  26 C26           -0.4199    -2.5616    -2.3493 C.2     
  27 C27           -0.6880    -3.2043    -3.5019 C.2     
  28 N28           -2.0204    -3.2616    -3.6449 N.2     
  29 C29           -2.5883    -2.6839    -2.6217 C.2     
  30 C30            0.3305    -3.7616    -4.4628 C.3     
  31 C31           -0.3878    -4.4136    -5.6459 C.3     
  32 C32            1.2255    -2.6293    -4.9706 C.3     
  33 O33            1.1312    -4.7384    -3.7945 O.3     
  34 C34           -1.2183    -5.5983    -5.1483 C.3     
  35 F35            1.9728    -2.1128    -3.9067 F       
  36 F36            2.0913    -3.1237    -5.9520 F       
  37 F37            0.4307    -1.6162    -5.5174 F       
  38 H38           -0.8573     5.8652    -1.6096 H       
  39 H39            0.2087     0.2093    -0.5280 H       
  40 H40           -4.0024    -0.0236    -1.0928 H       
  41 H41           -4.1341     2.3721    -1.5291 H       
  42 H42           -3.9026     3.3866    -3.3425 H       
  43 H43           -6.0227     4.5244    -3.8467 H       
  44 H44           -3.0569     6.3103    -0.3222 H       
  45 H45            2.7482     3.2835    -0.6688 H       
  46 H46            3.5794     4.7391    -0.7829 H       
  47 H47           -1.0092    -1.7364     0.1514 H       
  48 H48           -2.7712    -1.8360    -0.0802 H       
  49 H49           -4.2232     7.3586     1.0659 H       
  50 H50           -3.3871     8.3645    -0.1412 H       
  51 H51           -4.7553     9.0330     0.7805 H       
  52 H52           -7.1576     6.0959    -4.6254 H       
  53 H53           -7.9864     5.0900    -3.4132 H       
  54 H54           -8.6196     6.7048    -3.8130 H       
  55 H55            0.5579    -2.3496    -1.9428 H       
  56 H56           -3.6522    -2.5809    -2.4675 H       
  57 H57           -1.0438    -3.6835    -6.1198 H       
  58 H58            0.3483    -4.7643    -6.3693 H       
  59 H59            0.6285    -5.4872    -3.4456 H       
  60 H60           -0.5535    -6.3745    -4.7695 H       
  61 H61           -1.8820    -5.2668    -4.3497 H       
  62 H62           -1.8112    -5.9975    -5.9712 H       
@<TRIPOS>BOND
   1    1    7 ar
   2    1    6 ar
   3    1    2 ar
   4    2    3 ar
   5    2   10 ar
   6    3   11 1
   7    3    4 ar
   8    4    5 ar
   9    4   38 1
  10    5   15 1
  11    5    6 ar
  12    7    8 ar
  13    7   39 1
  14    8    9 ar
  15    8   18 1
  16    9   10 ar
  17    9   40 1
  18   10   41 1
  19   11   12 ar
  20   11   14 ar
  21   12   13 ar
  22   12   42 1
  23   13   19 ar
  24   13   43 1
  25   14   20 ar
  26   14   44 1
  27   15   16 am
  28   15   17 2
  29   16   45 1
  30   16   46 1
  31   18   25 1
  32   18   47 1
  33   18   48 1
  34   19   20 ar
  35   19   21 1
  36   20   22 1
  37   21   24 1
  38   22   23 1
  39   23   49 1
  40   23   50 1
  41   23   51 1
  42   24   52 1
  43   24   53 1
  44   24   54 1
  45   25   26 1
  46   25   29 1
  47   26   27 2
  48   26   55 1
  49   27   28 1
  50   27   30 1
  51   28   29 2
  52   29   56 1
  53   30   31 1
  54   30   32 1
  55   30   33 1
  56   31   34 1
  57   31   57 1
  58   31   58 1
  59   32   35 1
  60   32   36 1
  61   32   37 1
  62   33   59 1
  63   34   60 1
  64   34   61 1
  65   34   62 1

#	End of record

