#	Name: ASD03930079
#	Creating user name:	WinNT
#	Creation time:	15. 06. 2019 20:47

#	Modifying user name:	WinNT
#	Modification time:	15. 06. 2019 20:47

#	Program:	/corina/corina34_cracker 3.40 0067  02.08.2006

@<TRIPOS>MOLECULE
ASD03930079
  35   36    0    0    0
SMALL
NO_CHARGES


@<TRIPOS>ATOM
   1 C1             0.0009     1.3626    -0.0062 C.ar    
   2 C2             0.0304    -0.0130    -0.0297 C.ar    
   3 C3             1.2497    -0.6841    -0.0625 C.ar    
   4 C4             2.4426     0.0337    -0.0711 C.ar    
   5 C5             2.4197     1.4094    -0.0477 C.ar    
   6 C6             1.1969     2.0862    -0.0152 C.ar    
   7 N7             1.2762    -2.0741    -0.0863 N.pl3   
   8 C8             1.1688     3.5609     0.0095 C.2     
   9 O9             0.2843     4.1619    -0.5692 O.2     
  10 N10            2.1236     4.2421     0.6736 N.am    
  11 C11            3.1314     3.5489     1.4890 C.3     
  12 C12            3.3166     4.2929     2.7821 C.2     
  13 C13            2.2041     5.7118     0.6072 C.3     
  14 C14            2.0118     6.2576     2.0246 C.3     
  15 C15            2.8303     5.4712     3.0078 C.2     
  16 C16            0.0219    -2.8309    -0.0768 C.3     
  17 C17            2.5584    -2.7818    -0.1208 C.3     
  18 H18           -0.9454     1.8827     0.0148 H       
  19 H19           -0.8933    -0.5726    -0.0224 H       
  20 H20            3.3869    -0.4898    -0.0959 H       
  21 H21            3.3454     1.9656    -0.0540 H       
  22 H22            2.7951     2.5334     1.6981 H       
  23 H23            4.0775     3.5164     0.9488 H       
  24 H24            3.8869     3.8178     3.5666 H       
  25 H25            3.1805     6.0109     0.2260 H       
  26 H26            1.4195     6.0950    -0.0452 H       
  27 H27            2.3142     7.3045     2.0519 H       
  28 H28            0.9601     6.1818     2.3006 H       
  29 H29            3.0364     5.9250     3.9659 H       
  30 H30           -0.5703    -2.5638    -0.9521 H       
  31 H31            0.2414    -3.8983    -0.0985 H       
  32 H32           -0.5388    -2.5936     0.8274 H       
  33 H33            2.8946    -2.9745     0.8980 H       
  34 H34            2.4372    -3.7278    -0.6485 H       
  35 H35            3.2975    -2.1696    -0.6376 H       
@<TRIPOS>BOND
   1    1    2 ar
   2    1    6 ar
   3    1   18 1
   4    2    3 ar
   5    2   19 1
   6    3    4 ar
   7    3    7 1
   8    4    5 ar
   9    4   20 1
  10    5    6 ar
  11    5   21 1
  12    6    8 1
  13    7   16 1
  14    7   17 1
  15    8    9 2
  16    8   10 am
  17   10   11 1
  18   10   13 1
  19   11   12 1
  20   11   22 1
  21   11   23 1
  22   12   15 2
  23   12   24 1
  24   13   14 1
  25   13   25 1
  26   13   26 1
  27   14   15 1
  28   14   27 1
  29   14   28 1
  30   15   29 1
  31   16   30 1
  32   16   31 1
  33   16   32 1
  34   17   33 1
  35   17   34 1
  36   17   35 1

#	End of record

