#	Name: ASD01813680
#	Creating user name:	WinNT
#	Creation time:	15. 06. 2019 19:30

#	Modifying user name:	WinNT
#	Modification time:	15. 06. 2019 19:30

#	Program:	/corina/corina34_cracker 3.40 0067  02.08.2006

@<TRIPOS>MOLECULE
ASD01813680
  43   46    0    0    0
SMALL
NO_CHARGES


@<TRIPOS>ATOM
   1 C1             0.0982     1.4749     0.3536 C.ar    
   2 C2             0.0799     0.0886     0.3456 C.ar    
   3 C3             1.2500    -0.6316     0.2163 C.ar    
   4 C4             2.4679     0.0344     0.0914 C.ar    
   5 C5             2.4849     1.4396     0.0992 C.ar    
   6 C6             1.2927     2.1561     0.2313 C.ar    
   7 N7             3.6438    -0.6744    -0.0375 N.pl3   
   8 C8             4.8383    -0.0817    -0.1594 C.2     
   9 C9             4.9808     1.2912    -0.1647 C.2     
  10 C10            3.7791     2.1315    -0.0337 C.2     
  11 O11            3.8519     3.3480    -0.0333 O.2     
  12 C12            6.3097     1.9038    -0.2997 C.2     
  13 O13            6.4360     3.2459    -0.3034 O.3     
  14 O14            7.2952     1.2003    -0.4079 O.2     
  15 C15            3.5837    -2.1382    -0.0406 C.3     
  16 C16            3.4403    -2.6321    -1.4571 C.ar    
  17 C17            4.5548    -2.7796    -2.2620 C.ar    
  18 N18            4.4443    -3.2107    -3.5037 N.ar    
  19 C19            3.2773    -3.5186    -4.0314 C.ar    
  20 C20            2.1073    -3.3966    -3.2852 C.ar    
  21 C21            2.1915    -2.9484    -1.9649 C.ar    
  22 F22            1.2149    -1.9821     0.2112 F       
  23 F23            1.3087     3.5070     0.2384 F       
  24 C24            0.7925    -3.7431    -3.8818 C.2     
  25 C25           -0.4590    -3.6649    -3.2405 C.2     
  26 N26           -1.3747    -4.0518    -4.0886 N.2     
  27 N27           -0.7494    -4.3895    -5.2950 N.pl3   
  28 C28            0.5764    -4.1895    -5.1528 C.2     
  29 C29           -1.4204    -4.8713    -6.5049 C.3     
  30 H30           -0.8265     2.0243     0.4515 H       
  31 H31           -0.8605    -0.4335     0.4420 H       
  32 H32            5.7195    -0.6984    -0.2565 H       
  33 H33            7.3302     3.6025    -0.3946 H       
  34 H34            4.4990    -2.5404     0.3935 H       
  35 H35            2.7273    -2.4679     0.5476 H       
  36 H36            5.5308    -2.5377    -1.8680 H       
  37 H37            3.2271    -3.8684    -5.0519 H       
  38 H38            1.3042    -2.8424    -1.3585 H       
  39 H39           -0.6317    -3.3421    -2.2244 H       
  40 H40            1.3313    -4.3582    -5.9065 H       
  41 H41           -1.6933    -4.0223    -7.1316 H       
  42 H42           -0.7479    -5.5285    -7.0561 H       
  43 H43           -2.3194    -5.4216    -6.2271 H       
@<TRIPOS>BOND
   1    1    2 ar
   2    1    6 ar
   3    1   30 1
   4    2    3 ar
   5    2   31 1
   6    3   22 1
   7    3    4 ar
   8    4    5 ar
   9    4    7 1
  10    5    6 ar
  11    5   10 1
  12    6   23 1
  13    7    8 1
  14    7   15 1
  15    8    9 2
  16    8   32 1
  17    9   10 1
  18    9   12 1
  19   10   11 2
  20   12   13 1
  21   12   14 2
  22   13   33 1
  23   15   16 1
  24   15   34 1
  25   15   35 1
  26   16   17 ar
  27   16   21 ar
  28   17   18 ar
  29   17   36 1
  30   18   19 ar
  31   19   20 ar
  32   19   37 1
  33   20   21 ar
  34   20   24 1
  35   21   38 1
  36   24   25 1
  37   24   28 2
  38   25   26 2
  39   25   39 1
  40   26   27 1
  41   27   28 1
  42   27   29 1
  43   28   40 1
  44   29   41 1
  45   29   42 1
  46   29   43 1

#	End of record

