#	Name: ASD01883424
#	Creating user name:	WinNT
#	Creation time:	15. 06. 2019 19:46

#	Modifying user name:	WinNT
#	Modification time:	15. 06. 2019 19:46

#	Program:	/corina/corina34_cracker 3.40 0067  02.08.2006

@<TRIPOS>MOLECULE
ASD01883424
  43   44    0    0    0
SMALL
NO_CHARGES


@<TRIPOS>ATOM
   1 N1            -0.0162     1.3424     0.0094 N.am    
   2 C2             0.0021    -0.0041     0.0020 C.2     
   3 C3            -1.2200    -0.7260     0.0103 C.2     
   4 C4            -2.4186    -0.0172     0.0260 C.2     
   5 C5            -2.3789     1.3778     0.0331 C.2     
   6 C6            -1.1865     2.0253     0.0299 C.2     
   7 O7             1.0648    -0.6011    -0.0121 O.2     
   8 C8            -1.2204    -2.1580     0.0021 C.1     
   9 N9            -1.2207    -3.2939    -0.0043 N.1     
  10 C10           -3.7381    -0.7452     0.0347 C.3     
  11 C11           -4.5225    -0.3677     1.2944 C.3     
  12 C12           -5.8859    -1.0622     1.2677 C.3     
  13 N13           -6.6239    -0.6485     0.0674 N.3     
  14 C14           -5.9127    -1.0426    -1.1554 C.3     
  15 C15           -4.5501    -0.3475    -1.2010 C.3     
  16 C16            1.2492     2.0805     0.0013 C.3     
  17 C17            1.6760     2.3452    -1.4439 C.3     
  18 C18            2.9975     3.1162    -1.4524 C.3     
  19 C19            3.4877     3.2723    -2.8933 C.3     
  20 C20            2.7852     4.4991    -0.8333 C.3     
  21 H21           -3.2991     1.9430     0.0453 H       
  22 H22           -1.1699     3.1052     0.0358 H       
  23 H23           -3.5608    -1.8206     0.0246 H       
  24 H24           -3.9687    -0.6870     2.1772 H       
  25 H25           -4.6648     0.7125     1.3244 H       
  26 H26           -5.7429    -2.1427     1.2516 H       
  27 H27           -6.4526    -0.7842     2.1563 H       
  28 H28           -7.5627    -1.0183     0.0748 H       
  29 H29           -5.7696    -2.1231    -1.1601 H       
  30 H30           -6.4989    -0.7502    -2.0266 H       
  31 H31           -4.6929     0.7331    -1.2103 H       
  32 H32           -4.0160    -0.6523    -2.1010 H       
  33 H33            1.1196     3.0296     0.5215 H       
  34 H34            2.0163     1.4921     0.5047 H       
  35 H35            1.8056     1.3962    -1.9641 H       
  36 H36            0.9088     2.9337    -1.9473 H       
  37 H37            3.7411     2.5690    -0.8730 H       
  38 H38            2.7441     3.8195    -3.4728 H       
  39 H39            4.4292     3.8215    -2.8994 H       
  40 H40            3.6389     2.2870    -3.3344 H       
  41 H41            3.7267     5.0483    -0.8393 H       
  42 H42            2.0416     5.0463    -1.4127 H       
  43 H43            2.4360     4.3879     0.1933 H       
@<TRIPOS>BOND
   1    1    2 am
   2    1   16 1
   3    1    6 1
   4    2    3 1
   5    2    7 2
   6    3    4 2
   7    3    8 1
   8    4    5 1
   9    4   10 1
  10    5    6 2
  11    5   21 1
  12    6   22 1
  13    8    9 3
  14   10   11 1
  15   10   15 1
  16   10   23 1
  17   11   12 1
  18   11   24 1
  19   11   25 1
  20   12   13 1
  21   12   26 1
  22   12   27 1
  23   13   14 1
  24   13   28 1
  25   14   15 1
  26   14   29 1
  27   14   30 1
  28   15   31 1
  29   15   32 1
  30   16   17 1
  31   16   33 1
  32   16   34 1
  33   17   18 1
  34   17   35 1
  35   17   36 1
  36   18   19 1
  37   18   20 1
  38   18   37 1
  39   19   38 1
  40   19   39 1
  41   19   40 1
  42   20   41 1
  43   20   42 1
  44   20   43 1

#	End of record

