#	Name: ASD01820148
#	Creating user name:	WinNT
#	Creation time:	15. 06. 2019 19:36

#	Modifying user name:	WinNT
#	Modification time:	15. 06. 2019 19:36

#	Program:	/corina/corina34_cracker 3.40 0067  02.08.2006

@<TRIPOS>MOLECULE
ASD01820148
 106  120    0    0    0
SMALL
NO_CHARGES


@<TRIPOS>ATOM
   1 N1             0.0260     1.4934    -0.4728 N.3     
   2 C2             0.0385     0.0823    -0.5626 C.3     
   3 C3             1.0681    -0.7528     0.1867 C.3     
   4 C4             2.2981     0.0525     0.6165 C.3     
   5 N5             3.1711     0.1965    -0.5441 N.3     
   6 C6             2.8539     0.9309    -1.7067 C.3     
   7 C7             2.0216     2.2020    -1.6419 C.3     
   8 C8             1.2143     2.3336    -0.3446 C.3     
   9 C9             3.2206    -0.8375     1.4954 C.3     
  10 C10            3.9127    -1.6938     0.5073 C.ar    
  11 C11            3.8509    -1.0010    -0.7225 C.ar    
  12 C12            4.5361    -2.9192     0.6146 C.ar    
  13 C13            5.1067    -3.4574    -0.5327 C.ar    
  14 C14            5.0494    -2.7878    -1.7382 C.ar    
  15 C15            4.4253    -1.5553    -1.8626 C.ar    
  16 C16            2.9927     3.3776    -1.7760 C.3     
  17 C17            2.2558     4.7090    -1.8497 C.3     
  18 C18            1.4726     4.8784    -0.5728 C.3     
  19 C19            0.5213     3.7220    -0.3170 C.3     
  20 C20           -0.6219     3.5525    -1.2375 C.ar    
  21 C21           -0.8943     2.1671    -1.2636 C.ar    
  22 C22           -1.3707     4.4476    -1.9749 C.ar    
  23 C23           -2.4201     3.9415    -2.7318 C.ar    
  24 C24           -2.7040     2.5909    -2.7492 C.ar    
  25 C25           -1.9535     1.6775    -2.0235 C.ar    
  26 C26            0.0773     4.0577     1.1304 C.3     
  27 C27            3.8440     3.3630    -0.5227 C.2     
  28 N28            2.2953     4.9806     0.6397 N.4     
  29 C29            3.4603     4.1105     0.6987 C.3     
  30 C30            1.4141     4.5232     1.7659 C.3     
  31 H31            0.8811     5.7902    -0.6503 H       
  32 H32            1.8238     2.2407     0.5448 H       
  33 H33            1.3297     2.2277    -2.4945 H       
  34 H34            3.6175     3.2557    -2.6587 H       
  35 O35            4.0616     1.1696    -2.4650 O.3     
  36 C36            4.8844     2.5685    -0.5857 C.2     
  37 C37            5.1456     1.7297    -1.7672 C.3     
  38 H38            2.2688     0.2279    -2.3394 H       
  39 H39            2.0456     0.9373     1.1909 H       
  40 O40           -1.2881    -0.4165    -0.2642 O.3     
  41 C41            2.4955    -1.5369     2.6287 C.3     
  42 C42            0.3738    -1.3385     1.4174 C.3     
  43 C43            1.2872    -2.3076     2.1573 C.3     
  44 H44            1.3906    -1.5867    -0.4535 H       
  45 C45            0.0639    -0.1730     2.3332 C.2     
  46 C46            0.9452     0.1983     3.4649 C.3     
  47 N47            2.2126    -0.4953     3.6214 N.4     
  48 C48            4.1855     0.0785     2.2882 C.3     
  49 C49            3.2876     0.5329     3.4671 C.3     
  50 H50            3.1909    -2.2450     3.0838 H       
  51 H51           -0.5444    -1.8482     1.1312 H       
  52 C52           -1.0330     0.4768     2.0351 C.2     
  53 C53           -1.8898     0.1050     0.8975 C.3     
  54 H54            0.1869    -0.1449    -1.6353 H       
  55 C55            2.6938     6.3749     0.8617 C.3     
  56 C56            2.2874    -1.0760     4.9740 C.3     
  57 C57            1.4453     7.2557     0.9409 C.3     
  58 C58            1.9926     0.0088     6.0118 C.3     
  59 C59            1.6428     8.7310     1.2951 C.3     
  60 C60            1.2698     8.3306    -0.1337 C.3     
  61 C61            1.9062    -0.4207     7.4777 C.3     
  62 C62            3.1138     0.3791     6.9848 C.3     
  63 H63            4.5793    -3.4368     1.5617 H       
  64 H64            5.6070    -4.4134    -0.4764 H       
  65 H65            5.5068    -3.2337    -2.6084 H       
  66 H66            4.3863    -1.0462    -2.8138 H       
  67 H67            2.9710     5.5240    -1.9603 H       
  68 H68            1.5730     4.7052    -2.7006 H       
  69 H69           -1.1457     5.5041    -1.9583 H       
  70 H70           -3.0274     4.6199    -3.3126 H       
  71 H71           -3.5346     2.2360    -3.3406 H       
  72 H72           -2.1841     0.6233    -2.0505 H       
  73 H73           -0.6507     4.8664     1.1306 H       
  74 H74           -0.3044     3.1730     1.6334 H       
  75 H75            3.3290     3.3887     1.5001 H       
  76 H76            4.3140     4.7359     0.9768 H       
  77 H77            1.2224     5.3617     2.4393 H       
  78 H78            1.8705     3.7076     2.3146 H       
  79 H79            5.5673     2.5190     0.2446 H       
  80 H80            5.7933     0.9127    -1.4506 H       
  81 H81            5.7165     2.3325    -2.4732 H       
  82 H82            1.6006    -3.1048     1.4827 H       
  83 H83            0.7621    -2.7349     3.0107 H       
  84 H84            1.1364     1.2679     3.3958 H       
  85 H85            0.3742     0.0440     4.3847 H       
  86 H86            5.0404    -0.4894     2.6523 H       
  87 H87            4.4992     0.9274     1.6871 H       
  88 H88            2.8655     1.5116     3.2556 H       
  89 H89            3.8853     0.5809     4.3803 H       
  90 H90           -1.3219     1.3212     2.6393 H       
  91 H91           -2.4588     0.9878     0.6096 H       
  92 H92           -2.6076    -0.6340     1.2564 H       
  93 H93            3.2507     6.4493     1.7958 H       
  94 H94            3.3224     6.7090     0.0363 H       
  95 H95            1.5536    -1.8766     5.0668 H       
  96 H96            3.2867    -1.4777     5.1421 H       
  97 H97            0.5463     6.7647     1.3135 H       
  98 H98            1.3284     0.8074     5.6814 H       
  99 H99            0.8736     9.2106     1.9004 H       
 100 H100           2.6622     9.0741     1.4718 H       
 101 H101           2.0438     8.4103    -0.8970 H       
 102 H102           0.2552     8.5468    -0.4684 H       
 103 H103           1.1855     0.0955     8.1118 H       
 104 H104           2.0595    -1.4762     7.7028 H       
 105 H105           4.0615    -0.1502     6.8855 H       
 106 H106           3.1875     1.4215     7.2946 H       
@<TRIPOS>BOND
   1    1    2 1
   2    1    8 1
   3    1   21 1
   4    2    3 1
   5    2   40 1
   6    2   54 1
   7    3    4 1
   8    3   44 1
   9    3   42 1
  10    4    5 1
  11    4    9 1
  12    4   39 1
  13    5    6 1
  14    5   11 1
  15    6    7 1
  16    6   35 1
  17    6   38 1
  18    7    8 1
  19    7   33 1
  20    7   16 1
  21    8   19 1
  22    8   32 1
  23    9   10 1
  24    9   41 1
  25    9   48 1
  26   10   11 ar
  27   10   12 ar
  28   11   15 ar
  29   12   13 ar
  30   12   63 1
  31   13   14 ar
  32   13   64 1
  33   14   15 ar
  34   14   65 1
  35   15   66 1
  36   16   17 1
  37   16   27 1
  38   16   34 1
  39   17   18 1
  40   17   67 1
  41   17   68 1
  42   18   19 1
  43   18   28 1
  44   18   31 1
  45   19   20 1
  46   19   26 1
  47   20   21 ar
  48   20   22 ar
  49   21   25 ar
  50   22   23 ar
  51   22   69 1
  52   23   24 ar
  53   23   70 1
  54   24   25 ar
  55   24   71 1
  56   25   72 1
  57   26   30 1
  58   26   73 1
  59   26   74 1
  60   27   36 2
  61   27   29 1
  62   28   29 1
  63   28   55 1
  64   28   30 1
  65   29   75 1
  66   29   76 1
  67   30   77 1
  68   30   78 1
  69   35   37 1
  70   36   37 1
  71   36   79 1
  72   37   80 1
  73   37   81 1
  74   40   53 1
  75   41   47 1
  76   41   50 1
  77   41   43 1
  78   42   43 1
  79   42   45 1
  80   42   51 1
  81   43   82 1
  82   43   83 1
  83   45   46 1
  84   45   52 2
  85   46   47 1
  86   46   84 1
  87   46   85 1
  88   47   56 1
  89   47   49 1
  90   48   49 1
  91   48   86 1
  92   48   87 1
  93   49   88 1
  94   49   89 1
  95   52   53 1
  96   52   90 1
  97   53   91 1
  98   53   92 1
  99   55   57 1
 100   55   93 1
 101   55   94 1
 102   56   58 1
 103   56   95 1
 104   56   96 1
 105   57   59 1
 106   57   60 1
 107   57   97 1
 108   58   61 1
 109   58   62 1
 110   58   98 1
 111   59   60 1
 112   59   99 1
 113   59  100 1
 114   60  101 1
 115   60  102 1
 116   61   62 1
 117   61  103 1
 118   61  104 1
 119   62  105 1
 120   62  106 1

#	End of record

