#	Name: ASD00191005
#	Creating user name:	WinNT
#	Creation time:	15. 06. 2019 18:33

#	Modifying user name:	WinNT
#	Modification time:	15. 06. 2019 18:33

#	Program:	/corina/corina34_cracker 3.40 0067  02.08.2006

@<TRIPOS>MOLECULE
ASD00191005
  53   57    0    0    0
SMALL
NO_CHARGES


@<TRIPOS>ATOM
   1 C1            -0.8325     0.9975     0.2665 C.3     
   2 C2            -0.6087    -0.5196     0.1393 C.3     
   3 C3             0.9177    -0.7424     0.1518 C.3     
   4 C4             1.4781     0.5069     0.8758 C.3     
   5 C5             0.5658     1.6436     0.3518 C.3     
   6 C6            -1.5669     1.5142    -0.9437 C.2     
   7 O7            -1.8865     0.7513    -1.8306 O.2     
   8 N8            -1.8686     2.8242    -1.0404 N.am    
   9 N9            -3.3910     4.3415    -4.6068 N.ar    
  10 C10           -2.7921     3.1668    -4.5840 C.ar    
  11 C11           -2.2710     2.6316    -3.4020 C.ar    
  12 C12           -2.3784     3.3348    -2.2303 C.ar    
  13 C13           -3.0235     4.5959    -2.2644 C.ar    
  14 C14           -3.1692     5.3700    -1.1060 C.ar    
  15 C15           -3.7952     6.5791    -1.1769 C.ar    
  16 C16           -4.2924     7.0547    -2.3868 C.ar    
  17 C17           -4.1673     6.3269    -3.5314 C.ar    
  18 C18           -3.5276     5.0768    -3.4962 C.ar    
  19 N19           -2.6764     2.4433    -5.7631 N.pl3   
  20 C20           -3.3564     2.8627    -6.9099 C.ar    
  21 C21           -3.6199     4.2117    -7.1096 C.ar    
  22 C22           -4.2911     4.6201    -8.2441 C.ar    
  23 C23           -4.7037     3.6909    -9.1851 C.ar    
  24 C24           -4.4428     2.3466    -8.9892 C.ar    
  25 C25           -3.7655     1.9330    -7.8561 C.ar    
  26 C26           -5.4453     3.8825   -10.4910 C.3     
  27 C27           -5.2241     2.5729   -11.2772 C.3     
  28 C28           -4.9914     1.5446   -10.1500 C.3     
  29 H29           -1.4008     1.2166     1.1705 H       
  30 H30           -1.0684    -1.0367     0.9815 H       
  31 H31           -1.0313    -0.8821    -0.7977 H       
  32 H32            1.1665    -1.6479     0.7053 H       
  33 H33            1.3034    -0.7984    -0.8662 H       
  34 H34            1.3827     0.4022     1.9566 H       
  35 H35            2.5161     0.6836     0.5939 H       
  36 H36            0.8946     1.9729    -0.6338 H       
  37 H37            0.5578     2.4794     1.0514 H       
  38 H38           -1.7304     3.4111    -0.2806 H       
  39 H39           -1.7855     1.6669    -3.4121 H       
  40 H40           -2.7879     5.0107    -0.1616 H       
  41 H41           -3.9069     7.1750    -0.2832 H       
  42 H42           -4.7853     8.0151    -2.4185 H       
  43 H43           -4.5588     6.7094    -4.4624 H       
  44 H44           -2.1237     1.6466    -5.7910 H       
  45 H45           -3.3004     4.9395    -6.3784 H       
  46 H46           -4.4961     5.6691    -8.3989 H       
  47 H47           -3.5615     0.8835    -7.7035 H       
  48 H48           -6.5080     4.0360   -10.3034 H       
  49 H49           -5.0314     4.7280   -11.0404 H       
  50 H50           -6.1093     2.3162   -11.8591 H       
  51 H51           -4.3463     2.6497   -11.9187 H       
  52 H52           -4.2676     0.7937   -10.4665 H       
  53 H53           -5.9322     1.0702    -9.8707 H       
@<TRIPOS>BOND
   1    1    2 1
   2    1    5 1
   3    1    6 1
   4    1   29 1
   5    2    3 1
   6    2   30 1
   7    2   31 1
   8    3    4 1
   9    3   32 1
  10    3   33 1
  11    4    5 1
  12    4   34 1
  13    4   35 1
  14    5   36 1
  15    5   37 1
  16    6    7 2
  17    6    8 am
  18    8   12 1
  19    8   38 1
  20    9   10 ar
  21    9   18 ar
  22   10   11 ar
  23   10   19 1
  24   11   12 ar
  25   11   39 1
  26   12   13 ar
  27   13   14 ar
  28   13   18 ar
  29   14   15 ar
  30   14   40 1
  31   15   16 ar
  32   15   41 1
  33   16   17 ar
  34   16   42 1
  35   17   18 ar
  36   17   43 1
  37   19   20 1
  38   19   44 1
  39   20   21 ar
  40   20   25 ar
  41   21   22 ar
  42   21   45 1
  43   22   23 ar
  44   22   46 1
  45   23   24 ar
  46   23   26 1
  47   24   25 ar
  48   24   28 1
  49   25   47 1
  50   26   27 1
  51   26   48 1
  52   26   49 1
  53   27   28 1
  54   27   50 1
  55   27   51 1
  56   28   52 1
  57   28   53 1

#	End of record

