#	Name: ASD01882852
#	Creating user name:	WinNT
#	Creation time:	15. 06. 2019 19:45

#	Modifying user name:	WinNT
#	Modification time:	15. 06. 2019 19:45

#	Program:	/corina/corina34_cracker 3.40 0067  02.08.2006

@<TRIPOS>MOLECULE
ASD01882852
  50   53    0    0    0
SMALL
NO_CHARGES


@<TRIPOS>ATOM
   1 C1            -0.0159     1.3197     0.0093 C.2     
   2 N2             0.0021    -0.0041     0.0020 N.2     
   3 C3             1.1511    -0.6873    -0.0242 C.2     
   4 C4             2.4181     0.0511    -0.0547 C.2     
   5 C5             2.3600     1.4059    -0.0411 C.2     
   6 N6             1.1414     2.0251     0.0020 N.pl3   
   7 O7            -1.0999     2.1361     0.0161 O.3     
   8 C8             0.8041     3.4624     0.0542 C.3     
   9 C9            -0.6833     3.4342     0.4746 C.3     
  10 O10            1.1458    -1.9090    -0.0223 O.2     
  11 S11            3.9635    -0.7937    -0.1068 S.3     
  12 C12            5.1689     0.5617    -0.1303 C.3     
  13 C13           -1.4710     4.5409    -0.2294 C.3     
  14 O14           -2.8430     4.4735     0.1645 O.3     
  15 C15           -3.6855     5.3936    -0.3744 C.ar    
  16 C16           -5.0309     5.3862    -0.0358 C.ar    
  17 C17           -5.8853     6.3225    -0.5850 C.ar    
  18 C18           -5.4007     7.2665    -1.4715 C.ar    
  19 C19           -4.0604     7.2757    -1.8109 C.ar    
  20 C20           -3.2007     6.3453    -1.2597 C.ar    
  21 C21           -6.3350     8.2867    -2.0691 C.3     
  22 C22           -5.8664     9.6924    -1.6879 C.3     
  23 C23           -6.8150    10.7283    -2.2946 C.3     
  24 C24           -6.8173    10.5871    -3.8181 C.3     
  25 C25           -7.2859     9.1814    -4.1993 C.3     
  26 C26           -6.3373     8.1456    -3.5926 C.3     
  27 H27            3.2678     1.9905    -0.0637 H       
  28 H28            1.4089     3.9760     0.8016 H       
  29 H29            0.9217     3.9244    -0.9260 H       
  30 H30           -0.7834     3.5153     1.5569 H       
  31 H31            6.1777     0.1502    -0.1631 H       
  32 H32            5.0008     1.1822    -1.0105 H       
  33 H33            5.0525     1.1671     0.7686 H       
  34 H34           -1.0606     5.5118     0.0480 H       
  35 H35           -1.3960     4.4098    -1.3089 H       
  36 H36           -5.4099     4.6488     0.6563 H       
  37 H37           -6.9328     6.3169    -0.3220 H       
  38 H38           -3.6844     8.0136    -2.5041 H       
  39 H39           -2.1529     6.3560    -1.5214 H       
  40 H40           -7.3430     8.1238    -1.6876 H       
  41 H41           -5.8648     9.7930    -0.6025 H       
  42 H42           -4.8585     9.8554    -2.0694 H       
  43 H43           -7.8230    10.5653    -1.9131 H       
  44 H44           -6.4812    11.7297    -2.0230 H       
  45 H45           -7.4931    11.3250    -4.2504 H       
  46 H46           -5.8093    10.7500    -4.1996 H       
  47 H47           -8.2939     9.0185    -3.8178 H       
  48 H48           -7.2875     9.0808    -5.2847 H       
  49 H49           -5.3293     8.3085    -3.9741 H       
  50 H50           -6.6711     7.1441    -3.8642 H       
@<TRIPOS>BOND
   1    1    2 2
   2    1    6 1
   3    1    7 1
   4    2    3 1
   5    3    4 1
   6    3   10 2
   7    4    5 2
   8    4   11 1
   9    5    6 1
  10    5   27 1
  11    6    8 1
  12    7    9 1
  13    8    9 1
  14    8   28 1
  15    8   29 1
  16    9   13 1
  17    9   30 1
  18   11   12 1
  19   12   31 1
  20   12   32 1
  21   12   33 1
  22   13   14 1
  23   13   34 1
  24   13   35 1
  25   14   15 1
  26   15   16 ar
  27   15   20 ar
  28   16   17 ar
  29   16   36 1
  30   17   18 ar
  31   17   37 1
  32   18   19 ar
  33   18   21 1
  34   19   20 ar
  35   19   38 1
  36   20   39 1
  37   21   22 1
  38   21   26 1
  39   21   40 1
  40   22   23 1
  41   22   41 1
  42   22   42 1
  43   23   24 1
  44   23   43 1
  45   23   44 1
  46   24   25 1
  47   24   45 1
  48   24   46 1
  49   25   26 1
  50   25   47 1
  51   25   48 1
  52   26   49 1
  53   26   50 1

#	End of record

