#	Name: ASD02039233
#	Creating user name:	WinNT
#	Creation time:	15. 06. 2019 20:17

#	Modifying user name:	WinNT
#	Modification time:	15. 06. 2019 20:17

#	Program:	/corina/corina34_cracker 3.40 0067  02.08.2006

@<TRIPOS>MOLECULE
ASD02039233
  48   51    0    0    0
SMALL
NO_CHARGES


@<TRIPOS>ATOM
   1 N1            -0.0156     1.2982     0.0092 N.2     
   2 C2             0.0021    -0.0041     0.0020 C.2     
   3 S3             1.6909    -0.5166    -0.0169 S.3     
   4 C4             2.1703     1.1819    -0.0123 C.2     
   5 N5             1.0936     1.8980     0.0018 N.2     
   6 N6            -1.1063    -0.8378     0.0085 N.pl3   
   7 C7            -3.4728    -1.3748     0.0287 C.ar    
   8 C8            -3.9277    -1.8895     1.2287 C.ar    
   9 C9            -4.8656    -2.9037     1.2353 C.ar    
  10 C10           -5.3511    -3.4059     0.0366 C.ar    
  11 C11           -4.8930    -2.8878    -1.1660 C.ar    
  12 C12           -3.9550    -1.8736    -1.1673 C.ar    
  13 O13           -6.2734    -4.4040     0.0405 O.3     
  14 C14            3.5836     1.7048    -0.0226 C.3     
  15 O15            4.0427     1.8630     1.3214 O.3     
  16 C16            5.3085     2.3299     1.4904 C.ar    
  17 C17            6.0905     2.6288     0.3845 C.ar    
  18 C18            7.3764     3.1031     0.5551 C.ar    
  19 C19            7.8860     3.2808     1.8339 C.ar    
  20 C20            7.1022     2.9812     2.9407 C.ar    
  21 C21            5.8154     2.5125     2.7691 C.ar    
  22 N22            9.1890     3.7621     2.0109 N.am    
  23 C23            9.8238     3.5948     3.1855 C.2     
  24 C24            9.1569     2.8722     4.3248 C.3     
  25 C25            7.6580     3.1755     4.3275 C.3     
  26 O26           10.9465     4.0312     3.3276 O.2     
  27 C27           -6.7284    -4.8718    -1.2307 C.3     
  28 F28           -5.6428    -5.3661    -1.9616 F       
  29 F29           -7.6676    -5.8916    -1.0434 F       
  30 F30           -7.3204    -3.8156    -1.9317 F       
  31 C31           -2.4543    -0.2642     0.0244 C.3     
  32 H32           -0.9890    -1.8006     0.0026 H       
  33 H33           -3.5492    -1.4985     2.1615 H       
  34 H34           -5.2203    -3.3057     2.1729 H       
  35 H35           -5.2692    -3.2773    -2.1005 H       
  36 H36           -3.5984    -1.4697    -2.1033 H       
  37 H37            4.2284     0.9990    -0.5461 H       
  38 H38            3.6108     2.6683    -0.5316 H       
  39 H39            5.6938     2.4903    -0.6104 H       
  40 H40            7.9853     3.3353    -0.3062 H       
  41 H41            5.2061     2.2798     3.6299 H       
  42 H42            9.6371     4.2188     1.2818 H       
  43 H43            9.3091     1.7989     4.2113 H       
  44 H44            9.5944     3.2008     5.2675 H       
  45 H45            7.4968     4.2064     4.6427 H       
  46 H46            7.1524     2.5013     5.0188 H       
  47 H47           -2.5788     0.3464     0.9187 H       
  48 H48           -2.5960     0.3554    -0.8611 H       
@<TRIPOS>BOND
   1    1    2 2
   2    1    5 1
   3    2    3 1
   4    2    6 1
   5    3    4 1
   6    4    5 2
   7    4   14 1
   8    6   31 1
   9    6   32 1
  10    7    8 ar
  11    7   12 ar
  12    7   31 1
  13    8    9 ar
  14    8   33 1
  15    9   10 ar
  16    9   34 1
  17   10   11 ar
  18   10   13 1
  19   11   12 ar
  20   11   35 1
  21   12   36 1
  22   13   27 1
  23   14   15 1
  24   14   37 1
  25   14   38 1
  26   15   16 1
  27   16   17 ar
  28   16   21 ar
  29   17   18 ar
  30   17   39 1
  31   18   19 ar
  32   18   40 1
  33   19   20 ar
  34   19   22 1
  35   20   21 ar
  36   20   25 1
  37   21   41 1
  38   22   23 am
  39   22   42 1
  40   23   24 1
  41   23   26 2
  42   24   25 1
  43   24   43 1
  44   24   44 1
  45   25   45 1
  46   25   46 1
  47   27   28 1
  48   27   29 1
  49   27   30 1
  50   31   47 1
  51   31   48 1

#	End of record

