#	Name: ASD03092055
#	Creating user name:	WinNT
#	Creation time:	15. 06. 2019 20:31

#	Modifying user name:	WinNT
#	Modification time:	15. 06. 2019 20:31

#	Program:	/corina/corina34_cracker 3.40 0067  02.08.2006

@<TRIPOS>MOLECULE
ASD03092055
  44   47    0    0    0
SMALL
NO_CHARGES


@<TRIPOS>ATOM
   1 N1            -0.1527     0.9724     0.1730 N.am    
   2 C2            -0.3488    -0.3804     0.0703 C.2     
   3 C3            -1.6924    -0.5906    -0.0247 C.2     
   4 C4            -2.3275     0.6609     0.0211 C.2     
   5 N5            -1.4094     1.5902     0.1442 N.2     
   6 N6            -3.7058     0.8795    -0.0479 N.pl3   
   7 C7            -4.2187     2.1718     0.1163 C.ar    
   8 C8            -5.5927     2.3720     0.1840 C.ar    
   9 C9            -6.0965     3.6514     0.3464 C.ar    
  10 C10           -5.2307     4.7303     0.4413 C.ar    
  11 C11           -3.3555     3.2546     0.2175 C.ar    
  12 C12            0.7030    -1.4199     0.0638 C.ar    
  13 C13            1.0366     1.5962     0.2873 C.2     
  14 C14            0.5064    -2.6460     0.7093 C.ar    
  15 C15            1.5144    -3.5872     0.6782 C.ar    
  16 N16            2.6497    -3.3437     0.0518 N.ar    
  17 C17            2.8759    -2.2015    -0.5692 C.ar    
  18 C18            1.9207    -1.2071    -0.5932 C.ar    
  19 C19            4.1938    -1.9830    -1.2666 C.3     
  20 N20            1.0961     2.9425     0.2675 N.am    
  21 O21            2.0552     0.9447     0.4081 O.2     
  22 C22            2.3888     3.6205     0.3917 C.3     
  23 C23            2.5088     5.0264    -0.1997 C.3     
  24 C24           -3.8627     4.5304     0.3733 C.ar    
  25 C25            2.4628     4.8361     1.3177 C.3     
  26 F26           -6.4351     1.3199     0.0910 F       
  27 F27           -7.4314     3.8486     0.4121 F       
  28 F28           -5.7231     5.9784     0.5997 F       
  29 H29           -2.1812    -1.5491    -0.1189 H       
  30 H30           -4.3074     0.1360    -0.2097 H       
  31 H31           -2.2877     3.1002     0.1699 H       
  32 H32           -0.4202    -2.8520     1.2243 H       
  33 H33            1.3724    -4.5363     1.1737 H       
  34 H34            2.1127    -0.2747    -1.1033 H       
  35 H35            4.1189    -2.3228    -2.2996 H       
  36 H36            4.4420    -0.9218    -1.2503 H       
  37 H37            4.9737    -2.5465    -0.7545 H       
  38 H38            0.2829     3.4625     0.1710 H       
  39 H39            3.2654     2.9750     0.3369 H       
  40 H40            3.4644     5.3060    -0.6432 H       
  41 H41            1.6259     5.4470    -0.6812 H       
  42 H42           -3.1905     5.3726     0.4467 H       
  43 H43            1.5497     5.1315     1.8345 H       
  44 H44            3.3882     4.9906     1.8725 H       
@<TRIPOS>BOND
   1    1    2 1
   2    1   13 am
   3    1    5 1
   4    2    3 2
   5    2   12 1
   6    3    4 1
   7    3   29 1
   8    4    5 2
   9    4    6 1
  10    6    7 1
  11    6   30 1
  12    7    8 ar
  13    7   11 ar
  14    8    9 ar
  15    8   26 1
  16    9   10 ar
  17    9   27 1
  18   10   24 ar
  19   10   28 1
  20   11   24 ar
  21   11   31 1
  22   12   14 ar
  23   12   18 ar
  24   13   20 am
  25   13   21 2
  26   14   15 ar
  27   14   32 1
  28   15   16 ar
  29   15   33 1
  30   16   17 ar
  31   17   18 ar
  32   17   19 1
  33   18   34 1
  34   19   35 1
  35   19   36 1
  36   19   37 1
  37   20   22 1
  38   20   38 1
  39   22   23 1
  40   22   25 1
  41   22   39 1
  42   23   25 1
  43   23   40 1
  44   23   41 1
  45   24   42 1
  46   25   43 1
  47   25   44 1

#	End of record

