#	Name: ASD01810105
#	Creating user name:	WinNT
#	Creation time:	15. 06. 2019 19:23

#	Modifying user name:	WinNT
#	Modification time:	15. 06. 2019 19:23

#	Program:	/corina/corina34_cracker 3.40 0067  02.08.2006

@<TRIPOS>MOLECULE
ASD01810105
  64   68    0    0    0
SMALL
NO_CHARGES


@<TRIPOS>ATOM
   1 C1             0.2311     1.8439    -0.9300 C.ar    
   2 C2             0.3254     0.4620    -0.9792 C.ar    
   3 C3            -0.8104    -0.3173    -0.8736 C.ar    
   4 C4            -2.0490     0.2849    -0.7173 C.ar    
   5 C5            -2.1451     1.6773    -0.6672 C.ar    
   6 C6            -1.0005     2.4527    -0.7690 C.ar    
   7 N7            -3.3444    -0.2128    -0.5853 N.am    
   8 C8            -4.1880     0.8290    -0.4608 C.2     
   9 N9            -3.4946     1.9821    -0.5064 N.am    
  10 O10           -5.3944     0.7417    -0.3276 O.2     
  11 C11           -4.0628     3.3286    -0.4039 C.3     
  12 C12           -5.0613     3.5507    -1.5433 C.3     
  13 C13           -5.6963     4.9353    -1.3959 C.3     
  14 N14           -6.3782     5.0268    -0.0986 N.3     
  15 C15           -5.4312     4.8638     1.0118 C.3     
  16 C16           -4.7883     3.4771     0.9363 C.3     
  17 C17           -7.1161     6.2915     0.0202 C.3     
  18 C18           -7.9119     6.2967     1.3274 C.3     
  19 C19           -8.7070     7.6020     1.4314 C.3     
  20 N20           -7.7807     8.7329     1.2843 N.am    
  21 C21           -6.9031     8.7788     0.1069 C.3     
  22 C22           -6.1282     7.4604     0.0178 C.3     
  23 C23           -7.7372     9.7099     2.2117 C.2     
  24 C24           -6.8588    11.7792     2.9912 C.ar    
  25 C25           -5.6839    12.3841     3.4120 C.ar    
  26 C26           -5.7365    13.4709     4.2749 C.ar    
  27 C27           -6.9659    13.9486     4.7137 C.ar    
  28 C28           -8.1340    13.3430     4.2926 C.ar    
  29 C29           -8.0847    12.2651     3.4296 C.ar    
  30 O30           -8.5342     9.7125     3.1299 O.2     
  31 N31           -6.8102    10.6841     2.1213 N.am    
  32 S32           -4.2469    14.2429     4.8132 S.3     
  33 F33            1.3467     2.5988    -1.0341 F       
  34 C34           -4.8436    15.5718     5.8942 C.3     
  35 F35           -5.5755    15.0199     6.9511 F       
  36 F36           -3.7524    16.2834     6.4042 F       
  37 F37           -5.6630    16.4368     5.1612 F       
  38 H38            1.2904    -0.0073    -1.1009 H       
  39 H39           -0.7334    -1.3938    -0.9130 H       
  40 H40           -1.0712     3.5298    -0.7306 H       
  41 H41           -3.5952    -1.1499    -0.5835 H       
  42 H42           -3.2639     4.0671    -0.4705 H       
  43 H43           -4.5419     3.4885    -2.4996 H       
  44 H44           -5.8383     2.7875    -1.5001 H       
  45 H45           -4.9203     5.6987    -1.4529 H       
  46 H46           -6.4182     5.0909    -2.1975 H       
  47 H47           -4.6565     5.6275     0.9435 H       
  48 H48           -5.9607     4.9676     1.9589 H       
  49 H49           -5.5611     2.7128     1.0184 H       
  50 H50           -4.0739     3.3623     1.7515 H       
  51 H51           -7.8006     6.3931    -0.8220 H       
  52 H52           -8.5988     5.4504     1.3385 H       
  53 H53           -7.2260     6.2203     2.1711 H       
  54 H54           -9.4558     7.6377     0.6401 H       
  55 H55           -9.1969     7.6549     2.4036 H       
  56 H56           -7.5048     8.9105    -0.7924 H       
  57 H57           -6.2028     9.6083     0.2052 H       
  58 H58           -5.4592     7.3730     0.8738 H       
  59 H59           -5.5456     7.4423    -0.9033 H       
  60 H60           -4.7301    12.0106     3.0697 H       
  61 H61           -7.0080    14.7938     5.3848 H       
  62 H62           -9.0880    13.7157     4.6352 H       
  63 H63           -8.9997    11.7942     3.1021 H       
  64 H64           -6.1093    10.6261     1.4533 H       
@<TRIPOS>BOND
   1    1    2 ar
   2    1   33 1
   3    1    6 ar
   4    2    3 ar
   5    2   38 1
   6    3    4 ar
   7    3   39 1
   8    4    5 ar
   9    4    7 1
  10    5    6 ar
  11    5    9 1
  12    6   40 1
  13    7    8 am
  14    7   41 1
  15    8    9 am
  16    8   10 2
  17    9   11 1
  18   11   12 1
  19   11   16 1
  20   11   42 1
  21   12   13 1
  22   12   43 1
  23   12   44 1
  24   13   14 1
  25   13   45 1
  26   13   46 1
  27   14   15 1
  28   14   17 1
  29   15   16 1
  30   15   47 1
  31   15   48 1
  32   16   49 1
  33   16   50 1
  34   17   18 1
  35   17   22 1
  36   17   51 1
  37   18   19 1
  38   18   52 1
  39   18   53 1
  40   19   20 1
  41   19   54 1
  42   19   55 1
  43   20   21 1
  44   20   23 am
  45   21   22 1
  46   21   56 1
  47   21   57 1
  48   22   58 1
  49   22   59 1
  50   23   30 2
  51   23   31 am
  52   24   25 ar
  53   24   31 1
  54   24   29 ar
  55   25   26 ar
  56   25   60 1
  57   26   27 ar
  58   26   32 1
  59   27   28 ar
  60   27   61 1
  61   28   29 ar
  62   28   62 1
  63   29   63 1
  64   31   64 1
  65   32   34 1
  66   34   35 1
  67   34   36 1
  68   34   37 1

#	End of record

