#	Name: ASD07931538
#	Creating user name:	WinNT
#	Creation time:	15. 06. 2019 21:13

#	Modifying user name:	WinNT
#	Modification time:	15. 06. 2019 21:13

#	Program:	/corina/corina34_cracker 3.40 0067  02.08.2006

@<TRIPOS>MOLECULE
ASD07931538
  73   78    0    0    0
SMALL
NO_CHARGES


@<TRIPOS>ATOM
   1 C1            -0.0169     1.3972     0.0097 C.ar    
   2 N2             0.0021    -0.0041     0.0020 N.am    
   3 N3            -0.6362    -0.8162     0.9429 N.2     
   4 C4            -0.4439    -2.0770     0.6800 C.2     
   5 C5             0.3936    -2.1504    -0.5390 C.2     
   6 C6             0.6351    -0.7620    -0.9192 C.2     
   7 O7             1.2844    -0.3657    -1.8735 O.2     
   8 C8            -0.8536    -3.3542     1.2943 C.ar    
   9 C9            -0.4281    -4.5495     0.6908 C.ar    
  10 N10            0.3552    -4.5203    -0.4500 N.pl3   
  11 C11            0.7479    -3.3790    -1.0383 C.2     
  12 C12           -1.6399    -3.3900     2.4411 C.ar    
  13 C13           -2.0012    -4.6057     2.9848 C.ar    
  14 C14           -1.5829    -5.7861     2.3923 C.ar    
  15 C15           -0.8035    -5.7639     1.2543 C.ar    
  16 C16            0.7746    -5.7927    -1.0428 C.3     
  17 C17           -0.2527    -6.2402    -2.0506 C.ar    
  18 C18           -0.1376    -5.8511    -3.3725 C.ar    
  19 C19           -1.0778    -6.2592    -4.2983 C.ar    
  20 C20           -2.1390    -7.0613    -3.9006 C.ar    
  21 C21           -2.2517    -7.4506    -2.5727 C.ar    
  22 C22           -1.3054    -7.0436    -1.6525 C.ar    
  23 N23           -3.0952    -7.4767    -4.8378 N.pl3   
  24 C24           -4.1719    -8.2548    -4.5848 C.2     
  25 C25           -4.8400    -8.4243    -5.7493 C.2     
  26 C26           -4.1499    -7.7275    -6.7473 C.2     
  27 N27           -3.1077    -7.1545    -6.2010 N.2     
  28 C28           -1.2333     2.0805     0.0308 C.ar    
  29 C29            1.1732     2.1090     0.0022 C.ar    
  30 C30            1.1521     3.4913     0.0098 C.ar    
  31 C31           -0.0533     4.1684     0.0249 C.ar    
  32 C32           -1.2448     3.4673     0.0383 C.ar    
  33 N33           -2.4371     1.3691     0.0439 N.pl3   
  34 C34           -3.7130     2.0887     0.0661 C.3     
  35 C35           -4.8485     1.0979     0.0766 C.2     
  36 C36           -6.2741     1.5858     0.0996 C.3     
  37 O37           -4.6159    -0.0871     0.0667 O.2     
  38 C38           -7.1886     0.5175    -0.5031 C.3     
  39 C39           -8.6160     1.0605    -0.5945 C.3     
  40 C40           -9.5305    -0.0079    -1.1972 C.3     
  41 C41           -6.6954     1.8618     1.5443 C.3     
  42 H42            1.3588    -3.4290    -1.9275 H       
  43 H43           -1.9659    -2.4703     2.9042 H       
  44 H44           -2.6116    -4.6370     3.8752 H       
  45 H45           -1.8703    -6.7329     2.8252 H       
  46 H46           -0.4835    -6.6906     0.8013 H       
  47 H47            1.7369    -5.6632    -1.5381 H       
  48 H48            0.8673    -6.5453    -0.2598 H       
  49 H49            0.6881    -5.2272    -3.6813 H       
  50 H50           -0.9878    -5.9545    -5.3305 H       
  51 H51           -3.0763    -8.0742    -2.2603 H       
  52 H52           -1.3925    -7.3461    -0.6194 H       
  53 H53           -4.4485    -8.6673    -3.6258 H       
  54 H54           -5.7459    -8.9964    -5.8845 H       
  55 H55           -4.4313    -7.6688    -7.7883 H       
  56 H56            2.1166     1.5834    -0.0093 H       
  57 H57            2.0800     4.0439     0.0042 H       
  58 H58           -0.0640     5.2484     0.0307 H       
  59 H59           -2.1845     3.9995     0.0501 H       
  60 H60           -2.4274     0.3992     0.0383 H       
  61 H61           -3.7644     2.7098     0.9604 H       
  62 H62           -3.7897     2.7197    -0.8194 H       
  63 H63           -6.3536     2.5032    -0.4836 H       
  64 H64           -6.8345     0.2567    -1.5004 H       
  65 H65           -7.1772    -0.3697     0.1300 H       
  66 H66           -8.9701     1.3213     0.4028 H       
  67 H67           -8.6274     1.9477    -1.2276 H       
  68 H68           -9.5191    -0.8951    -0.5641 H       
  69 H69          -10.5474     0.3790    -1.2624 H       
  70 H70           -9.1764    -0.2686    -2.1946 H       
  71 H71           -6.0440     2.6230     1.9737 H       
  72 H72           -7.7266     2.2148     1.5609 H       
  73 H73           -6.6160     0.9445     2.1276 H       
@<TRIPOS>BOND
   1    1    2 1
   2    1   29 ar
   3    1   28 ar
   4    2    3 1
   5    2    6 am
   6    3    4 2
   7    4    5 1
   8    4    8 1
   9    5    6 1
  10    5   11 2
  11    6    7 2
  12    8    9 ar
  13    8   12 ar
  14    9   10 1
  15    9   15 ar
  16   10   11 1
  17   10   16 1
  18   11   42 1
  19   12   13 ar
  20   12   43 1
  21   13   14 ar
  22   13   44 1
  23   14   15 ar
  24   14   45 1
  25   15   46 1
  26   16   17 1
  27   16   47 1
  28   16   48 1
  29   17   18 ar
  30   17   22 ar
  31   18   19 ar
  32   18   49 1
  33   19   20 ar
  34   19   50 1
  35   20   21 ar
  36   20   23 1
  37   21   22 ar
  38   21   51 1
  39   22   52 1
  40   23   24 1
  41   23   27 1
  42   24   25 2
  43   24   53 1
  44   25   26 1
  45   25   54 1
  46   26   27 2
  47   26   55 1
  48   28   33 1
  49   28   32 ar
  50   29   30 ar
  51   29   56 1
  52   30   31 ar
  53   30   57 1
  54   31   32 ar
  55   31   58 1
  56   32   59 1
  57   33   34 1
  58   33   60 1
  59   34   35 1
  60   34   61 1
  61   34   62 1
  62   35   36 1
  63   35   37 2
  64   36   38 1
  65   36   41 1
  66   36   63 1
  67   38   39 1
  68   38   64 1
  69   38   65 1
  70   39   40 1
  71   39   66 1
  72   39   67 1
  73   40   68 1
  74   40   69 1
  75   40   70 1
  76   41   71 1
  77   41   72 1
  78   41   73 1

#	End of record

