#	Name: ASD02198113
#	Creating user name:	WinNT
#	Creation time:	15. 06. 2019 20:18

#	Modifying user name:	WinNT
#	Modification time:	15. 06. 2019 20:18

#	Program:	/corina/corina34_cracker 3.40 0067  02.08.2006

@<TRIPOS>MOLECULE
ASD02198113
  53   57    0    0    0
SMALL
NO_CHARGES


@<TRIPOS>ATOM
   1 C1             0.3840     1.3874    -0.3271 C.2     
   2 C2             0.1845     0.0244    -0.2863 C.2     
   3 C3            -1.0793    -0.5705     0.0294 C.1     
   4 S4             1.9987     1.7530    -0.7343 S.3     
   5 C5             2.4226     0.0529    -0.8542 C.2     
   6 C6             1.3238    -0.7229    -0.5809 C.2     
   7 C7             3.7028    -0.4421    -1.1823 C.2     
   8 C8             4.7686     0.4881    -1.5967 C.2     
   9 O9             3.9274    -1.6396    -1.1229 O.2     
  10 N10            1.3450    -2.1100    -0.5958 N.pl3   
  11 N11           -0.5912     2.3276    -0.0782 N.pl3   
  12 N12           -2.0818    -1.0424     0.2799 N.1     
  13 C13            4.6511     1.8239    -1.8188 C.2     
  14 C14           -0.2578     3.6778    -0.0217 C.ar    
  15 C15           -1.1499     4.6340    -0.4989 C.ar    
  16 O16            5.8365     2.3308    -2.1816 O.3     
  17 C17            6.7876     1.3749    -2.2190 C.ar    
  18 C18            6.1858     0.1628    -1.8504 C.ar    
  19 C19            8.1420     1.3939    -2.5299 C.ar    
  20 C20            8.8764     0.2285    -2.4799 C.ar    
  21 C21            8.2775    -0.9700    -2.1212 C.ar    
  22 C22            6.9373    -1.0072    -1.8016 C.ar    
  23 C23           -0.8232     5.9698    -0.4444 C.ar    
  24 C24            0.4058     6.3660     0.0908 C.ar    
  25 C25            1.2994     5.4034     0.5691 C.ar    
  26 C26            0.9645     4.0695     0.5171 C.ar    
  27 C27            0.7594     7.7973     0.1502 C.2     
  28 O28           -0.0187     8.6335    -0.2666 O.2     
  29 N29            1.9448     8.1777     0.6665 N.am    
  30 C30            2.2958     9.5988     0.7256 C.3     
  31 C31            3.3216     9.8530     1.8525 C.3     
  32 C32            3.0034    10.0197    -0.5442 C.2     
  33 O33            4.2553    10.4060    -0.2600 O.3     
  34 C34            4.3574    10.7607     1.1509 C.3     
  35 O35            2.5135    10.0092    -1.6486 O.2     
  36 H36            2.1666    -2.5803    -0.8074 H       
  37 H37            0.5383    -2.6096    -0.3947 H       
  38 H38           -1.5103     2.0489     0.0577 H       
  39 H39            3.7379     2.3918    -1.7181 H       
  40 H40           -2.0992     4.3273    -0.9126 H       
  41 H41            8.6188     2.3213    -2.8109 H       
  42 H42            9.9285     0.2488    -2.7229 H       
  43 H43            8.8647    -1.8758    -2.0861 H       
  44 H44            6.4714    -1.9405    -1.5220 H       
  45 H45           -1.5156     6.7112    -0.8151 H       
  46 H46            2.2498     5.7064     0.9832 H       
  47 H47            1.6543     3.3253     0.8868 H       
  48 H48            2.5655     7.5106     0.9991 H       
  49 H49            1.4025    10.2033     0.8823 H       
  50 H50            2.8565    10.3708     2.6913 H       
  51 H51            3.7806     8.9193     2.1776 H       
  52 H52            4.1052    11.8108     1.2986 H       
  53 H53            5.3602    10.5530     1.5241 H       
@<TRIPOS>BOND
   1    1    2 2
   2    1    4 1
   3    1   11 1
   4    2    3 1
   5    2    6 1
   6    3   12 3
   7    4    5 1
   8    5    6 2
   9    5    7 1
  10    6   10 1
  11    7    8 1
  12    7    9 2
  13    8   13 2
  14    8   18 1
  15   10   36 1
  16   10   37 1
  17   11   14 1
  18   11   38 1
  19   13   16 1
  20   13   39 1
  21   14   15 ar
  22   14   26 ar
  23   15   23 ar
  24   15   40 1
  25   16   17 1
  26   17   18 ar
  27   17   19 ar
  28   18   22 ar
  29   19   20 ar
  30   19   41 1
  31   20   21 ar
  32   20   42 1
  33   21   22 ar
  34   21   43 1
  35   22   44 1
  36   23   24 ar
  37   23   45 1
  38   24   25 ar
  39   24   27 1
  40   25   26 ar
  41   25   46 1
  42   26   47 1
  43   27   28 2
  44   27   29 am
  45   29   30 1
  46   29   48 1
  47   30   31 1
  48   30   32 1
  49   30   49 1
  50   31   34 1
  51   31   50 1
  52   31   51 1
  53   32   33 1
  54   32   35 2
  55   33   34 1
  56   34   52 1
  57   34   53 1

#	End of record

