#	Name: ASD01915513
#	Creating user name:	WinNT
#	Creation time:	15. 06. 2019 20:05

#	Modifying user name:	WinNT
#	Modification time:	15. 06. 2019 20:05

#	Program:	/corina/corina34_cracker 3.40 0067  02.08.2006

@<TRIPOS>MOLECULE
ASD01915513
  40   43    0    0    0
SMALL
NO_CHARGES


@<TRIPOS>ATOM
   1 C1            -0.0042     1.4680     0.2330 C.2     
   2 N2             0.0657     0.1181    -0.0300 N.pl3   
   3 C3            -1.1438    -0.6649    -0.3107 C.3     
   4 C4            -2.3282    -0.0483     0.4317 C.3     
   5 N5            -2.4043     1.3988     0.2637 N.am    
   6 C6            -1.2932     2.1740     0.2842 C.2     
   7 C7             1.2766     1.9052     0.4224 C.2     
   8 C8             2.0757     0.7640     0.2714 C.2     
   9 N9             1.2859    -0.2516     0.0106 N.2     
  10 C10            3.5773     0.7118     0.3873 C.3     
  11 O11            4.0782     2.0180     0.6789 O.3     
  12 C12            5.4242     2.1462     0.8162 C.ar    
  13 C13           -3.6495     1.9982     0.0777 C.ar    
  14 O14           -1.3583     3.3872     0.3419 O.2     
  15 C15            5.9787     3.3859     1.0996 C.ar    
  16 C16            6.2454     1.0366     0.6789 C.ar    
  17 C17            7.6133     1.1695     0.8189 C.ar    
  18 C18            8.1640     2.4072     1.0957 C.ar    
  19 C19            7.3472     3.5136     1.2387 C.ar    
  20 C20           -3.9791     2.6007    -1.1357 C.ar    
  21 C21           -5.2216     3.1824    -1.2795 C.ar    
  22 N22           -6.0917     3.1734    -0.2873 N.ar    
  23 C23           -5.8175     2.6135     0.8758 C.ar    
  24 C24           -4.5994     2.0055     1.0982 C.ar    
  25 H25           -1.3420    -0.6565    -1.3825 H       
  26 H26           -0.9986    -1.6917     0.0250 H       
  27 H27           -3.2494    -0.4952     0.0579 H       
  28 H28           -2.2349    -0.2752     1.4937 H       
  29 H29            1.6022     2.9115     0.6410 H       
  30 H30            3.8563     0.0283     1.1892 H       
  31 H31            4.0024     0.3613    -0.5532 H       
  32 H32            5.3412     4.2505     1.2110 H       
  33 H33            5.8157     0.0695     0.4630 H       
  34 H34            8.2530     0.3059     0.7125 H       
  35 H35            9.2337     2.5091     1.2048 H       
  36 H36            7.7798     4.4794     1.4545 H       
  37 H37           -3.2714     2.6122    -1.9514 H       
  38 H38           -5.4855     3.6514    -2.2159 H       
  39 H39           -6.5577     2.6278     1.6622 H       
  40 H40           -4.3815     1.5488     2.0524 H       
@<TRIPOS>BOND
   1    1    2 1
   2    1    7 2
   3    1    6 1
   4    2    3 1
   5    2    9 1
   6    3    4 1
   7    3   25 1
   8    3   26 1
   9    4    5 1
  10    4   27 1
  11    4   28 1
  12    5    6 am
  13    5   13 1
  14    6   14 2
  15    7    8 1
  16    7   29 1
  17    8    9 2
  18    8   10 1
  19   10   11 1
  20   10   30 1
  21   10   31 1
  22   11   12 1
  23   12   15 ar
  24   12   16 ar
  25   13   20 ar
  26   13   24 ar
  27   15   19 ar
  28   15   32 1
  29   16   17 ar
  30   16   33 1
  31   17   18 ar
  32   17   34 1
  33   18   19 ar
  34   18   35 1
  35   19   36 1
  36   20   21 ar
  37   20   37 1
  38   21   22 ar
  39   21   38 1
  40   22   23 ar
  41   23   24 ar
  42   23   39 1
  43   24   40 1

#	End of record

