#	Name: ASD01881165
#	Creating user name:	WinNT
#	Creation time:	15. 06. 2019 19:42

#	Modifying user name:	WinNT
#	Modification time:	15. 06. 2019 19:42

#	Program:	/corina/corina34_cracker 3.40 0067  02.08.2006

@<TRIPOS>MOLECULE
ASD01881165
  57   59    0    0    0
SMALL
NO_CHARGES


@<TRIPOS>ATOM
   1 Cl1            8.0659     4.5806     0.7363 Cl      
   2 N2            -0.0158     1.3135     0.0093 N.ar    
   3 C3             0.0021    -0.0041     0.0020 C.ar    
   4 N4             1.1312    -0.6835    -0.0120 N.ar    
   5 C5             2.3010    -0.0614    -0.0198 C.ar    
   6 C6             2.3294     1.3206    -0.0131 C.ar    
   7 C7             1.1167     2.0074     0.0022 C.ar    
   8 C8             3.6391     2.0661    -0.0211 C.3     
   9 O9             4.0409     2.3085    -1.3708 O.3     
  10 C10            5.2085     2.9750    -1.5558 C.ar    
  11 C11            5.6585     3.2442    -2.8451 C.ar    
  12 C12            6.8391     3.9186    -3.0320 C.ar    
  13 C13            7.5961     4.3388    -1.9330 C.ar    
  14 C14            7.1395     4.0666    -0.6389 C.ar    
  15 C15            5.9502     3.3927    -0.4580 C.ar    
  16 C16            7.5929     4.3603    -4.2617 C.3     
  17 N17            8.7991     5.0426    -3.7794 N.am    
  18 C18            8.7965     5.0277    -2.4355 C.2     
  19 O19            9.6627     5.5137    -1.7341 O.2     
  20 C20           -0.0164     5.5091     0.0309 C.3     
  21 C21           -1.3913     6.1801     0.0476 C.3     
  22 C22            4.0058    -1.1111    -1.4830 C.3     
  23 C23            3.5847    -0.8508    -0.0353 C.3     
  24 C24           -1.7607    -1.0009    -1.4291 C.3     
  25 C25           -1.3047    -0.7547     0.0105 C.3     
  26 O26            1.0934     3.3624     0.0092 O.3     
  27 C27           -0.1907     3.9891     0.0249 C.3     
  28 C28            9.4821     7.1038    -4.9048 C.3     
  29 C29            9.8354     5.6419    -4.6239 C.3     
  30 H30            3.5192     3.0167     0.4986 H       
  31 H31            4.3997     1.4698     0.4829 H       
  32 H32            5.0792     2.9223    -3.6979 H       
  33 H33            5.5975     3.1824     0.5409 H       
  34 H34            7.8676     3.4943    -4.8640 H       
  35 H35            6.9830     5.0472    -4.8485 H       
  36 H36            0.5269     5.8160    -0.8629 H       
  37 H37            0.5442     5.8070     0.9170 H       
  38 H38           -1.9345     5.8732     0.9414 H       
  39 H39           -1.2670     7.2630     0.0519 H       
  40 H40           -1.9518     5.8822    -0.8384 H       
  41 H41            4.9343    -1.6820    -1.4942 H       
  42 H42            3.2255    -1.6765    -1.9923 H       
  43 H43            4.1578    -0.1602    -1.9937 H       
  44 H44            4.3650    -0.2853     0.4741 H       
  45 H45            3.4327    -1.8016     0.4755 H       
  46 H46           -1.8937    -0.0455    -1.9365 H       
  47 H47           -1.0073    -1.5889    -1.9533 H       
  48 H48           -2.7058    -1.5438    -1.4230 H       
  49 H49           -1.1716    -1.7101     0.5179 H       
  50 H50           -2.0580    -0.1667     0.5347 H       
  51 H51           -0.7339     3.6821     0.9187 H       
  52 H52           -0.7513     3.6911    -0.8612 H       
  53 H53            8.5217     7.1533    -5.4180 H       
  54 H54            9.4196     7.6498    -3.9635 H       
  55 H55           10.2531     7.5496    -5.5331 H       
  56 H56           10.7958     5.5924    -4.1107 H       
  57 H57            9.8978     5.0958    -5.5651 H       
@<TRIPOS>BOND
   1    1   14 1
   2    2    3 ar
   3    2    7 ar
   4    3    4 ar
   5    3   25 1
   6    4    5 ar
   7    5    6 ar
   8    5   23 1
   9    6    7 ar
  10    6    8 1
  11    7   26 1
  12    8    9 1
  13    8   30 1
  14    8   31 1
  15    9   10 1
  16   10   11 ar
  17   10   15 ar
  18   11   12 ar
  19   11   32 1
  20   12   13 ar
  21   12   16 1
  22   13   14 ar
  23   13   18 1
  24   14   15 ar
  25   15   33 1
  26   16   17 1
  27   16   34 1
  28   16   35 1
  29   17   18 am
  30   17   29 1
  31   18   19 2
  32   20   21 1
  33   20   27 1
  34   20   36 1
  35   20   37 1
  36   21   38 1
  37   21   39 1
  38   21   40 1
  39   22   23 1
  40   22   41 1
  41   22   42 1
  42   22   43 1
  43   23   44 1
  44   23   45 1
  45   24   25 1
  46   24   46 1
  47   24   47 1
  48   24   48 1
  49   25   49 1
  50   25   50 1
  51   26   27 1
  52   27   51 1
  53   27   52 1
  54   28   29 1
  55   28   53 1
  56   28   54 1
  57   28   55 1
  58   29   56 1
  59   29   57 1

#	End of record

