#	Name: ASD01410978
#	Creating user name:	WinNT
#	Creation time:	15. 06. 2019 19:19

#	Modifying user name:	WinNT
#	Modification time:	15. 06. 2019 19:19

#	Program:	/corina/corina34_cracker 3.40 0067  02.08.2006

@<TRIPOS>MOLECULE
ASD01410978
  60   64    0    0    0
SMALL
NO_CHARGES


@<TRIPOS>ATOM
   1 C1            -0.0225     1.8097     0.0120 C.ar    
   2 P2             0.0021    -0.0041     0.0020 P.3     
   3 N3             0.0243    -0.5590     1.5451 N.pl3   
   4 O4            -1.2061    -0.5101    -0.6869 O.2     
   5 C5             0.0452    -1.9289     1.7920 C.2     
   6 C6             0.0645    -2.4576     3.0623 C.2     
   7 S7             0.0864    -4.2132     2.9706 S.3     
   8 C8             0.0687    -4.1613     1.2136 C.2     
   9 C9             0.0426    -2.8674     0.7869 C.2     
  10 C10            0.0670    -1.7051     4.2569 C.2     
  11 O11            0.0514    -0.4886     4.2101 O.2     
  12 O12            0.0867    -2.3345     5.4513 O.3     
  13 C13            0.0755    -5.3447     0.3309 C.ar    
  14 C14            0.0971    -6.6285     0.8831 C.ar    
  15 C15            0.1029    -7.7274     0.0632 C.ar    
  16 C16            0.0873    -7.5639    -1.3245 C.ar    
  17 C17            0.0658    -6.2805    -1.8767 C.ar    
  18 C18            0.0546    -5.1815    -1.0570 C.ar    
  19 O19            1.3165    -0.5187    -0.7723 O.3     
  20 C20            1.5888    -0.2019    -2.1389 C.3     
  21 C21            1.1649     2.5170     0.0045 C.ar    
  22 C22            1.1461     3.8994     0.0121 C.ar    
  23 C23           -0.0600     4.5741     0.0268 C.ar    
  24 C24           -1.2478     3.8666     0.0335 C.ar    
  25 C25           -1.2291     2.4847     0.0214 C.ar    
  26 C26           -0.0805     6.0810     0.0362 C.3     
  27 C27            2.4800     1.7814    -0.0116 C.3     
  28 C28            0.0941    -8.7479    -2.2077 C.2     
  29 C29            0.0805    -8.6937    -3.5399 C.2     
  30 C30            0.0909    -9.9860    -4.1984 C.ar    
  31 C31            0.1135   -11.0411    -3.2804 C.ar    
  32 S32            0.1287   -10.4061    -1.6402 S.3     
  33 C33            0.0814   -10.2850    -5.5798 C.ar    
  34 C34            0.0940   -11.5771    -6.0058 C.ar    
  35 C35            0.1160   -12.6224    -5.0917 C.ar    
  36 C36            0.1270   -12.3612    -3.7419 C.ar    
  37 H37            0.0227     0.0673     2.2858 H       
  38 H38            0.0246    -2.5998    -0.2593 H       
  39 H39            0.0869    -1.7364     6.2111 H       
  40 H40            0.1095    -6.7548     1.9556 H       
  41 H41            0.1200    -8.7194     0.4899 H       
  42 H42            0.0541    -6.1544    -2.9493 H       
  43 H43            0.0334    -4.1896    -1.4839 H       
  44 H44            1.6589     0.8797    -2.2541 H       
  45 H45            2.5312    -0.6610    -2.4375 H       
  46 H46            0.7839    -0.5828    -2.7675 H       
  47 H47            2.0740     4.4521     0.0069 H       
  48 H48           -2.1903     4.3939     0.0453 H       
  49 H49           -2.1570     1.9320     0.0227 H       
  50 H50           -0.0945     6.4505    -0.9892 H       
  51 H51           -0.9707     6.4290     0.5600 H       
  52 H52            0.8090     6.4533     0.5445 H       
  53 H53            2.7875     1.6092    -1.0431 H       
  54 H54            3.2364     2.3781     0.4982 H       
  55 H55            2.3675     0.8247     0.4985 H       
  56 H56            0.0628    -7.7617    -4.0852 H       
  57 H57            0.0636    -9.4823    -6.3022 H       
  58 H58            0.0865   -11.7918    -7.0642 H       
  59 H59            0.1255   -13.6439    -5.4424 H       
  60 H60            0.1506   -13.1781    -3.0358 H       
@<TRIPOS>BOND
   1    1    2 1
   2    1   21 ar
   3    1   25 ar
   4    2    3 1
   5    2    4 2
   6    2   19 1
   7    3    5 1
   8    3   37 1
   9    5    6 2
  10    5    9 1
  11    6    7 1
  12    6   10 1
  13    7    8 1
  14    8    9 2
  15    8   13 1
  16    9   38 1
  17   10   11 2
  18   10   12 1
  19   12   39 1
  20   13   14 ar
  21   13   18 ar
  22   14   15 ar
  23   14   40 1
  24   15   16 ar
  25   15   41 1
  26   16   17 ar
  27   16   28 1
  28   17   18 ar
  29   17   42 1
  30   18   43 1
  31   19   20 1
  32   20   44 1
  33   20   45 1
  34   20   46 1
  35   21   22 ar
  36   21   27 1
  37   22   23 ar
  38   22   47 1
  39   23   24 ar
  40   23   26 1
  41   24   25 ar
  42   24   48 1
  43   25   49 1
  44   26   50 1
  45   26   51 1
  46   26   52 1
  47   27   53 1
  48   27   54 1
  49   27   55 1
  50   28   29 2
  51   28   32 1
  52   29   30 1
  53   29   56 1
  54   30   33 ar
  55   30   31 ar
  56   31   32 1
  57   31   36 ar
  58   33   34 ar
  59   33   57 1
  60   34   35 ar
  61   34   58 1
  62   35   36 ar
  63   35   59 1
  64   36   60 1

#	End of record

