#	Name: ASD01900188
#	Creating user name:	WinNT
#	Creation time:	15. 06. 2019 19:51

#	Modifying user name:	WinNT
#	Modification time:	15. 06. 2019 19:51

#	Program:	/corina/corina34_cracker 3.40 0067  02.08.2006

@<TRIPOS>MOLECULE
ASD01900188
  36   39    0    0    0
SMALL
NO_CHARGES


@<TRIPOS>ATOM
   1 N1            -0.0167     1.3829     0.0096 N.pl3   
   2 S2            -1.2944    -1.1087     0.1227 S.3     
   3 C3             0.0698    -0.0014    -0.0080 C.2     
   4 N4             1.1688    -0.6833    -0.1241 N.2     
   5 C5             1.0634    -2.0004    -0.1384 C.2     
   6 C6             2.1429    -3.0090    -0.4033 C.2     
   7 C7             1.8810    -4.0993    -1.2581 C.2     
   8 C8             0.6042    -4.2430    -2.0290 C.3     
   9 C9            -0.5733    -4.6968    -1.1489 C.3     
  10 C10           -0.5122    -3.9304     0.1817 C.3     
  11 C11           -0.1946    -2.4754     0.0345 C.2     
  12 N12            2.9397    -4.8561    -1.2592 N.2     
  13 N13            3.9190    -4.2516    -0.4545 N.pl3   
  14 C14            3.4024    -3.1049     0.0533 C.2     
  15 C15            1.1425     2.1525     0.0090 C.ar    
  16 C16            1.0505     3.5374    -0.0858 C.ar    
  17 C17            2.2108     4.2902    -0.0853 C.ar    
  18 C18            3.4290     3.6302     0.0103 C.ar    
  19 C19            3.4464     2.2528     0.1013 C.ar    
  20 N20            2.3231     1.5605     0.1040 N.ar    
  21 C21            4.7188     4.4096     0.0140 C.3     
  22 H22           -0.8854     1.8145     0.0184 H       
  23 H23            0.3560    -3.2826    -2.4809 H       
  24 H24            0.7529    -4.9750    -2.8227 H       
  25 H25           -1.5138    -4.4783    -1.6545 H       
  26 H26           -0.4968    -5.7674    -0.9586 H       
  27 H27           -1.4760    -4.0262     0.6818 H       
  28 H28            0.2492    -4.3897     0.8121 H       
  29 H29            4.8112    -4.5950    -0.2900 H       
  30 H30            3.9073    -2.4031     0.7005 H       
  31 H31            0.0862     4.0182    -0.1591 H       
  32 H32            2.1704     5.3670    -0.1581 H       
  33 H33            4.3915     1.7355     0.1759 H       
  34 H34            4.9859     4.6651     1.0395 H       
  35 H35            5.5104     3.8043    -0.4276 H       
  36 H36            4.5929     5.3232    -0.5670 H       
@<TRIPOS>BOND
   1    1    3 1
   2    1   15 1
   3    1   22 1
   4    2    3 1
   5    2   11 1
   6    3    4 2
   7    4    5 1
   8    5    6 1
   9    5   11 2
  10    6    7 1
  11    6   14 2
  12    7    8 1
  13    7   12 2
  14    8    9 1
  15    8   23 1
  16    8   24 1
  17    9   10 1
  18    9   25 1
  19    9   26 1
  20   10   11 1
  21   10   27 1
  22   10   28 1
  23   12   13 1
  24   13   14 1
  25   13   29 1
  26   14   30 1
  27   15   16 ar
  28   15   20 ar
  29   16   17 ar
  30   16   31 1
  31   17   18 ar
  32   17   32 1
  33   18   19 ar
  34   18   21 1
  35   19   20 ar
  36   19   33 1
  37   21   34 1
  38   21   35 1
  39   21   36 1

#	End of record

