#	Name: ASD00311149
#	Creating user name:	WinNT
#	Creation time:	15. 06. 2019 18:34

#	Modifying user name:	WinNT
#	Modification time:	15. 06. 2019 18:34

#	Program:	/corina/corina34_cracker 3.40 0067  02.08.2006

@<TRIPOS>MOLECULE
ASD00311149
  41   44    0    0    0
SMALL
NO_CHARGES


@<TRIPOS>ATOM
   1 C1            -0.0167     1.3777     0.0096 C.2     
   2 C2             0.0021    -0.0041     0.0020 C.2     
   3 C3             1.2586    -0.6766    -0.0131 C.2     
   4 C4             2.4315     0.0672    -0.0199 C.2     
   5 C5             2.3576     1.4749    -0.0117 C.2     
   6 N6             1.1651     2.0903     0.0022 N.am    
   7 C7            -1.3434    -0.5753     0.0118 C.2     
   8 C8            -2.3231     0.3266     0.0260 C.2     
   9 S9            -1.6792     1.9565     0.0358 S.3     
  10 O10            3.3825     2.1370    -0.0175 O.2     
  11 C11            3.7477    -0.6123    -0.0352 C.ar    
  12 C12            4.5912    -0.4742    -1.1343 C.ar    
  13 C13            5.8281    -1.1169    -1.1409 C.ar    
  14 C14            6.2130    -1.8947    -0.0458 C.ar    
  15 C15            5.3712    -2.0267     1.0401 C.ar    
  16 C16            4.1469    -1.3874     1.0544 C.ar    
  17 C17            6.7018    -0.9808    -2.2672 C.1     
  18 N18            7.3949    -0.8728    -3.1608 N.1     
  19 C19           -1.5961    -2.0354     0.0056 C.ar    
  20 C20           -1.7277    -2.7207    -1.2071 C.ar    
  21 C21           -1.9637    -4.0849    -1.2035 C.ar    
  22 C22           -2.0693    -4.7669    -0.0049 C.ar    
  23 C23           -1.9401    -4.0925     1.1958 C.ar    
  24 C24           -1.6979    -2.7332     1.2071 C.ar    
  25 C25           -2.3267    -6.2518    -0.0071 C.3     
  26 O26           -1.6248    -2.0496    -2.3843 O.3     
  27 O27            1.3084    -2.0292    -0.0204 O.3     
  28 Cl28          -4.0152    -0.0612     0.0400 Cl      
  29 H29            1.1330     3.0597     0.0073 H       
  30 H30            4.2884     0.1280    -1.9782 H       
  31 H31            7.1708    -2.3937    -0.0491 H       
  32 H32            5.6729    -2.6292     1.8841 H       
  33 H33            3.4951    -1.4910     1.9093 H       
  34 H34           -2.0659    -4.6171    -2.1377 H       
  35 H35           -2.0244    -4.6318     2.1277 H       
  36 H36           -1.5928    -2.2105     2.1464 H       
  37 H37           -1.3763    -6.7853    -0.0183 H       
  38 H38           -2.8861    -6.5249     0.8877 H       
  39 H39           -2.9040    -6.5191    -0.8922 H       
  40 H40           -0.7245    -2.0056    -2.7346 H       
  41 H41            2.2057    -2.3896    -0.0306 H       
@<TRIPOS>BOND
   1    1    2 2
   2    1    6 1
   3    1    9 1
   4    2    3 1
   5    2    7 1
   6    3    4 2
   7    3   27 1
   8    4    5 1
   9    4   11 1
  10    5    6 am
  11    5   10 2
  12    6   29 1
  13    7    8 2
  14    7   19 1
  15    8    9 1
  16    8   28 1
  17   11   12 ar
  18   11   16 ar
  19   12   13 ar
  20   12   30 1
  21   13   14 ar
  22   13   17 1
  23   14   15 ar
  24   14   31 1
  25   15   16 ar
  26   15   32 1
  27   16   33 1
  28   17   18 3
  29   19   20 ar
  30   19   24 ar
  31   20   21 ar
  32   20   26 1
  33   21   22 ar
  34   21   34 1
  35   22   23 ar
  36   22   25 1
  37   23   24 ar
  38   23   35 1
  39   24   36 1
  40   25   37 1
  41   25   38 1
  42   25   39 1
  43   26   40 1
  44   27   41 1

#	End of record

