#	Name: ASD01913195
#	Creating user name:	WinNT
#	Creation time:	15. 06. 2019 20:01

#	Modifying user name:	WinNT
#	Modification time:	15. 06. 2019 20:01

#	Program:	/corina/corina34_cracker 3.40 0067  02.08.2006

@<TRIPOS>MOLECULE
ASD01913195
  48   51    0    0    0
SMALL
NO_CHARGES


@<TRIPOS>ATOM
   1 C1             0.0025     1.3903     0.5371 C.3     
   2 N2             0.0072    -0.0474     0.2490 N.am    
   3 C3             1.4076    -0.4818     0.2736 C.3     
   4 C4             2.2566     0.7251     0.5834 C.ar    
   5 C5             3.6271     0.8652     0.7204 C.ar    
   6 C6             4.1715     2.1009     1.0118 C.ar    
   7 C7             3.3468     3.1997     1.1665 C.ar    
   8 C8             1.9793     3.0607     1.0295 C.ar    
   9 C9             1.4330     1.8224     0.7379 C.ar    
  10 C10            5.6636     2.2511     1.1615 C.3     
  11 C11           -1.0694    -0.8216     0.0083 C.2     
  12 C12           -2.4278    -0.2573     0.1356 C.ar    
  13 C13           -3.5410    -1.0909     0.0376 C.ar    
  14 C14           -4.8202    -0.5527     0.1591 C.ar    
  15 C15           -4.9785     0.8256     0.3795 C.ar    
  16 C16           -3.8634     1.6455     0.4749 C.ar    
  17 C17           -2.5977     1.1125     0.3605 C.ar    
  18 O18           -0.9221    -1.9847    -0.3139 O.2     
  19 C19           -5.9694    -1.4012     0.0592 C.1     
  20 C20           -6.9115    -2.0969    -0.0226 C.1     
  21 C21           -8.0607    -2.9454    -0.1225 C.ar    
  22 C22           -9.3407    -2.3975     0.0006 C.ar    
  23 C23          -10.4397    -3.2307    -0.0983 C.ar    
  24 C24          -10.2278    -4.5856    -0.3170 C.ar    
  25 C25           -8.9346    -5.0619    -0.4292 C.ar    
  26 N26           -7.9028    -4.2482    -0.3370 N.ar    
  27 O27           -6.2214     1.3548     0.4985 O.3     
  28 C28           -6.3079     2.7637     0.7216 C.3     
  29 H29           -0.4334     1.9337    -0.3013 H       
  30 H30           -0.5725     1.5837     1.4428 H       
  31 H31            1.5461    -1.2389     1.0454 H       
  32 H32            1.6851    -0.8890    -0.6987 H       
  33 H33            4.2715     0.0070     0.5996 H       
  34 H34            3.7715     4.1662     1.3947 H       
  35 H35            1.3352     3.9191     1.1508 H       
  36 H36            6.1038     2.4887     0.1931 H       
  37 H37            5.8790     3.0548     1.8656 H       
  38 H38            6.0870     1.3183     1.5341 H       
  39 H39           -3.4122    -2.1496    -0.1323 H       
  40 H40           -3.9876     2.7049     0.6440 H       
  41 H41           -1.7339     1.7557     0.4405 H       
  42 H42           -9.4694    -1.3388     0.1708 H       
  43 H43          -11.4410    -2.8364    -0.0070 H       
  44 H44          -11.0661    -5.2617    -0.3985 H       
  45 H45           -8.7682    -6.1154    -0.5994 H       
  46 H46           -7.3553     3.0558     0.7978 H       
  47 H47           -5.7917     3.0173     1.6475 H       
  48 H48           -5.8429     3.2925    -0.1103 H       
@<TRIPOS>BOND
   1    1    2 1
   2    1    9 1
   3    1   29 1
   4    1   30 1
   5    2    3 1
   6    2   11 am
   7    3    4 1
   8    3   31 1
   9    3   32 1
  10    4    5 ar
  11    4    9 ar
  12    5    6 ar
  13    5   33 1
  14    6    7 ar
  15    6   10 1
  16    7    8 ar
  17    7   34 1
  18    8    9 ar
  19    8   35 1
  20   10   36 1
  21   10   37 1
  22   10   38 1
  23   11   12 1
  24   11   18 2
  25   12   13 ar
  26   12   17 ar
  27   13   14 ar
  28   13   39 1
  29   14   15 ar
  30   14   19 1
  31   15   16 ar
  32   15   27 1
  33   16   17 ar
  34   16   40 1
  35   17   41 1
  36   19   20 3
  37   20   21 1
  38   21   22 ar
  39   21   26 ar
  40   22   23 ar
  41   22   42 1
  42   23   24 ar
  43   23   43 1
  44   24   25 ar
  45   24   44 1
  46   25   26 ar
  47   25   45 1
  48   27   28 1
  49   28   46 1
  50   28   47 1
  51   28   48 1

#	End of record

