#	Name: ASD01478022
#	Creating user name:	WinNT
#	Creation time:	15. 06. 2019 19:21

#	Modifying user name:	WinNT
#	Modification time:	15. 06. 2019 19:21

#	Program:	/corina/corina34_cracker 3.40 0067  02.08.2006

@<TRIPOS>MOLECULE
ASD01478022
  81   84    0    0    0
SMALL
NO_CHARGES


@<TRIPOS>ATOM
   1 C1            -0.5116     1.5360    -1.8902 C.3     
   2 C2             1.6181     2.2835    -2.6657 C.2     
   3 O3             0.7701     2.1654    -1.6267 O.3     
   4 N4             2.8243     2.8583    -2.4891 N.am    
   5 O5             1.2961     1.8719    -3.7627 O.2     
   6 C6             3.4190     4.2590    -4.4037 C.3     
   7 C7             3.7471     2.9868    -3.6196 C.3     
   8 C8             5.1837     3.0648    -3.0990 C.3     
   9 C9             6.1549     3.0734    -4.2813 C.3     
  10 N10            7.5313     3.0160    -3.7830 N.am    
  11 S11            8.5527     4.2972    -4.0225 S.o2    
  12 C12            8.3740     5.3726    -2.6381 C.ar    
  13 C13            9.1772     5.2043    -1.5254 C.ar    
  14 C14            9.0391     6.0461    -0.4387 C.ar    
  15 C15            8.0935     7.0609    -0.4647 C.ar    
  16 C16            7.2888     7.2276    -1.5824 C.ar    
  17 C17            7.4347     6.3867    -2.6687 C.ar    
  18 O18            9.8729     3.7756    -3.9576 O.2     
  19 O19            8.0513     5.0052    -5.1479 O.2     
  20 C20            8.0042     1.8250    -3.0729 C.3     
  21 C21            8.0622     0.6427    -4.0422 C.3     
  22 C22            9.0823     0.9361    -5.1441 C.3     
  23 C23            8.4795    -0.6188    -3.2836 C.3     
  24 O24            5.3500     4.2624    -2.3373 O.3     
  25 C25           -0.4064     0.0163    -1.6679 C.3     
  26 O26           -0.1473    -0.2991    -0.3037 O.3     
  27 C27           -1.0586     0.2388     0.6695 C.3     
  28 C28           -1.0260     1.7493     0.5142 C.3     
  29 C29           -1.5510     2.0530    -0.9180 C.3     
  30 C30           -2.0512     2.5308     1.3474 C.3     
  31 C31           -2.2329     3.8194     0.4974 C.3     
  32 N32           -1.8276     3.4824    -0.8935 N.3     
  33 O33            7.9553     7.8899     0.6032 O.3     
  34 C34            6.9616     8.9123     0.5066 C.3     
  35 C35            2.0496     4.1304    -5.0195 C.ar    
  36 C36            0.9346     4.5514    -4.3193 C.ar    
  37 C37           -0.3216     4.4334    -4.8841 C.ar    
  38 C38           -0.4627     3.8948    -6.1494 C.ar    
  39 C39            0.6524     3.4745    -6.8499 C.ar    
  40 C40            1.9090     3.5965    -6.2869 C.ar    
  41 H41           -0.8233     1.7416    -2.9143 H       
  42 H42            3.0814     3.1869    -1.6134 H       
  43 H43            3.4354     5.1155    -3.7298 H       
  44 H44            4.1594     4.4017    -5.1909 H       
  45 H45            3.6440     2.1205    -4.2731 H       
  46 H46            5.3885     2.2008    -2.4669 H       
  47 H47            5.9619     2.2087    -4.9162 H       
  48 H48            6.0155     3.9869    -4.8593 H       
  49 H49            9.9130     4.4139    -1.5055 H       
  50 H50            9.6664     5.9140     0.4304 H       
  51 H51            6.5520     8.0168    -1.6050 H       
  52 H52            6.8086     6.5161    -3.5391 H       
  53 H53            8.9992     2.0135    -2.6698 H       
  54 H54            7.3196     1.5928    -2.2570 H       
  55 H55            7.0794     0.4900    -4.4883 H       
  56 H56           10.0651     1.0888    -4.6980 H       
  57 H57            9.1237     0.0938    -5.8346 H       
  58 H58            8.7850     1.8348    -5.6845 H       
  59 H59            7.7527    -0.8278    -2.4986 H       
  60 H60            8.5208    -1.4611    -3.9742 H       
  61 H61            9.4623    -0.4661    -2.8375 H       
  62 H62            5.1833     5.0730    -2.8376 H       
  63 H63           -1.3429    -0.4528    -1.9697 H       
  64 H64            0.4018    -0.3780    -2.2838 H       
  65 H65           -2.0659    -0.1333     0.4823 H       
  66 H66           -0.7382    -0.0394     1.6735 H       
  67 H67           -0.0161     2.1345     0.6551 H       
  68 H68           -2.4877     1.5185    -1.0759 H       
  69 H69           -2.9889     1.9811     1.4280 H       
  70 H70           -1.6531     2.7673     2.3342 H       
  71 H71           -3.2767     4.1328     0.5152 H       
  72 H72           -1.5983     4.6151     0.8875 H       
  73 H73           -1.0157     4.0127    -1.1720 H       
  74 H74            7.1883     9.5604    -0.3400 H       
  75 H75            5.9827     8.4550     0.3622 H       
  76 H76            6.9559     9.5013     1.4237 H       
  77 H77            1.0448     4.9723    -3.3308 H       
  78 H78           -1.1928     4.7618    -4.3368 H       
  79 H79           -1.4442     3.8019    -6.5904 H       
  80 H80            0.5422     3.0534    -7.8383 H       
  81 H81            2.7806     3.2717    -6.8357 H       
@<TRIPOS>BOND
   1    1   25 1
   2    1    3 1
   3    1   29 1
   4    1   41 1
   5    2    3 1
   6    2    4 am
   7    2    5 2
   8    4    7 1
   9    4   42 1
  10    6    7 1
  11    6   35 1
  12    6   43 1
  13    6   44 1
  14    7    8 1
  15    7   45 1
  16    8    9 1
  17    8   24 1
  18    8   46 1
  19    9   10 1
  20    9   47 1
  21    9   48 1
  22   10   11 am
  23   10   20 1
  24   11   12 1
  25   11   18 2
  26   11   19 2
  27   12   13 ar
  28   12   17 ar
  29   13   14 ar
  30   13   49 1
  31   14   15 ar
  32   14   50 1
  33   15   16 ar
  34   15   33 1
  35   16   17 ar
  36   16   51 1
  37   17   52 1
  38   20   21 1
  39   20   53 1
  40   20   54 1
  41   21   22 1
  42   21   23 1
  43   21   55 1
  44   22   56 1
  45   22   57 1
  46   22   58 1
  47   23   59 1
  48   23   60 1
  49   23   61 1
  50   24   62 1
  51   25   26 1
  52   25   63 1
  53   25   64 1
  54   26   27 1
  55   27   28 1
  56   27   65 1
  57   27   66 1
  58   28   29 1
  59   28   30 1
  60   28   67 1
  61   29   32 1
  62   29   68 1
  63   30   31 1
  64   30   69 1
  65   30   70 1
  66   31   32 1
  67   31   71 1
  68   31   72 1
  69   32   73 1
  70   33   34 1
  71   34   74 1
  72   34   75 1
  73   34   76 1
  74   35   36 ar
  75   35   40 ar
  76   36   37 ar
  77   36   77 1
  78   37   38 ar
  79   37   78 1
  80   38   39 ar
  81   38   79 1
  82   39   40 ar
  83   39   80 1
  84   40   81 1

#	End of record

