#	Name: ASD01008003
#	Creating user name:	WinNT
#	Creation time:	15. 06. 2019 18:55

#	Modifying user name:	WinNT
#	Modification time:	15. 06. 2019 18:55

#	Program:	/corina/corina34_cracker 3.40 0067  02.08.2006

@<TRIPOS>MOLECULE
ASD01008003
  50   53    0    0    0
SMALL
NO_CHARGES


@<TRIPOS>ATOM
   1 C1             0.2605     1.2156    -0.1331 C.2     
   2 N2             0.3493    -0.1494    -0.0596 N.pl3   
   3 C3             1.6845    -0.4850     0.1610 C.ar    
   4 C4             2.4100     0.7092     0.2206 C.ar    
   5 N5             1.5105     1.7508     0.0362 N.pl3   
   6 C6             2.3332    -1.6965     0.3142 C.ar    
   7 C7             3.7137    -1.7221     0.5283 C.ar    
   8 C8             4.4332    -0.5241     0.5867 C.ar    
   9 C9             3.7838     0.6798     0.4338 C.ar    
  10 C10            4.4113    -3.0108     0.6928 C.2     
  11 O11            3.7856    -4.0512     0.6423 O.2     
  12 O12            5.7427    -3.0347     0.8992 O.3     
  13 C13            1.8414     3.1779     0.0242 C.3     
  14 C14            1.7936     3.7165     1.4309 C.ar    
  15 C15            2.1712     5.0221     1.6845 C.ar    
  16 C16            2.1274     5.5160     2.9746 C.ar    
  17 C17            1.7055     4.7046     4.0115 C.ar    
  18 C18            1.3271     3.3997     3.7579 C.ar    
  19 C19            1.3668     2.9069     2.4667 C.ar    
  20 C20            2.6310     5.9065     0.5542 C.3     
  21 F21            2.9327     7.1791     1.0510 F       
  22 F22            3.7726     5.3535    -0.0358 F       
  23 F23            1.6146     6.0080    -0.4017 F       
  24 N24           -0.8433     1.9003    -0.3384 N.2     
  25 C25           -2.0361     1.2452    -0.4989 C.ar    
  26 C26           -3.1778     1.6968     0.1657 C.ar    
  27 C27           -4.3772     1.0348     0.0018 C.ar    
  28 C28           -4.4507    -0.0790    -0.8217 C.ar    
  29 C29           -3.3175    -0.5332    -1.4853 C.ar    
  30 C30           -2.1143     0.1278    -1.3319 C.ar    
  31 O31           -5.6356    -0.7287    -0.9797 O.3     
  32 C32           -6.7605    -0.2089    -0.2682 C.3     
  33 F33           -3.3939    -1.6187    -2.2860 F       
  34 H34           -0.3882    -0.7736    -0.1455 H       
  35 H35            1.7747    -2.6198     0.2689 H       
  36 H36            5.5002    -0.5438     0.7525 H       
  37 H37            4.3422     1.6031     0.4794 H       
  38 H38            6.1557    -3.9031     1.0013 H       
  39 H39            2.8428     3.3153    -0.3836 H       
  40 H40            1.1207     3.7128    -0.5943 H       
  41 H41            2.4230     6.5357     3.1727 H       
  42 H42            1.6719     5.0903     5.0197 H       
  43 H43            0.9979     2.7658     4.5679 H       
  44 H44            1.0677     1.8884     2.2680 H       
  45 H45           -3.1221     2.5634     0.8078 H       
  46 H46           -5.2604     1.3842     0.5160 H       
  47 H47           -1.2347    -0.2221    -1.8518 H       
  48 H48           -6.5551    -0.2306     0.8021 H       
  49 H49           -6.9457     0.8184    -0.5818 H       
  50 H50           -7.6388    -0.8181    -0.4820 H       
@<TRIPOS>BOND
   1    1    2 1
   2    1    5 1
   3    1   24 2
   4    2    3 1
   5    2   34 1
   6    3    4 ar
   7    3    6 ar
   8    4    5 1
   9    4    9 ar
  10    5   13 1
  11    6    7 ar
  12    6   35 1
  13    7    8 ar
  14    7   10 1
  15    8    9 ar
  16    8   36 1
  17    9   37 1
  18   10   11 2
  19   10   12 1
  20   12   38 1
  21   13   14 1
  22   13   39 1
  23   13   40 1
  24   14   15 ar
  25   14   19 ar
  26   15   16 ar
  27   15   20 1
  28   16   17 ar
  29   16   41 1
  30   17   18 ar
  31   17   42 1
  32   18   19 ar
  33   18   43 1
  34   19   44 1
  35   20   21 1
  36   20   22 1
  37   20   23 1
  38   24   25 1
  39   25   26 ar
  40   25   30 ar
  41   26   27 ar
  42   26   45 1
  43   27   28 ar
  44   27   46 1
  45   28   29 ar
  46   28   31 1
  47   29   30 ar
  48   29   33 1
  49   30   47 1
  50   31   32 1
  51   32   48 1
  52   32   49 1
  53   32   50 1

#	End of record

