#	Name: ASD01209020
#	Creating user name:	WinNT
#	Creation time:	15. 06. 2019 19:10

#	Modifying user name:	WinNT
#	Modification time:	15. 06. 2019 19:10

#	Program:	/corina/corina34_cracker 3.40 0067  02.08.2006

@<TRIPOS>MOLECULE
ASD01209020
  58   62    0    0    0
SMALL
NO_CHARGES


@<TRIPOS>ATOM
   1 S1            -0.4173     0.7608     0.5764 S.o2    
   2 C2            -3.5993    -0.9222    -5.3812 C.3     
   3 C3            -4.9457    -0.4435    -4.8346 C.3     
   4 C4            -4.7593     0.8977    -4.1223 C.3     
   5 C5            -6.1029     1.4319    -3.6976 C.2     
   6 O6            -6.3701     1.5334    -2.5190 O.2     
   7 N7            -3.9129     0.7099    -2.9414 N.pl3   
   8 C8            -2.7097     1.3273    -2.7192 C.ar    
   9 C9            -2.2406     0.8648    -1.4742 C.ar    
  10 C10           -3.2478    -0.0668    -0.9770 C.2     
  11 N11           -4.2062    -0.1236    -1.8571 N.2     
  12 N12           -7.0075     1.7970    -4.6276 N.am    
  13 C13           -1.9469     2.2417    -3.4408 C.ar    
  14 C14           -0.7550     2.6805    -2.9371 C.ar    
  15 C15           -0.2907     2.2256    -1.7093 C.ar    
  16 C16           -1.0175     1.3300    -0.9793 C.ar    
  17 C17           -8.2116     2.3858    -4.2368 C.ar    
  18 C18           -1.6162     1.3919     1.7826 C.3     
  19 C19           -1.3135     1.1644     3.2650 C.3     
  20 C20           -1.1814     2.5649     2.6634 C.3     
  21 O21           -0.4985    -0.6551     0.4866 O.2     
  22 O22            0.8351     1.4145     0.7293 O.2     
  23 C23           -3.7543    -2.3301    -5.9645 C.3     
  24 C24           -2.4226    -2.7689    -6.5790 C.3     
  25 O25           -2.0267    -1.8264    -7.5775 O.3     
  26 C26           -1.8206    -0.5023    -7.0811 C.3     
  27 C27           -3.1281     0.0276    -6.4868 C.3     
  28 C28           -9.1885     2.6557    -5.1909 C.ar    
  29 C29          -10.3789     3.2403    -4.7895 C.ar    
  30 C30          -10.5504     3.5353    -3.4424 C.ar    
  31 C31           -9.5358     3.2388    -2.5505 C.ar    
  32 N32           -8.4153     2.6769    -2.9624 N.ar    
  33 F33           -8.9787     2.3523    -6.4906 F       
  34 F34          -11.6956     4.1059    -3.0088 F       
  35 H35           -2.8645    -0.9399    -4.5763 H       
  36 H36           -5.6499    -0.3229    -5.6578 H       
  37 H37           -5.3337    -1.1786    -4.1294 H       
  38 H38           -4.2844     1.6064    -4.8007 H       
  39 H39           -3.2078    -0.6088    -0.0437 H       
  40 H40           -6.8220     1.6506    -5.5684 H       
  41 H41           -2.2963     2.6031    -4.3967 H       
  42 H42           -0.1666     3.3895    -3.5004 H       
  43 H43            0.6540     2.5846    -1.3284 H       
  44 H44           -2.6600     1.3561     1.4708 H       
  45 H45           -2.1582     0.9792     3.9285 H       
  46 H46           -0.3939     0.6355     3.5155 H       
  47 H47           -0.1750     2.9574     2.5181 H       
  48 H48           -1.9392     3.3012     2.9312 H       
  49 H49           -4.0360    -3.0236    -5.1722 H       
  50 H50           -4.5258    -2.3224    -6.7345 H       
  51 H51           -1.6609    -2.8154    -5.8007 H       
  52 H52           -2.5386    -3.7528    -7.0335 H       
  53 H53           -1.0510    -0.5191    -6.3093 H       
  54 H54           -1.5030     0.1466    -7.8973 H       
  55 H55           -3.8870     0.0829    -7.2673 H       
  56 H56           -2.9620     1.0201    -6.0680 H       
  57 H57          -11.1552     3.4618    -5.5069 H       
  58 H58           -9.6641     3.4660    -1.5025 H       
@<TRIPOS>BOND
   1    1   21 2
   2    1   22 2
   3    1   16 1
   4    1   18 1
   5    2    3 1
   6    2   23 1
   7    2   27 1
   8    2   35 1
   9    3    4 1
  10    3   36 1
  11    3   37 1
  12    4    7 1
  13    4    5 1
  14    4   38 1
  15    5    6 2
  16    5   12 am
  17    7    8 1
  18    7   11 1
  19    8    9 ar
  20    8   13 ar
  21    9   10 1
  22    9   16 ar
  23   10   11 2
  24   10   39 1
  25   12   17 1
  26   12   40 1
  27   13   14 ar
  28   13   41 1
  29   14   15 ar
  30   14   42 1
  31   15   16 ar
  32   15   43 1
  33   17   28 ar
  34   17   32 ar
  35   18   19 1
  36   18   20 1
  37   18   44 1
  38   19   20 1
  39   19   45 1
  40   19   46 1
  41   20   47 1
  42   20   48 1
  43   23   24 1
  44   23   49 1
  45   23   50 1
  46   24   25 1
  47   24   51 1
  48   24   52 1
  49   25   26 1
  50   26   27 1
  51   26   53 1
  52   26   54 1
  53   27   55 1
  54   27   56 1
  55   28   29 ar
  56   28   33 1
  57   29   30 ar
  58   29   57 1
  59   30   31 ar
  60   30   34 1
  61   31   32 ar
  62   31   58 1

#	End of record

