#	Name: ASD01913159
#	Creating user name:	WinNT
#	Creation time:	15. 06. 2019 20:01

#	Modifying user name:	WinNT
#	Modification time:	15. 06. 2019 20:01

#	Program:	/corina/corina34_cracker 3.40 0067  02.08.2006

@<TRIPOS>MOLECULE
ASD01913159
  45   47    0    0    0
SMALL
NO_CHARGES


@<TRIPOS>ATOM
   1 C1            -0.0710     1.1597    -0.0467 C.ar    
   2 C2            -0.0214    -0.2215    -0.0863 C.ar    
   3 C3             1.1983    -0.8699    -0.1030 C.ar    
   4 C4             2.3741    -0.1339    -0.0801 C.ar    
   5 C5             2.3217     1.2519    -0.0404 C.ar    
   6 C6             1.0994     1.8955    -0.0238 C.ar    
   7 O7             3.5753    -0.7694    -0.0960 O.3     
   8 C8             4.7442     0.0521    -0.0706 C.3     
   9 C9             5.9911    -0.8343    -0.0936 C.3     
  10 C10            7.2239     0.0321    -0.0669 C.2     
  11 N11            8.4465    -0.5350    -0.0808 N.am    
  12 C12            9.6625     0.2919    -0.0553 C.3     
  13 C13           10.5753    -0.2193     1.0644 C.3     
  14 N14           10.8067    -1.6587     0.8844 N.3     
  15 C15            9.5547    -2.4183     1.0002 C.3     
  16 C16            8.6000    -1.9974    -0.1159 C.3     
  17 O17            7.1159     1.2396    -0.0328 O.2     
  18 C18           11.7632    -2.1291     1.7882 C.ar    
  19 C19           11.3960    -3.0160     2.7912 C.ar    
  20 C20           12.3441    -3.4796     3.6829 C.ar    
  21 C21           13.6576    -3.0611     3.5779 C.ar    
  22 C22           14.0276    -2.1773     2.5804 C.ar    
  23 C23           13.0860    -1.7144     1.6815 C.ar    
  24 Cl24          13.5509    -0.6055     0.4293 Cl      
  25 H25           -1.0256     1.6649    -0.0382 H       
  26 H26           -0.9371    -0.7940    -0.1037 H       
  27 H27            1.2365    -1.9487    -0.1335 H       
  28 H28            3.2356     1.8270    -0.0221 H       
  29 H29            1.0581     2.9742     0.0071 H       
  30 H30            4.7475     0.7064    -0.9424 H       
  31 H31            4.7444     0.6559     0.8368 H       
  32 H32            5.9879    -1.4886     0.7782 H       
  33 H33            5.9910    -1.4381    -1.0011 H       
  34 H34           10.1783     0.2143    -1.0124 H       
  35 H35            9.3947     1.3310     0.1363 H       
  36 H36           11.5277     0.3096     1.0273 H       
  37 H37           10.0996    -0.0452     2.0295 H       
  38 H38            9.7668    -3.4841     0.9165 H       
  39 H39            9.0931    -2.2136     1.9662 H       
  40 H40            7.6304    -2.4726     0.0330 H       
  41 H41            9.0116    -2.2933    -1.0808 H       
  42 H42           10.3701    -3.3430     2.8746 H       
  43 H43           12.0587    -4.1695     4.4632 H       
  44 H44           14.3963    -3.4250     4.2766 H       
  45 H45           15.0545    -1.8521     2.5014 H       
@<TRIPOS>BOND
   1    1    2 ar
   2    1    6 ar
   3    1   25 1
   4    2    3 ar
   5    2   26 1
   6    3    4 ar
   7    3   27 1
   8    4    5 ar
   9    4    7 1
  10    5    6 ar
  11    5   28 1
  12    6   29 1
  13    7    8 1
  14    8    9 1
  15    8   30 1
  16    8   31 1
  17    9   10 1
  18    9   32 1
  19    9   33 1
  20   10   11 am
  21   10   17 2
  22   11   12 1
  23   11   16 1
  24   12   13 1
  25   12   34 1
  26   12   35 1
  27   13   14 1
  28   13   36 1
  29   13   37 1
  30   14   15 1
  31   14   18 1
  32   15   16 1
  33   15   38 1
  34   15   39 1
  35   16   40 1
  36   16   41 1
  37   18   19 ar
  38   18   23 ar
  39   19   20 ar
  40   19   42 1
  41   20   21 ar
  42   20   43 1
  43   21   22 ar
  44   21   44 1
  45   22   23 ar
  46   22   45 1
  47   23   24 1

#	End of record

