#	Name: ASD01813539
#	Creating user name:	WinNT
#	Creation time:	15. 06. 2019 19:30

#	Modifying user name:	WinNT
#	Modification time:	15. 06. 2019 19:30

#	Program:	/corina/corina34_cracker 3.40 0067  02.08.2006

@<TRIPOS>MOLECULE
ASD01813539
  59   63    0    0    0
SMALL
NO_CHARGES


@<TRIPOS>ATOM
   1 C1            -0.0184     1.5028     0.0103 C.3     
   2 C2             0.0021    -0.0041     0.0020 C.ar    
   3 C3             0.0056    -0.6830    -1.2091 C.ar    
   4 C4            -0.0110     0.0932    -2.5007 C.3     
   5 C5             1.3976     0.4773    -2.8741 C.ar    
   6 C6             1.9388     1.6748    -2.4275 C.ar    
   7 C7             3.2357     1.9905    -2.7926 C.ar    
   8 C8             3.9499     1.1002    -3.5919 C.ar    
   9 N9             3.3956    -0.0349    -3.9980 N.ar    
  10 C10            2.1646    -0.3622    -3.6598 C.ar    
  11 C11            5.3408     1.4242    -3.9923 C.2     
  12 C12            6.0620     2.5814    -3.6368 C.2     
  13 N13            7.2475     2.5030    -4.1799 N.2     
  14 N14            7.3302     1.3037    -4.8975 N.pl3   
  15 C15            8.4936     0.8344    -5.6541 C.3     
  16 C16            6.1579     0.6529    -4.7678 C.2     
  17 C17            0.0247    -2.0606    -1.2402 C.ar    
  18 C18            0.0405    -2.7739    -0.0439 C.ar    
  19 C19            0.0616    -4.2440    -0.0149 C.2     
  20 O20            0.0662    -4.8968    -1.0423 O.2     
  21 N21            0.0763    -4.8430     1.1987 N.am    
  22 C22            0.0714    -4.1007     2.3366 C.2     
  23 N23            0.0525    -2.8025     2.3423 N.2     
  24 C24            0.0369    -2.0864     1.1903 C.ar    
  25 C25            0.0227    -0.6904     1.1957 C.ar    
  26 C26            0.0243     0.0617     2.5015 C.3     
  27 C27            0.0971    -6.3052     1.2862 C.3     
  28 H28            0.1105    -6.7386     0.2861 H       
  29 C29            1.3357    -6.7695     2.0800 C.3     
  30 C30            0.8112    -6.9607     3.5247 C.3     
  31 C31           -0.6014    -7.5548     3.2997 C.3     
  32 C32           -1.1352    -6.8046     2.0606 C.3     
  33 H33           -1.7488    -5.9589     2.3714 H       
  34 O34           -1.9011    -7.6914     1.2427 O.3     
  35 H35            1.0042     1.8801     0.0026 H       
  36 H36           -0.5455     1.8639    -0.8728 H       
  37 H37           -0.5286     1.8543     0.9071 H       
  38 H38           -0.4407    -0.5238    -3.2899 H       
  39 H39           -0.6122     0.9938    -2.3756 H       
  40 H40            1.3606     2.3454    -1.8091 H       
  41 H41            3.6879     2.9143    -2.4631 H       
  42 H42            1.7480    -1.2969    -4.0049 H       
  43 H43            5.6980     3.3919    -3.0227 H       
  44 H44            9.1352     0.2408    -5.0028 H       
  45 H45            8.1595     0.2218    -6.4914 H       
  46 H46            9.0519     1.6914    -6.0309 H       
  47 H47            5.9086    -0.3045    -5.2011 H       
  48 H48            0.0270    -2.5833    -2.1853 H       
  49 H49            0.0835    -4.6170     3.2851 H       
  50 H50           -1.0028     0.2287     2.8259 H       
  51 H51            0.5534    -0.5209     3.2557 H       
  52 H52            0.5236     1.0213     2.3675 H       
  53 H53            1.7120    -7.7123     1.6828 H       
  54 H54            2.1134    -6.0062     2.0543 H       
  55 H55            1.4411    -7.6597     4.0750 H       
  56 H56            0.7498    -6.0039     4.0432 H       
  57 H57           -0.5380    -8.6243     3.0996 H       
  58 H58           -1.2374    -7.3645     4.1643 H       
  59 H59           -2.6923    -8.0407     1.6752 H       
@<TRIPOS>BOND
   1    1    2 1
   2    1   35 1
   3    1   36 1
   4    1   37 1
   5    2   25 ar
   6    2    3 ar
   7    3    4 1
   8    3   17 ar
   9    4    5 1
  10    4   38 1
  11    4   39 1
  12    5   10 ar
  13    5    6 ar
  14    6    7 ar
  15    6   40 1
  16    7    8 ar
  17    7   41 1
  18    8    9 ar
  19    8   11 1
  20    9   10 ar
  21   10   42 1
  22   11   16 2
  23   11   12 1
  24   12   13 2
  25   12   43 1
  26   13   14 1
  27   14   15 1
  28   14   16 1
  29   15   44 1
  30   15   45 1
  31   15   46 1
  32   16   47 1
  33   17   18 ar
  34   17   48 1
  35   18   24 ar
  36   18   19 1
  37   19   20 2
  38   19   21 am
  39   21   22 1
  40   21   27 1
  41   22   23 2
  42   22   49 1
  43   23   24 1
  44   24   25 ar
  45   25   26 1
  46   26   50 1
  47   26   51 1
  48   26   52 1
  49   27   28 1
  50   27   32 1
  51   27   29 1
  52   29   30 1
  53   29   53 1
  54   29   54 1
  55   30   31 1
  56   30   55 1
  57   30   56 1
  58   31   32 1
  59   31   57 1
  60   31   58 1
  61   32   33 1
  62   32   34 1
  63   34   59 1

#	End of record

