#	Name: ASD08070106
#	Creating user name:	WinNT
#	Creation time:	15. 06. 2019 21:14

#	Modifying user name:	WinNT
#	Modification time:	15. 06. 2019 21:14

#	Program:	/corina/corina34_cracker 3.40 0067  02.08.2006

@<TRIPOS>MOLECULE
ASD08070106
  45   46    0    0    0
SMALL
NO_CHARGES


@<TRIPOS>ATOM
   1 C1            -0.0166     1.3732     0.0096 C.ar    
   2 C2             0.0021    -0.0041     0.0020 C.ar    
   3 C3             1.1757     2.0864     0.0020 C.ar    
   4 C4             2.3930     1.4130    -0.0132 C.ar    
   5 C5             2.4198     0.0355    -0.0213 C.ar    
   6 C6             1.2221    -0.6846    -0.0133 C.ar    
   7 C7             1.2460    -2.1604    -0.0214 C.2     
   8 N8             0.0899    -2.8532    -0.0137 N.am    
   9 C9             0.2334    -4.8181    -1.4627 C.3     
  10 O10            2.3086    -2.7511    -0.0351 O.2     
  11 O11            1.1529     3.4435     0.0091 O.3     
  12 C12           -0.9644    -4.3230    -2.2756 C.3     
  13 Cl13           3.8797     2.3094    -0.0226 Cl      
  14 C14            0.1137    -4.3179    -0.0217 C.3     
  15 C15           -1.1791    -4.8524     0.5979 C.3     
  16 C16           -2.3770    -4.3573    -0.2151 C.3     
  17 C17           -2.2573    -4.8575    -1.6560 C.3     
  18 C18           -0.1311     4.0706     0.0242 C.3     
  19 C19           -1.2971    -4.3597     2.0172 C.2     
  20 O20           -0.4355    -3.6536     2.4851 O.2     
  21 O21           -2.3593    -4.7054     2.7615 O.3     
  22 C22           -2.4067    -4.1944     4.1198 C.3     
  23 C23           -3.6805    -4.6904     4.8071 C.3     
  24 H24           -0.9596     1.8996     0.0169 H       
  25 H25           -0.9254    -0.5573     0.0082 H       
  26 H26            3.3649    -0.4869    -0.0338 H       
  27 H27           -0.7578    -2.3819    -0.0027 H       
  28 H28            0.2511    -5.9080    -1.4687 H       
  29 H29            1.1544    -4.4374    -1.9041 H       
  30 H30           -0.9821    -3.2332    -2.2696 H       
  31 H31           -0.8791    -4.6794    -3.3022 H       
  32 H32            0.9671    -4.6707     0.5574 H       
  33 H33           -1.1615    -5.9422     0.5919 H       
  34 H34           -3.2980    -4.7380     0.2264 H       
  35 H35           -2.3947    -3.2674    -0.2090 H       
  36 H36           -3.1106    -4.5047    -2.2352 H       
  37 H37           -2.2396    -5.9473    -1.6620 H       
  38 H38           -0.6913     3.7729    -0.8621 H       
  39 H39           -0.6747     3.7639     0.9178 H       
  40 H40           -0.0065     5.1535     0.0285 H       
  41 H41           -1.5353    -4.5472     4.6714 H       
  42 H42           -2.4064    -3.1046     4.0982 H       
  43 H43           -3.6809    -5.7802     4.8286 H       
  44 H44           -3.7162    -4.3068     5.8267 H       
  45 H45           -4.5519    -4.3376     4.2555 H       
@<TRIPOS>BOND
   1    1    2 ar
   2    1    3 ar
   3    1   24 1
   4    2    6 ar
   5    2   25 1
   6    3    4 ar
   7    3   11 1
   8    4    5 ar
   9    4   13 1
  10    5    6 ar
  11    5   26 1
  12    6    7 1
  13    7    8 am
  14    7   10 2
  15    8   14 1
  16    8   27 1
  17    9   12 1
  18    9   14 1
  19    9   28 1
  20    9   29 1
  21   11   18 1
  22   12   17 1
  23   12   30 1
  24   12   31 1
  25   14   15 1
  26   14   32 1
  27   15   16 1
  28   15   19 1
  29   15   33 1
  30   16   17 1
  31   16   34 1
  32   16   35 1
  33   17   36 1
  34   17   37 1
  35   18   38 1
  36   18   39 1
  37   18   40 1
  38   19   20 2
  39   19   21 1
  40   21   22 1
  41   22   23 1
  42   22   41 1
  43   22   42 1
  44   23   43 1
  45   23   44 1
  46   23   45 1

#	End of record

