#	Name: ASD01001250
#	Creating user name:	WinNT
#	Creation time:	15. 06. 2019 18:55

#	Modifying user name:	WinNT
#	Modification time:	15. 06. 2019 18:55

#	Program:	/corina/corina34_cracker 3.40 0067  02.08.2006

@<TRIPOS>MOLECULE
ASD01001250
  50   52    0    0    0
SMALL
NO_CHARGES


@<TRIPOS>ATOM
   1 C1             0.3112     1.3958    -0.3497 C.3     
   2 C2             0.0530    -0.0361     0.1235 C.3     
   3 C3             0.9402    -0.3433     1.3022 C.ar    
   4 C4            -1.3909    -0.1779     0.5311 C.ar    
   5 C5             0.7227     0.2860     2.5136 C.ar    
   6 C6             1.5365     0.0043     3.5949 C.ar    
   7 C7             2.5677    -0.9071     3.4649 C.ar    
   8 C8             2.7847    -1.5371     2.2537 C.ar    
   9 C9             1.9681    -1.2586     1.1737 C.ar    
  10 C10           -2.3608     0.5930    -0.0822 C.ar    
  11 C11           -3.6852     0.4635     0.2913 C.ar    
  12 C12           -4.0402    -0.4379     1.2790 C.ar    
  13 C13           -3.0690    -1.2091     1.8924 C.ar    
  14 C14           -1.7457    -1.0827     1.5141 C.ar    
  15 S15            0.4170    -1.1935    -1.2251 S.3     
  16 C16           -0.0954    -2.7929    -0.5397 C.3     
  17 C17            0.0854    -3.8829    -1.5981 C.3     
  18 C18           -0.3403    -5.2116    -1.0286 C.2     
  19 N19           -0.7387    -3.5667    -2.7723 N.3     
  20 O20            0.4922    -5.8968    -0.2291 O.3     
  21 O21           -1.4309    -5.6602    -1.2918 O.2     
  22 C22            1.7830     1.5791    -0.6162 C.ar    
  23 C23            2.3046     1.2681    -1.8580 C.ar    
  24 C24            3.6547     1.4362    -2.1025 C.ar    
  25 C25            4.4832     1.9158    -1.1052 C.ar    
  26 C26            3.9615     2.2276     0.1364 C.ar    
  27 C27            2.6106     2.0636     0.3794 C.ar    
  28 Cl28          -5.7034    -0.6008     1.7490 Cl      
  29 H29           -0.2499     1.5826    -1.2654 H       
  30 H30           -0.0085     2.0965     0.4216 H       
  31 H31           -0.0830     0.9981     2.6152 H       
  32 H32            1.3670     0.4965     4.5411 H       
  33 H33            3.2040    -1.1267     4.3094 H       
  34 H34            3.5906    -2.2490     2.1521 H       
  35 H35            2.1377    -1.7509     0.2274 H       
  36 H36           -2.0836     1.2969    -0.8530 H       
  37 H37           -4.4428     1.0660    -0.1876 H       
  38 H38           -3.3455    -1.9129     2.6635 H       
  39 H39           -0.9875    -1.6847     1.9929 H       
  40 H40            0.5161    -3.0275     0.3316 H       
  41 H41           -1.1437    -2.7429    -0.2451 H       
  42 H42            1.1337    -3.9329    -1.8927 H       
  43 H43           -1.7155    -3.5147    -2.5251 H       
  44 H44           -0.4306    -2.7117    -3.2107 H       
  45 H45            0.1749    -6.7442     0.1121 H       
  46 H46            1.6573     0.8935    -2.6372 H       
  47 H47            4.0624     1.1926    -3.0725 H       
  48 H48            5.5382     2.0464    -1.2959 H       
  49 H49            4.6089     2.6019     0.9156 H       
  50 H50            2.2030     2.3072     1.3494 H       
@<TRIPOS>BOND
   1    1    2 1
   2    1   22 1
   3    1   29 1
   4    1   30 1
   5    2    3 1
   6    2    4 1
   7    2   15 1
   8    3    5 ar
   9    3    9 ar
  10    4   10 ar
  11    4   14 ar
  12    5    6 ar
  13    5   31 1
  14    6    7 ar
  15    6   32 1
  16    7    8 ar
  17    7   33 1
  18    8    9 ar
  19    8   34 1
  20    9   35 1
  21   10   11 ar
  22   10   36 1
  23   11   12 ar
  24   11   37 1
  25   12   13 ar
  26   12   28 1
  27   13   14 ar
  28   13   38 1
  29   14   39 1
  30   15   16 1
  31   16   17 1
  32   16   40 1
  33   16   41 1
  34   17   18 1
  35   17   19 1
  36   17   42 1
  37   18   20 1
  38   18   21 2
  39   19   43 1
  40   19   44 1
  41   20   45 1
  42   22   23 ar
  43   22   27 ar
  44   23   24 ar
  45   23   46 1
  46   24   25 ar
  47   24   47 1
  48   25   26 ar
  49   25   48 1
  50   26   27 ar
  51   26   49 1
  52   27   50 1

#	End of record

