#	Name: ASD01209192
#	Creating user name:	WinNT
#	Creation time:	15. 06. 2019 19:11

#	Modifying user name:	WinNT
#	Modification time:	15. 06. 2019 19:11

#	Program:	/corina/corina34_cracker 3.40 0067  02.08.2006

@<TRIPOS>MOLECULE
ASD01209192
  80   82    0    0    0
SMALL
NO_CHARGES


@<TRIPOS>ATOM
   1 O1             1.1627     2.5468     0.8139 O.3     
   2 O2             3.4139     3.2052     2.0017 O.3     
   3 C3             3.4552     6.4165    -8.3267 C.ar    
   4 C4             2.5848     6.5268    -9.4012 C.ar    
   5 C5             1.2148     6.4338    -9.2018 C.ar    
   6 C6             0.7107     6.2294    -7.9282 C.ar    
   7 C7             1.5828     6.1179    -6.8444 C.ar    
   8 C8             2.9598     6.2068    -7.0502 C.ar    
   9 O9             0.3664     6.5435   -10.2578 O.3     
  10 C10            1.0493     5.9007    -5.4830 C.2     
  11 N11            1.8932     5.7933    -4.4377 N.am    
  12 O12           -0.1507     5.8190    -5.3063 O.2     
  13 C13            1.3919     5.5892    -3.1585 C.2     
  14 P14            2.5427     3.3610     0.6567 P.3     
  15 O15            3.3060     2.8213    -0.4907 O.2     
  16 C16            2.1788     5.1240     0.3692 C.3     
  17 N17            2.1137     5.4725    -2.0880 N.2     
  18 S18           -0.2672     5.4627    -2.7656 S.3     
  19 C19            0.1415     5.2373    -1.0668 C.2     
  20 C20            1.4702     5.2818    -0.9514 C.2     
  21 C21            1.1085     1.1249     0.9454 C.3     
  22 C22           -0.3496     0.6798     1.0740 C.3     
  23 C23            3.9472     1.9552     2.4431 C.3     
  24 C24            4.7186     2.1621     3.7481 C.3     
  25 O25            4.7962     6.5088    -8.5275 O.3     
  26 C26            5.6303     6.4665    -7.3680 C.3     
  27 C27            7.0352     6.0102    -7.7666 C.3     
  28 C28            5.7052     7.8608    -6.7425 C.3     
  29 C29            0.9440     6.8741   -11.5224 C.3     
  30 C30           -0.1088     7.5355   -12.4506 C.3     
  31 C31            0.4479     7.1835   -13.8527 C.3     
  32 N32            0.9987     5.8235   -13.7095 N.am    
  33 C33            1.3327     5.5966   -12.2959 C.3     
  34 O34            0.8206     5.2640   -15.9676 O.3     
  35 C35            1.0300     4.2579   -16.9934 C.3     
  36 C36            0.2149     3.0079   -16.6557 C.3     
  37 C37            0.5806     4.8093   -18.3480 C.3     
  38 C38            2.5153     3.8963   -17.0573 C.3     
  39 C39            1.1673     4.9351   -14.7089 C.2     
  40 O40            1.6322     3.8374   -14.4740 O.2     
  41 H41            2.9746     6.6859   -10.3957 H       
  42 H42           -0.3558     6.1574    -7.7739 H       
  43 H43            3.6382     6.1210    -6.2142 H       
  44 H44            2.8507     5.8585    -4.5787 H       
  45 H45            1.5419     5.4989     1.1703 H       
  46 H46            3.1107     5.6891     0.3513 H       
  47 H47           -0.5608     5.0921    -0.2593 H       
  48 H48            1.5536     0.6614     0.0649 H       
  49 H49            1.6610     0.8210     1.8345 H       
  50 H50           -0.7947     1.1433     1.9545 H       
  51 H51           -0.9021     0.9838     0.1850 H       
  52 H52           -0.3909    -0.4048     1.1743 H       
  53 H53            3.1321     1.2512     2.6106 H       
  54 H54            4.6196     1.5582     1.6826 H       
  55 H55            4.0462     2.5591     4.5086 H       
  56 H56            5.1254     1.2086     4.0849 H       
  57 H57            5.5338     2.8661     3.5806 H       
  58 H58            5.2122     5.7660    -6.6450 H       
  59 H59            7.4532     6.7107    -8.4895 H       
  60 H60            7.6714     5.9780    -6.8821 H       
  61 H61            6.9818     5.0169    -8.2122 H       
  62 H62            6.1232     8.5613    -7.4654 H       
  63 H63            4.7043     8.1859    -6.4585 H       
  64 H64            6.3414     7.8286    -5.8580 H       
  65 H65            1.8072     7.5267   -11.3917 H       
  66 H66           -1.0943     7.0951   -12.2997 H       
  67 H67           -0.1379     8.6149   -12.3015 H       
  68 H68           -0.3529     7.1926   -14.5921 H       
  69 H69            1.2343     7.8834   -14.1353 H       
  70 H70            2.4020     5.4116   -12.1927 H       
  71 H71            0.7687     4.7457   -11.9137 H       
  72 H72           -0.8433     3.2656   -16.6102 H       
  73 H73            0.3721     2.2526   -17.4257 H       
  74 H74            0.5350     2.6151   -15.6906 H       
  75 H75            1.1614     5.6998   -18.5885 H       
  76 H76            0.7379     4.0540   -19.1180 H       
  77 H77           -0.4775     5.0669   -18.3024 H       
  78 H78            2.8355     3.5035   -16.0922 H       
  79 H79            2.6726     3.1410   -17.8273 H       
  80 H80            3.0960     4.7868   -17.2978 H       
@<TRIPOS>BOND
   1    1   21 1
   2    1   14 1
   3    2   23 1
   4    2   14 1
   5    3    4 ar
   6    3   25 1
   7    3    8 ar
   8    4    5 ar
   9    4   41 1
  10    5    6 ar
  11    5    9 1
  12    6    7 ar
  13    6   42 1
  14    7    8 ar
  15    7   10 1
  16    8   43 1
  17    9   29 1
  18   10   11 am
  19   10   12 2
  20   11   13 1
  21   11   44 1
  22   13   17 2
  23   13   18 1
  24   14   15 2
  25   14   16 1
  26   16   20 1
  27   16   45 1
  28   16   46 1
  29   17   20 1
  30   18   19 1
  31   19   20 2
  32   19   47 1
  33   21   22 1
  34   21   48 1
  35   21   49 1
  36   22   50 1
  37   22   51 1
  38   22   52 1
  39   23   24 1
  40   23   53 1
  41   23   54 1
  42   24   55 1
  43   24   56 1
  44   24   57 1
  45   25   26 1
  46   26   27 1
  47   26   28 1
  48   26   58 1
  49   27   59 1
  50   27   60 1
  51   27   61 1
  52   28   62 1
  53   28   63 1
  54   28   64 1
  55   29   30 1
  56   29   33 1
  57   29   65 1
  58   30   31 1
  59   30   66 1
  60   30   67 1
  61   31   32 1
  62   31   68 1
  63   31   69 1
  64   32   33 1
  65   32   39 am
  66   33   70 1
  67   33   71 1
  68   34   35 1
  69   34   39 1
  70   35   36 1
  71   35   37 1
  72   35   38 1
  73   36   72 1
  74   36   73 1
  75   36   74 1
  76   37   75 1
  77   37   76 1
  78   37   77 1
  79   38   78 1
  80   38   79 1
  81   38   80 1
  82   39   40 2

#	End of record

