#	Name: ASD01680003
#	Creating user name:	WinNT
#	Creation time:	15. 06. 2019 19:22

#	Modifying user name:	WinNT
#	Modification time:	15. 06. 2019 19:22

#	Program:	/corina/corina34_cracker 3.40 0067  02.08.2006

@<TRIPOS>MOLECULE
ASD01680003
 112  118    0    0    0
SMALL
NO_CHARGES


@<TRIPOS>ATOM
   1 C1            -0.0822     1.2540     0.5122 C.ar    
   2 C2             0.0054     0.0162    -0.1088 C.ar    
   3 C3            -1.1143    -0.5488    -0.6914 C.ar    
   4 C4            -2.3263     0.1147    -0.6585 C.ar    
   5 C5            -2.4258     1.3536    -0.0401 C.ar    
   6 C6            -1.3026     1.9249     0.5535 C.ar    
   7 N7             1.0525     1.8251     1.1012 N.pl3   
   8 S8            -1.4215     3.4967     1.3408 S.3     
   9 C9            -1.8513     3.0657     3.0496 C.3     
  10 C10           -1.9931     4.3443     3.8778 C.3     
  11 N11           -2.3411     3.9952     5.2617 N.3     
  12 N12           -3.6547     2.0252    -0.0079 N.am    
  13 C13           -4.8056     1.3287    -0.0896 C.2     
  14 C14           -6.1025     2.0261     0.0415 C.ar    
  15 O15           -4.7773     0.1269    -0.2710 O.2     
  16 C16           -7.2932     1.3076    -0.0427 C.ar    
  17 C17           -8.5112     1.9726     0.0818 C.ar    
  18 C18           -8.5311     3.3539     0.2900 C.ar    
  19 C19           -7.3474     4.0599     0.3724 C.ar    
  20 C20           -6.1368     3.4061     0.2556 C.ar    
  21 C21           -9.7795     1.2184    -0.0066 C.2     
  22 N22          -10.9568     1.8633     0.1140 N.am    
  23 O23           -9.7606     0.0165    -0.1882 O.2     
  24 C24          -12.1582     1.1716    -0.0875 C.ar    
  25 C25          -12.1802     0.0323    -0.8806 C.ar    
  26 C26          -13.3648    -0.6511    -1.0803 C.ar    
  27 C27          -14.5341    -0.2053    -0.4916 C.ar    
  28 C28          -14.5241     0.9321     0.3031 C.ar    
  29 C29          -13.3318     1.6221     0.5122 C.ar    
  30 S30          -13.3114     3.0669     1.5206 S.3     
  31 C31          -12.9790     2.4043     3.1762 C.3     
  32 C32          -12.9294     3.5535     4.1850 C.3     
  33 N33          -12.6602     3.0169     5.5257 N.3     
  34 N34          -15.7089     1.3825     0.8981 N.pl3   
  35 C35            2.3337     1.1158     1.0622 C.3     
  36 C36            3.0349     1.4161    -0.2375 C.2     
  37 C37            3.2072     1.5759     2.2311 C.3     
  38 O38            4.2342     0.8709    -0.4946 O.3     
  39 O39            2.5174     2.1476    -1.0480 O.2     
  40 C40            2.5638     1.1659     3.5308 C.ar    
  41 C41            1.7686     2.0399     4.2060 C.ar    
  42 C42            1.1648     1.6785     5.4090 C.ar    
  43 C43            1.3533     0.4413     5.9437 C.ar    
  44 C44            2.1679    -0.4884     5.2751 C.ar    
  45 C45            2.7773    -0.1229     4.0489 C.ar    
  46 C46            2.3856    -1.7755     5.7959 C.ar    
  47 C47            3.1805    -2.6496     5.1205 C.ar    
  48 C48            3.7844    -2.2882     3.9175 C.ar    
  49 C49            3.5920    -1.0526     3.3803 C.ar    
  50 C50          -19.3013     1.1869    -1.7510 C.ar    
  51 C51          -19.8480     0.9825    -2.9805 C.ar    
  52 C52          -19.8075     1.9754    -3.9578 C.ar    
  53 C53          -19.2198     3.1778    -3.7113 C.ar    
  54 C54          -18.6450     3.4258    -2.4530 C.ar    
  55 C55          -18.6860     2.4163    -1.4593 C.ar    
  56 C56          -18.0298     4.6553    -2.1612 C.ar    
  57 C57          -17.4846     4.8602    -0.9312 C.ar    
  58 C58          -17.5250     3.8674     0.0461 C.ar    
  59 C59          -18.1111     2.6643    -0.2011 C.ar    
  60 C60          -18.1444     1.6038     0.8692 C.3     
  61 C61          -16.9606     0.6528     0.6818 C.3     
  62 C62          -17.0616    -0.4766     1.6744 C.2     
  63 O63          -18.1326    -1.2858     1.6637 O.3     
  64 O64          -16.1786    -0.6538     2.4799 O.2     
  65 H65            0.9499    -0.5067    -0.1375 H       
  66 H66           -1.0413    -1.5121    -1.1742 H       
  67 H67           -3.1974    -0.3314    -1.1152 H       
  68 H68            0.9902     2.6905     1.5350 H       
  69 H69           -2.7944     2.5194     3.0603 H       
  70 H70           -1.0653     2.4421     3.4757 H       
  71 H71           -1.0499     4.8906     3.8671 H       
  72 H72           -2.7790     4.9679     3.4518 H       
  73 H73           -2.4405     4.8234     5.8294 H       
  74 H74           -3.1782     3.4327     5.2931 H       
  75 H75           -3.6773     2.9915     0.0731 H       
  76 H76           -7.2723     0.2399    -0.2041 H       
  77 H77           -9.4745     3.8707     0.3864 H       
  78 H78           -7.3683     5.1276     0.5331 H       
  79 H79           -5.2145     3.9642     0.3214 H       
  80 H80          -10.9723     2.8064     0.3404 H       
  81 H81          -11.2700    -0.3203    -1.3428 H       
  82 H82          -13.3774    -1.5364    -1.6986 H       
  83 H83          -15.4569    -0.7433    -0.6511 H       
  84 H84          -13.7712     1.7097     3.4554 H       
  85 H85          -12.0223     1.8820     3.1731 H       
  86 H86          -12.1371     4.2481     3.9058 H       
  87 H87          -13.8861     4.0758     4.1880 H       
  88 H88          -11.8101     2.4734     5.5337 H       
  89 H89          -12.6226     3.7570     6.2105 H       
  90 H90          -15.7008     2.1777     1.4535 H       
  91 H91            2.1575     0.0430     1.1406 H       
  92 H92            4.1920     1.1154     2.1521 H       
  93 H93            3.3099     2.6607     2.2029 H       
  94 H94            4.6449     1.0929    -1.3415 H       
  95 H95            1.6032     3.0285     3.8037 H       
  96 H96            0.5383     2.3911     5.9249 H       
  97 H97            0.8796     0.1754     6.8772 H       
  98 H98            1.9248    -2.0692     6.7275 H       
  99 H99            3.3462    -3.6381     5.5229 H       
 100 H100           4.4110    -3.0007     3.4017 H       
 101 H101           4.0664    -0.7865     2.4473 H       
 102 H102         -19.3440     0.4100    -1.0020 H       
 103 H103         -20.3199     0.0367    -3.2022 H       
 104 H104         -20.2489     1.7875    -4.9255 H       
 105 H105         -19.1954     3.9375    -4.4785 H       
 106 H106         -17.9901     5.4334    -2.9091 H       
 107 H107         -17.0125     5.8059    -0.7095 H       
 108 H108         -17.0842     4.0555     1.0140 H       
 109 H109         -18.0800     2.0752     1.8499 H       
 110 H110         -19.0762     1.0430     0.7961 H       
 111 H111         -16.9756     0.2491    -0.3306 H       
 112 H112         -18.1526    -1.9962     2.3195 H       
@<TRIPOS>BOND
   1    1    2 ar
   2    1    7 1
   3    1    6 ar
   4    2    3 ar
   5    2   65 1
   6    3    4 ar
   7    3   66 1
   8    4    5 ar
   9    4   67 1
  10    5    6 ar
  11    5   12 1
  12    6    8 1
  13    7   35 1
  14    7   68 1
  15    8    9 1
  16    9   10 1
  17    9   69 1
  18    9   70 1
  19   10   11 1
  20   10   71 1
  21   10   72 1
  22   11   73 1
  23   11   74 1
  24   12   13 am
  25   12   75 1
  26   13   14 1
  27   13   15 2
  28   14   16 ar
  29   14   20 ar
  30   16   17 ar
  31   16   76 1
  32   17   18 ar
  33   17   21 1
  34   18   19 ar
  35   18   77 1
  36   19   20 ar
  37   19   78 1
  38   20   79 1
  39   21   22 am
  40   21   23 2
  41   22   24 1
  42   22   80 1
  43   24   25 ar
  44   24   29 ar
  45   25   26 ar
  46   25   81 1
  47   26   27 ar
  48   26   82 1
  49   27   28 ar
  50   27   83 1
  51   28   29 ar
  52   28   34 1
  53   29   30 1
  54   30   31 1
  55   31   32 1
  56   31   84 1
  57   31   85 1
  58   32   33 1
  59   32   86 1
  60   32   87 1
  61   33   88 1
  62   33   89 1
  63   34   61 1
  64   34   90 1
  65   35   36 1
  66   35   37 1
  67   35   91 1
  68   36   38 1
  69   36   39 2
  70   37   40 1
  71   37   92 1
  72   37   93 1
  73   38   94 1
  74   40   41 ar
  75   40   45 ar
  76   41   42 ar
  77   41   95 1
  78   42   43 ar
  79   42   96 1
  80   43   44 ar
  81   43   97 1
  82   44   45 ar
  83   44   46 ar
  84   45   49 ar
  85   46   47 ar
  86   46   98 1
  87   47   48 ar
  88   47   99 1
  89   48   49 ar
  90   48  100 1
  91   49  101 1
  92   50   51 ar
  93   50   55 ar
  94   50  102 1
  95   51   52 ar
  96   51  103 1
  97   52   53 ar
  98   52  104 1
  99   53   54 ar
 100   53  105 1
 101   54   55 ar
 102   54   56 ar
 103   55   59 ar
 104   56   57 ar
 105   56  106 1
 106   57   58 ar
 107   57  107 1
 108   58   59 ar
 109   58  108 1
 110   59   60 1
 111   60   61 1
 112   60  109 1
 113   60  110 1
 114   61   62 1
 115   61  111 1
 116   62   63 1
 117   62   64 2
 118   63  112 1

#	End of record

