#	Name: ASD03430775
#	Creating user name:	WinNT
#	Creation time:	15. 06. 2019 20:41

#	Modifying user name:	WinNT
#	Modification time:	15. 06. 2019 20:41

#	Program:	/corina/corina34_cracker 3.40 0067  02.08.2006

@<TRIPOS>MOLECULE
ASD03430775
  35   39    0    0    0
SMALL
NO_CHARGES


@<TRIPOS>ATOM
   1 C1            -0.0167     1.3822     0.0096 C.ar    
   2 C2             0.0021    -0.0041     0.0020 C.ar    
   3 C3             1.2027    -0.6820    -0.0147 C.ar    
   4 C4             2.4085     0.0128    -0.0146 C.ar    
   5 C5             2.3860     1.4038    -0.0117 C.ar    
   6 C6             1.1815     2.0868     0.0020 C.ar    
   7 C7             1.5509    -2.1460    -0.0477 C.3     
   8 C8             3.0367    -2.1462    -0.4333 C.3     
   9 C9             0.4292    -3.8612     1.0100 C.ar    
  10 C10            1.3146    -2.8192     1.2716 C.ar    
  11 C11            0.7184    -2.9077    -1.0386 C.2     
  12 N12            0.1004    -3.8869    -0.3486 N.am    
  13 O13            0.6209    -2.6851    -2.2269 O.2     
  14 C14            1.7782    -2.5971     2.5494 C.ar    
  15 C15            1.3668    -3.4129     3.5885 C.ar    
  16 C16            0.4885    -4.4519     3.3417 C.ar    
  17 C17            0.0199    -4.6793     2.0622 C.ar    
  18 O18            3.4713    -0.8419    -0.0036 O.3     
  19 O19            1.1868     3.4484     0.0120 O.3     
  20 C20           -0.0354     4.0995    -0.3513 C.3     
  21 O21           -1.2112     2.0357     0.0189 O.3     
  22 C22           -1.1860     3.4160     0.3999 C.3     
  23 F23           -0.8378    -5.6969     1.8299 F       
  24 H24           -0.9269    -0.5549     0.0096 H       
  25 H25            3.3147     1.9550    -0.0195 H       
  26 H26            3.5751    -2.9291     0.1009 H       
  27 H27            3.1568    -2.2586    -1.5109 H       
  28 H28           -0.5016    -4.5341    -0.7481 H       
  29 H29            2.4641    -1.7852     2.7405 H       
  30 H30            1.7306    -3.2383     4.5903 H       
  31 H31            0.1677    -5.0888     4.1528 H       
  32 H32            0.0119     5.1521    -0.0722 H       
  33 H33           -0.1939     4.0104    -1.4260 H       
  34 H34           -1.0253     3.4979     1.4749 H       
  35 H35           -2.1308     3.8888     0.1318 H       
@<TRIPOS>BOND
   1    1    2 ar
   2    1    6 ar
   3    1   21 1
   4    2    3 ar
   5    2   24 1
   6    3    4 ar
   7    3    7 1
   8    4    5 ar
   9    4   18 1
  10    5    6 ar
  11    5   25 1
  12    6   19 1
  13    7    8 1
  14    7   10 1
  15    7   11 1
  16    8   18 1
  17    8   26 1
  18    8   27 1
  19    9   10 ar
  20    9   12 1
  21    9   17 ar
  22   10   14 ar
  23   11   12 am
  24   11   13 2
  25   12   28 1
  26   14   15 ar
  27   14   29 1
  28   15   16 ar
  29   15   30 1
  30   16   17 ar
  31   16   31 1
  32   17   23 1
  33   19   20 1
  34   20   22 1
  35   20   32 1
  36   20   33 1
  37   21   22 1
  38   22   34 1
  39   22   35 1

#	End of record

