#	Name: ASD01120146
#	Creating user name:	WinNT
#	Creation time:	15. 06. 2019 18:59

#	Modifying user name:	WinNT
#	Modification time:	15. 06. 2019 18:59

#	Program:	/corina/corina34_cracker 3.40 0067  02.08.2006

@<TRIPOS>MOLECULE
ASD01120146
  41   43    0    0    0
SMALL
NO_CHARGES


@<TRIPOS>ATOM
   1 C1            -0.0587     1.4124     0.6848 C.ar    
   2 C2            -0.0452     0.0188     0.7721 C.ar    
   3 C3            -1.1958    -0.7020     0.6592 C.ar    
   4 C4            -2.4140    -0.0414     0.4522 C.ar    
   5 C5            -2.4340     1.3720     0.3629 C.ar    
   6 C6            -1.2415     2.0923     0.4869 C.ar    
   7 N7            -3.5716    -0.7102     0.3346 N.ar    
   8 C8            -4.6965    -0.0644     0.1410 C.ar    
   9 N9            -4.7640     1.2546     0.0509 N.ar    
  10 C10           -3.6803     2.0120     0.1529 C.ar    
  11 C11           -6.1128     3.4531     0.6118 C.ar    
  12 C12           -5.0141     4.0054    -0.0339 C.ar    
  13 C13           -5.1598     5.1747    -0.7696 C.ar    
  14 C14           -6.3967     5.7843    -0.8567 C.ar    
  15 C15           -7.4892     5.2310    -0.2119 C.ar    
  16 C16           -7.3467     4.0674     0.5209 C.ar    
  17 O17            1.1047     2.1055     0.8017 O.3     
  18 C18            2.2954     1.3438     1.0115 C.3     
  19 N19           -3.7642     3.3862     0.0568 N.pl3   
  20 Br20          -6.5968     7.3764    -1.8572 Br      
  21 C21            3.4936     2.2892     1.1176 C.3     
  22 C22            4.7685     1.4736     1.3423 C.3     
  23 C23            5.9667     2.4190     1.4484 C.3     
  24 H24            0.8912    -0.4952     0.9312 H       
  25 H25           -1.1690    -1.7794     0.7286 H       
  26 H26           -1.2463     3.1703     0.4205 H       
  27 H27           -5.6092    -0.6346     0.0505 H       
  28 H28           -6.0035     2.5417     1.1809 H       
  29 H29           -4.3074     5.6068    -1.2725 H       
  30 H30           -8.4550     5.7094    -0.2810 H       
  31 H31           -8.2012     3.6379     1.0226 H       
  32 H32            2.2021     0.7704     1.9338 H       
  33 H33            2.4433     0.6625     0.1736 H       
  34 H34           -2.9559     3.9223     0.0521 H       
  35 H35            3.5869     2.8625     0.1953 H       
  36 H36            3.3458     2.9705     1.9555 H       
  37 H37            4.6752     0.9003     2.2646 H       
  38 H38            4.9163     0.7923     0.5044 H       
  39 H39            6.0600     2.9924     0.5261 H       
  40 H40            5.8189     3.1003     2.2863 H       
  41 H41            6.8750     1.8380     1.6084 H       
@<TRIPOS>BOND
   1    1    2 ar
   2    1   17 1
   3    1    6 ar
   4    2    3 ar
   5    2   24 1
   6    3    4 ar
   7    3   25 1
   8    4    5 ar
   9    4    7 ar
  10    5    6 ar
  11    5   10 ar
  12    6   26 1
  13    7    8 ar
  14    8    9 ar
  15    8   27 1
  16    9   10 ar
  17   10   19 1
  18   11   12 ar
  19   11   16 ar
  20   11   28 1
  21   12   13 ar
  22   12   19 1
  23   13   14 ar
  24   13   29 1
  25   14   15 ar
  26   14   20 1
  27   15   16 ar
  28   15   30 1
  29   16   31 1
  30   17   18 1
  31   18   21 1
  32   18   32 1
  33   18   33 1
  34   19   34 1
  35   21   22 1
  36   21   35 1
  37   21   36 1
  38   22   23 1
  39   22   37 1
  40   22   38 1
  41   23   39 1
  42   23   40 1
  43   23   41 1

#	End of record

