#	Name: ASD01815178
#	Creating user name:	WinNT
#	Creation time:	15. 06. 2019 19:33

#	Modifying user name:	WinNT
#	Modification time:	15. 06. 2019 19:33

#	Program:	/corina/corina34_cracker 3.40 0067  02.08.2006

@<TRIPOS>MOLECULE
ASD01815178
  53   57    0    0    0
SMALL
NO_CHARGES


@<TRIPOS>ATOM
   1 C1            -0.0167     1.3820     0.0096 C.ar    
   2 C2             0.0021    -0.0041     0.0020 C.ar    
   3 C3             1.1959    -0.6932    -0.0127 C.ar    
   4 C4             2.4016     0.0019    -0.0200 C.ar    
   5 C5             2.3831     1.4075    -0.0128 C.ar    
   6 C6             1.1665     2.0939     0.0022 C.ar    
   7 N7             3.6010    -0.6771    -0.0337 N.pl3   
   8 C8             4.7870    -0.0549    -0.0404 C.2     
   9 C9             4.8957     1.3208    -0.0340 C.2     
  10 C10            3.6667     2.1313    -0.0207 C.2     
  11 C11            3.5775    -2.1419    -0.0409 C.3     
  12 H12            1.1956    -1.7731    -0.0181 H       
  13 O13            3.7091     3.3491    -0.0150 O.2     
  14 C14            6.2161     1.9660    -0.0412 C.2     
  15 O15            6.3092     3.3109    -0.0348 O.3     
  16 O16            7.2244     1.2870    -0.0529 O.2     
  17 C17            3.5572    -2.6371    -1.4640 C.ar    
  18 N18            2.4061    -2.7375    -2.0999 N.ar    
  19 C19            2.3340    -3.1642    -3.3442 C.ar    
  20 C20            3.4873    -3.5278    -4.0372 C.ar    
  21 C21            4.7231    -3.4324    -3.3902 C.ar    
  22 C22            4.7467    -2.9736    -2.0847 C.ar    
  23 F23            1.1476     3.4448     0.0091 F       
  24 C24            3.4050    -4.0084    -5.4374 C.2     
  25 C25            4.1681    -3.5453    -6.5238 C.2     
  26 N26            3.8138    -4.2074    -7.5928 N.2     
  27 N27            2.8122    -5.1239    -7.2525 N.pl3   
  28 C28            2.5644    -5.0033    -5.9179 C.2     
  29 C29            2.1495    -6.0542    -8.1699 C.3     
  30 C30            1.5815    -5.7784    -5.1329 C.ar    
  31 C31            0.2923    -5.9819    -5.6283 C.ar    
  32 C32            1.9397    -6.3154    -3.8950 C.ar    
  33 C33            1.0173    -7.0385    -3.1674 C.ar    
  34 C34           -0.2604    -7.2320    -3.6619 C.ar    
  35 C35           -0.6203    -6.7070    -4.8904 C.ar    
  36 H36           -0.9604     1.9071     0.0170 H       
  37 H37           -0.9295    -0.5505     0.0080 H       
  38 H38            5.6884    -0.6497    -0.0508 H       
  39 H39            4.4660    -2.5220     0.4634 H       
  40 H40            2.6863    -2.4936     0.4789 H       
  41 H41            7.1990     3.6894    -0.0400 H       
  42 H42            1.3727    -3.2332    -3.8315 H       
  43 H43            5.6364    -3.7060    -3.8976 H       
  44 H44            5.6831    -2.8865    -1.5536 H       
  45 H45            4.9207    -2.7719    -6.4816 H       
  46 H46            2.7016    -6.9937    -8.1961 H       
  47 H47            1.1319    -6.2402    -7.8264 H       
  48 H48            2.1221    -5.6210    -9.1697 H       
  49 H49            0.0100    -5.5723    -6.5869 H       
  50 H50            2.9368    -6.1655    -3.5081 H       
  51 H51            1.2932    -7.4548    -2.2099 H       
  52 H52           -0.9787    -7.7989    -3.0883 H       
  53 H53           -1.6193    -6.8616    -5.2706 H       
@<TRIPOS>BOND
   1    1    2 ar
   2    1    6 ar
   3    1   36 1
   4    2    3 ar
   5    2   37 1
   6    3    4 ar
   7    3   12 1
   8    4    5 ar
   9    4    7 1
  10    5    6 ar
  11    5   10 1
  12    6   23 1
  13    7    8 1
  14    7   11 1
  15    8    9 2
  16    8   38 1
  17    9   10 1
  18    9   14 1
  19   10   13 2
  20   11   17 1
  21   11   39 1
  22   11   40 1
  23   14   15 1
  24   14   16 2
  25   15   41 1
  26   17   18 ar
  27   17   22 ar
  28   18   19 ar
  29   19   20 ar
  30   19   42 1
  31   20   21 ar
  32   20   24 1
  33   21   22 ar
  34   21   43 1
  35   22   44 1
  36   24   25 1
  37   24   28 2
  38   25   26 2
  39   25   45 1
  40   26   27 1
  41   27   28 1
  42   27   29 1
  43   28   30 1
  44   29   46 1
  45   29   47 1
  46   29   48 1
  47   30   31 ar
  48   30   32 ar
  49   31   35 ar
  50   31   49 1
  51   32   33 ar
  52   32   50 1
  53   33   34 ar
  54   33   51 1
  55   34   35 ar
  56   34   52 1
  57   35   53 1

#	End of record

