#	Name: ASD01920049
#	Creating user name:	WinNT
#	Creation time:	15. 06. 2019 20:11

#	Modifying user name:	WinNT
#	Modification time:	15. 06. 2019 20:11

#	Program:	/corina/corina34_cracker 3.40 0067  02.08.2006

@<TRIPOS>MOLECULE
ASD01920049
  37   39    0    0    0
SMALL
NO_CHARGES


@<TRIPOS>ATOM
   1 C1            -0.0169     1.3979     0.0097 C.2     
   2 C2             0.0021    -0.0041     0.0020 C.2     
   3 N3             1.1453    -0.6499    -0.0119 N.2     
   4 C4             2.3064     0.0123    -0.0194 C.2     
   5 N5             2.3292     1.3835    -0.0128 N.pl3   
   6 C6             1.1544     2.0801     0.0022 C.2     
   7 C7            -1.2942    -0.7725     0.0103 C.3     
   8 C8             3.6399    -0.4139    -0.0340 C.2     
   9 C9             4.4413     0.7318    -0.0358 C.2     
  10 N10            3.6675     1.7910    -0.0232 N.2     
  11 C11            5.9482     0.7472    -0.0490 C.3     
  12 C12            4.1138    -1.8182    -0.0451 C.ar    
  13 C13            4.3259    -2.4746    -1.2562 C.ar    
  14 C14            4.7676    -3.7820    -1.2630 C.ar    
  15 C15            5.0007    -4.4445    -0.0662 C.ar    
  16 C16            4.7912    -3.7956     1.1429 C.ar    
  17 C17            4.3547    -2.4855     1.1581 C.ar    
  18 O18            5.4349    -5.7326    -0.0779 O.3     
  19 C19            5.6549    -6.3546     1.1897 C.3     
  20 F20            4.1512    -1.8536     2.3348 F       
  21 C21            1.1603     3.5871     0.0102 C.3     
  22 F22           -0.1567     4.0586     0.0254 F       
  23 F23            1.8325     4.0447     1.1486 F       
  24 F24            1.8107     4.0570    -1.1358 F       
  25 H25           -0.9569     1.9298     0.0171 H       
  26 H26           -1.6166    -0.9523    -1.0154 H       
  27 H27           -1.1481    -1.7261     0.5176 H       
  28 H28           -2.0557    -0.1950     0.5345 H       
  29 H29            6.3024     0.7558    -1.0799 H       
  30 H30            6.3069     1.6385     0.4658 H       
  31 H31            6.3251    -0.1413     0.4573 H       
  32 H32            4.1442    -1.9607    -2.1886 H       
  33 H33            4.9318    -4.2905    -2.2015 H       
  34 H34            4.9733    -4.3145     2.0724 H       
  35 H35            6.4102    -5.7959     1.7424 H       
  36 H36            4.7236    -6.3646     1.7561 H       
  37 H37            5.9987    -7.3777     1.0376 H       
@<TRIPOS>BOND
   1    1    2 1
   2    1    6 2
   3    1   25 1
   4    2    3 2
   5    2    7 1
   6    3    4 1
   7    4    5 1
   8    4    8 2
   9    5    6 1
  10    5   10 1
  11    6   21 1
  12    7   26 1
  13    7   27 1
  14    7   28 1
  15    8    9 1
  16    8   12 1
  17    9   10 2
  18    9   11 1
  19   11   29 1
  20   11   30 1
  21   11   31 1
  22   12   13 ar
  23   12   17 ar
  24   13   14 ar
  25   13   32 1
  26   14   15 ar
  27   14   33 1
  28   15   16 ar
  29   15   18 1
  30   16   17 ar
  31   16   34 1
  32   17   20 1
  33   18   19 1
  34   19   35 1
  35   19   36 1
  36   19   37 1
  37   21   22 1
  38   21   23 1
  39   21   24 1

#	End of record

