#	Name: ASD09116350
#	Creating user name:	WinNT
#	Creation time:	15. 06. 2019 21:21

#	Modifying user name:	WinNT
#	Modification time:	15. 06. 2019 21:21

#	Program:	/corina/corina34_cracker 3.40 0067  02.08.2006

@<TRIPOS>MOLECULE
ASD09116350
  74   80    0    0    0
SMALL
NO_CHARGES


@<TRIPOS>ATOM
   1 N1            -0.0633     1.4756    -0.3088 N.2     
   2 N2            -0.0855     0.1172    -0.6640 N.pl3   
   3 C3             1.1942     1.8484    -0.3001 C.2     
   4 N4             1.9614     0.8026    -0.6293 N.2     
   5 C5             1.2038    -0.2500    -0.8519 C.2     
   6 N6             1.6463    -1.5083    -1.2131 N.pl3   
   7 C7            -1.2139    -0.6939    -0.7969 C.ar    
   8 N8             1.6571     3.1287     0.0032 N.pl3   
   9 C9             3.0332     3.3748     0.0839 C.ar    
  10 C10            3.5337     4.6315    -0.2322 C.ar    
  11 C11            3.8966     2.3643     0.4853 C.ar    
  12 C12            5.2545     2.6063     0.5656 C.ar    
  13 C13            5.7566     3.8594     0.2447 C.ar    
  14 C14            4.8920     4.8739    -0.1525 C.ar    
  15 N15            7.1339     4.1045     0.3268 N.3     
  16 F16            5.3802     6.0941    -0.4655 F       
  17 N17           -1.1743    -1.7603    -1.5817 N.ar    
  18 N18           -2.1876    -2.5341    -1.7462 N.ar    
  19 C19           -3.3399    -2.3074    -1.1363 C.ar    
  20 C20           -3.4686    -1.2167    -0.2715 C.ar    
  21 C21           -2.3832    -0.3843    -0.0976 C.ar    
  22 C22           -4.5250    -3.1659    -1.3660 C.ar    
  23 C23           -5.7461    -2.5627    -1.6711 C.ar    
  24 C24           -5.8149    -1.0669    -1.8133 C.3     
  25 C25           -5.8091    -0.3772    -0.4518 C.3     
  26 C26           -4.7583    -0.9982     0.4647 C.3     
  27 C27           -4.4359    -4.5508    -1.2778 C.ar    
  28 C28           -5.5647    -5.3224    -1.4749 C.ar    
  29 C29           -6.7773    -4.7197    -1.7565 C.ar    
  30 C30           -6.8684    -3.3419    -1.8535 C.ar    
  31 C31            7.6594     4.6257    -0.9608 C.3     
  32 C32            9.1753     4.3431    -0.9086 C.3     
  33 C33            9.3261     3.1623     0.0881 C.3     
  34 C34            7.8871     2.8430     0.5439 C.3     
  35 C35            9.6222     3.7712    -2.2701 C.3     
  36 N36           10.5130     2.6333    -1.9272 N.3     
  37 C37            9.8497     1.9885    -0.7653 C.3     
  38 C38           10.6286     1.6974    -3.0536 C.3     
  39 C39           11.7356     0.6824    -2.7616 C.3     
  40 C40           11.8561    -0.2925    -3.9347 C.3     
  41 H41            2.5954    -1.6754    -1.3241 H       
  42 H42            1.0079    -2.2246    -1.3556 H       
  43 H43            1.0258     3.8486     0.1584 H       
  44 H44            2.8617     5.4187    -0.5405 H       
  45 H45            3.5065     1.3887     0.7352 H       
  46 H46            5.9254     1.8200     0.8786 H       
  47 H47           -2.4373     0.4791     0.5490 H       
  48 H48           -4.9563    -0.7237    -2.3905 H       
  49 H49           -6.7291    -0.8009    -2.3439 H       
  50 H50           -5.5871     0.6814    -0.5867 H       
  51 H51           -6.7923    -0.4813     0.0073 H       
  52 H52           -5.1262    -1.9551     0.8350 H       
  53 H53           -4.5806    -0.3324     1.3091 H       
  54 H54           -3.4891    -5.0207    -1.0560 H       
  55 H55           -5.5001    -6.3985    -1.4093 H       
  56 H56           -7.6581    -5.3275    -1.9015 H       
  57 H57           -7.8185    -2.8775    -2.0724 H       
  58 H58            7.2034     4.0980    -1.7985 H       
  59 H59            7.4754     5.6971    -1.0403 H       
  60 H60            9.7506     5.2188    -0.6082 H       
  61 H61            9.9825     3.4032     0.9243 H       
  62 H62            7.8747     2.5702     1.5992 H       
  63 H63            7.4661     2.0404    -0.0616 H       
  64 H64            8.7593     3.4207    -2.8364 H       
  65 H65           10.1692     4.5243    -2.8372 H       
  66 H66           10.5685     1.3973    -0.1978 H       
  67 H67            9.0220     1.3630    -1.0995 H       
  68 H68            9.6823     1.1739    -3.1896 H       
  69 H69           10.8721     2.2495    -3.9613 H       
  70 H70           12.6819     1.2059    -2.6256 H       
  71 H71           11.4921     0.1302    -1.8539 H       
  72 H72           10.9097    -0.8160    -4.0707 H       
  73 H73           12.0996     0.2597    -4.8424 H       
  74 H74           12.6447    -1.0156    -3.7267 H       
@<TRIPOS>BOND
   1    1    2 1
   2    1    3 2
   3    2    7 1
   4    2    5 1
   5    3    4 1
   6    3    8 1
   7    4    5 2
   8    5    6 1
   9    6   41 1
  10    6   42 1
  11    7   17 ar
  12    7   21 ar
  13    8    9 1
  14    8   43 1
  15    9   10 ar
  16    9   11 ar
  17   10   14 ar
  18   10   44 1
  19   11   12 ar
  20   11   45 1
  21   12   13 ar
  22   12   46 1
  23   13   14 ar
  24   13   15 1
  25   14   16 1
  26   15   31 1
  27   15   34 1
  28   17   18 ar
  29   18   19 ar
  30   19   20 ar
  31   19   22 1
  32   20   21 ar
  33   20   26 1
  34   21   47 1
  35   22   23 ar
  36   22   27 ar
  37   23   24 1
  38   23   30 ar
  39   24   25 1
  40   24   48 1
  41   24   49 1
  42   25   26 1
  43   25   50 1
  44   25   51 1
  45   26   52 1
  46   26   53 1
  47   27   28 ar
  48   27   54 1
  49   28   29 ar
  50   28   55 1
  51   29   30 ar
  52   29   56 1
  53   30   57 1
  54   31   32 1
  55   31   58 1
  56   31   59 1
  57   32   33 1
  58   32   35 1
  59   32   60 1
  60   33   34 1
  61   33   37 1
  62   33   61 1
  63   34   62 1
  64   34   63 1
  65   35   36 1
  66   35   64 1
  67   35   65 1
  68   36   37 1
  69   36   38 1
  70   37   66 1
  71   37   67 1
  72   38   39 1
  73   38   68 1
  74   38   69 1
  75   39   40 1
  76   39   70 1
  77   39   71 1
  78   40   72 1
  79   40   73 1
  80   40   74 1

#	End of record

