#	Name: ASD01208674
#	Creating user name:	WinNT
#	Creation time:	15. 06. 2019 19:10

#	Modifying user name:	WinNT
#	Modification time:	15. 06. 2019 19:10

#	Program:	/corina/corina34_cracker 3.40 0067  02.08.2006

@<TRIPOS>MOLECULE
ASD01208674
  64   68    0    0    0
SMALL
NO_CHARGES


@<TRIPOS>ATOM
   1 C1            -0.5147     1.4605     1.4820 C.2     
   2 C2            -0.3539     0.1492     0.8188 C.ar    
   3 C3             0.8823    -0.2185     0.2855 C.ar    
   4 C4             1.0286    -1.4479    -0.3350 C.ar    
   5 C5            -0.0518    -2.3136    -0.4274 C.ar    
   6 C6            -1.2825    -1.9523     0.1014 C.ar    
   7 C7            -1.4361    -0.7268     0.7293 C.ar    
   8 O8             0.4307     2.2203     1.5634 O.2     
   9 N9            -1.7108     1.8159     1.9914 N.am    
  10 S10           -3.3164     3.6257     3.3026 S.3     
  11 C11           -1.8618     3.0480     2.6145 C.2     
  12 N12           -0.9201     3.9272     2.7595 N.2     
  13 C13           -1.2396     5.0481     3.3789 C.2     
  14 C14           -2.5115     5.1195     3.7761 C.2     
  15 O15           -2.3376    -2.8036     0.0078 O.3     
  16 C16           -3.1549    -2.6900    -1.0709 C.ar    
  17 C17           -4.3049    -3.4649    -1.1535 C.ar    
  18 C18           -5.1367    -3.3524    -2.2464 C.ar    
  19 C19           -4.8226    -2.4578    -3.2714 C.ar    
  20 C20           -3.6661    -1.6803    -3.1846 C.ar    
  21 C21           -2.8418    -1.7950    -2.0862 C.ar    
  22 O22           -5.5323    -1.5167    -5.5019 O.3     
  23 C23           -5.7116    -2.3345    -4.4453 C.2     
  24 N24           -6.8232    -3.0010    -4.6537 N.2     
  25 N25           -7.3323    -2.6361    -5.7776 N.2     
  26 C26           -6.5726    -1.7301    -6.3266 C.2     
  27 C27           -6.8164    -1.0457    -7.6469 C.3     
  28 C28           -7.6453     0.2201    -7.4198 C.3     
  29 C29           -7.7872     0.9804    -8.7399 C.3     
  30 C30           -9.0323    -0.1647    -6.9013 C.3     
  31 O31            2.2320    -1.8067    -0.8546 O.3     
  32 C32            2.3121    -3.0888    -1.4806 C.3     
  33 C33            3.7331    -3.3145    -2.0010 C.3     
  34 C34            3.8188    -4.6872    -2.6712 C.3     
  35 C35            5.1332    -5.0550    -3.3626 C.3     
  36 C36            4.7506    -5.7241    -2.0409 C.3     
  37 H37            1.7236     0.4550     0.3563 H       
  38 H38            0.0656    -3.2713    -0.9126 H       
  39 H39           -2.3933    -0.4480     1.1446 H       
  40 H40           -2.4661     1.2112     1.9229 H       
  41 H41           -0.5291     5.8432     3.5503 H       
  42 H42           -2.9678     5.9483     4.2970 H       
  43 H43           -4.5472    -4.1566    -0.3602 H       
  44 H44           -6.0302    -3.9557    -2.3102 H       
  45 H45           -3.4196    -0.9876    -3.9756 H       
  46 H46           -1.9490    -1.1913    -2.0165 H       
  47 H47           -5.8614    -0.7784    -8.0993 H       
  48 H48           -7.3571    -1.7198    -8.3112 H       
  49 H49           -7.1465     0.8544    -6.6870 H       
  50 H50           -8.2859     0.3462    -9.4727 H       
  51 H51           -8.3777     1.8822    -8.5781 H       
  52 H52           -6.7990     1.2546    -9.1093 H       
  53 H53           -9.5310    -0.7990    -7.6341 H       
  54 H54           -8.9312    -0.7064    -5.9608 H       
  55 H55           -9.6228     0.7370    -6.7395 H       
  56 H56            2.0636    -3.8635    -0.7552 H       
  57 H57            1.6093    -3.1314    -2.3127 H       
  58 H58            3.9816    -2.5398    -2.7264 H       
  59 H59            4.4358    -3.2719    -1.1689 H       
  60 H60            2.8946    -5.0487    -3.1222 H       
  61 H61            5.0738    -5.6588    -4.2681 H       
  62 H62            5.9368    -4.3190    -3.3399 H       
  63 H63            5.3026    -5.4284    -1.1488 H       
  64 H64            4.4395    -6.7682    -2.0770 H       
@<TRIPOS>BOND
   1    1    2 1
   2    1    8 2
   3    1    9 am
   4    2    3 ar
   5    2    7 ar
   6    3    4 ar
   7    3   37 1
   8    4    5 ar
   9    4   31 1
  10    5    6 ar
  11    5   38 1
  12    6    7 ar
  13    6   15 1
  14    7   39 1
  15    9   11 1
  16    9   40 1
  17   10   11 1
  18   10   14 1
  19   11   12 2
  20   12   13 1
  21   13   14 2
  22   13   41 1
  23   14   42 1
  24   15   16 1
  25   16   17 ar
  26   16   21 ar
  27   17   18 ar
  28   17   43 1
  29   18   19 ar
  30   18   44 1
  31   19   20 ar
  32   19   23 1
  33   20   21 ar
  34   20   45 1
  35   21   46 1
  36   22   23 1
  37   22   26 1
  38   23   24 2
  39   24   25 1
  40   25   26 2
  41   26   27 1
  42   27   28 1
  43   27   47 1
  44   27   48 1
  45   28   29 1
  46   28   30 1
  47   28   49 1
  48   29   50 1
  49   29   51 1
  50   29   52 1
  51   30   53 1
  52   30   54 1
  53   30   55 1
  54   31   32 1
  55   32   33 1
  56   32   56 1
  57   32   57 1
  58   33   34 1
  59   33   58 1
  60   33   59 1
  61   34   35 1
  62   34   36 1
  63   34   60 1
  64   35   36 1
  65   35   61 1
  66   35   62 1
  67   36   63 1
  68   36   64 1

#	End of record

