#	Name: ASD03430878
#	Creating user name:	WinNT
#	Creation time:	15. 06. 2019 20:41

#	Modifying user name:	WinNT
#	Modification time:	15. 06. 2019 20:41

#	Program:	/corina/corina34_cracker 3.40 0067  02.08.2006

@<TRIPOS>MOLECULE
ASD03430878
  57   61    0    0    0
SMALL
NO_CHARGES


@<TRIPOS>ATOM
   1 N1             0.1581     1.5460     0.5278 N.am    
   2 C2             0.1135     0.0724     0.5340 C.3     
   3 C3             1.5907    -0.3684     0.6860 C.3     
   4 C4             2.3240     0.6999    -0.1675 C.3     
   5 C5             1.4933     1.9754     0.0870 C.3     
   6 C6            -0.8587     2.3640     0.8647 C.2     
   7 O7            -1.9255     1.8965     1.2108 O.2     
   8 O8            -0.6923     3.6992     0.8179 O.3     
   9 O9             1.7921    -1.6780     0.1510 O.3     
  10 O10            1.7623    -6.4288     1.1902 O.3     
  11 C11            0.9821    -7.1853     2.1355 C.3     
  12 C12            0.8318    -6.2040     3.3059 C.3     
  13 C13            1.0067    -4.8591     2.6529 C.ar    
  14 C14            1.5568    -5.0976     1.3961 C.ar    
  15 C15            1.8149    -4.0173     0.5582 C.ar    
  16 C16            1.5360    -2.7275     0.9755 C.ar    
  17 C17            0.9958    -2.5031     2.2341 C.ar    
  18 C18            0.7334    -3.5733     3.0680 C.ar    
  19 N19           -0.2544    -6.6281     5.2721 N.am    
  20 C20           -0.5038    -6.3394     3.9793 C.2     
  21 C21            1.8467    -6.4532     4.3817 C.ar    
  22 C22            3.2230    -6.4728     4.4054 C.ar    
  23 C23            3.8923    -6.7417     5.5865 C.ar    
  24 C24            3.1758    -6.9906     6.7425 C.ar    
  25 C25            1.7963    -6.9724     6.7239 C.ar    
  26 C26            1.1145    -6.7021     5.5404 C.ar    
  27 O27           -1.5933    -6.2131     3.4615 O.2     
  28 C28           -1.8301     4.5189     1.1944 C.3     
  29 C29           -2.2296     4.2048     2.6375 C.3     
  30 C30           -1.4537     5.9975     1.0797 C.3     
  31 C31           -3.0059     4.2182     0.2627 C.3     
  32 H32           -0.4779    -0.2857     1.3767 H       
  33 H33           -0.2985    -0.2986    -0.4045 H       
  34 H34            1.9074    -0.3208     1.7279 H       
  35 H35            3.3493     0.8322     0.1779 H       
  36 H36            2.3033     0.4305    -1.2235 H       
  37 H37            1.4116     2.5542    -0.8330 H       
  38 H38            1.9651     2.5760     0.8647 H       
  39 H39            0.0085    -7.4405     1.7171 H       
  40 H40            1.5169    -8.0820     2.4487 H       
  41 H41            2.2351    -4.1860    -0.4223 H       
  42 H42            0.7818    -1.4961     2.5606 H       
  43 H43            0.3129    -3.4019     4.0479 H       
  44 H44           -0.9451    -6.7681     5.9386 H       
  45 H45            3.7809    -6.2785     3.5013 H       
  46 H46            4.9720    -6.7575     5.6051 H       
  47 H47            3.6982    -7.2005     7.6641 H       
  48 H48            1.2433    -7.1681     7.6307 H       
  49 H49           -1.3920     4.4190     3.3013 H       
  50 H50           -3.0838     4.8202     2.9202 H       
  51 H51           -2.4978     3.1515     2.7192 H       
  52 H52           -1.1690     6.2212     0.0516 H       
  53 H53           -2.3078     6.6128     1.3624 H       
  54 H54           -0.6160     6.2117     1.7435 H       
  55 H55           -3.2740     3.1649     0.3444 H       
  56 H56           -3.8600     4.8336     0.5454 H       
  57 H57           -2.7212     4.4420    -0.7654 H       
@<TRIPOS>BOND
   1    1    2 1
   2    1    5 1
   3    1    6 am
   4    2    3 1
   5    2   32 1
   6    2   33 1
   7    3    4 1
   8    3    9 1
   9    3   34 1
  10    4    5 1
  11    4   35 1
  12    4   36 1
  13    5   37 1
  14    5   38 1
  15    6    7 2
  16    6    8 1
  17    8   28 1
  18    9   16 1
  19   10   11 1
  20   10   14 1
  21   11   12 1
  22   11   39 1
  23   11   40 1
  24   12   13 1
  25   12   20 1
  26   12   21 1
  27   13   14 ar
  28   13   18 ar
  29   14   15 ar
  30   15   16 ar
  31   15   41 1
  32   16   17 ar
  33   17   18 ar
  34   17   42 1
  35   18   43 1
  36   19   20 am
  37   19   26 1
  38   19   44 1
  39   20   27 2
  40   21   22 ar
  41   21   26 ar
  42   22   23 ar
  43   22   45 1
  44   23   24 ar
  45   23   46 1
  46   24   25 ar
  47   24   47 1
  48   25   26 ar
  49   25   48 1
  50   28   29 1
  51   28   31 1
  52   28   30 1
  53   29   49 1
  54   29   50 1
  55   29   51 1
  56   30   52 1
  57   30   53 1
  58   30   54 1
  59   31   55 1
  60   31   56 1
  61   31   57 1

#	End of record

