#	Name: ASD04550022
#	Creating user name:	WinNT
#	Creation time:	15. 06. 2019 20:49

#	Modifying user name:	WinNT
#	Modification time:	15. 06. 2019 20:49

#	Program:	/corina/corina34_cracker 3.40 0067  02.08.2006

@<TRIPOS>MOLECULE
ASD04550022
  33   34    0    0    0
SMALL
NO_CHARGES


@<TRIPOS>ATOM
   1 C1             0.0910     1.2608    -0.2092 C.ar    
   2 C2             0.1943    -0.1034     0.0718 C.ar    
   3 C3            -0.8924    -0.9294    -0.1270 C.ar    
   4 C4            -2.0827    -0.4094    -0.6037 C.ar    
   5 C5            -2.1922     0.9415    -0.8843 C.ar    
   6 C6            -1.1155     1.7798    -0.6852 C.ar    
   7 C7            -3.4927     1.4984    -1.4036 C.3     
   8 C8            -3.8484     0.8152    -2.7256 C.3     
   9 C9             1.2504     2.1519     0.0017 C.2     
  10 C10            1.3384     3.4346    -0.7262 C.ar    
  11 C11            2.1273     4.4728    -0.2254 C.ar    
  12 C12            2.2051     5.6674    -0.9104 C.ar    
  13 C13            1.5036     5.8388    -2.0909 C.ar    
  14 C14            0.7201     4.8145    -2.5929 C.ar    
  15 C15            0.6376     3.6126    -1.9214 C.ar    
  16 O16            2.1320     1.8297     0.7740 O.2     
  17 C17           -4.5853     1.2449    -0.3972 C.2     
  18 O18           -4.3338     0.6708     0.6358 O.2     
  19 O19           -5.8379     1.6568    -0.6483 O.3     
  20 H20            1.1229    -0.5106     0.4436 H       
  21 H21           -0.8138    -1.9846     0.0895 H       
  22 H22           -2.9303    -1.0608    -0.7579 H       
  23 H23           -1.2024     2.8338    -0.9042 H       
  24 H24           -3.3896     2.5714    -1.5654 H       
  25 H25           -4.7890     1.2180    -3.1012 H       
  26 H26           -3.0582     0.9986    -3.4535 H       
  27 H27           -3.9515    -0.2578    -2.5638 H       
  28 H28            2.6747     4.3406     0.6961 H       
  29 H29            2.8147     6.4710    -0.5244 H       
  30 H30            1.5677     6.7766    -2.6228 H       
  31 H31            0.1753     4.9551    -3.5147 H       
  32 H32            0.0258     2.8140    -2.3142 H       
  33 H33           -6.5047     1.4714     0.0271 H       
@<TRIPOS>BOND
   1    1    2 ar
   2    1    9 1
   3    1    6 ar
   4    2    3 ar
   5    2   20 1
   6    3    4 ar
   7    3   21 1
   8    4    5 ar
   9    4   22 1
  10    5    6 ar
  11    5    7 1
  12    6   23 1
  13    7    8 1
  14    7   17 1
  15    7   24 1
  16    8   25 1
  17    8   26 1
  18    8   27 1
  19    9   10 1
  20    9   16 2
  21   10   11 ar
  22   10   15 ar
  23   11   12 ar
  24   11   28 1
  25   12   13 ar
  26   12   29 1
  27   13   14 ar
  28   13   30 1
  29   14   15 ar
  30   14   31 1
  31   15   32 1
  32   17   18 2
  33   17   19 1
  34   19   33 1

#	End of record

