#	Name: ASD06170094
#	Creating user name:	WinNT
#	Creation time:	15. 06. 2019 21:05

#	Modifying user name:	WinNT
#	Modification time:	15. 06. 2019 21:05

#	Program:	/corina/corina34_cracker 3.40 0067  02.08.2006

@<TRIPOS>MOLECULE
ASD06170094
  77   83    0    0    0
SMALL
NO_CHARGES


@<TRIPOS>ATOM
   1 N1             0.1219     1.7674    -0.0682 N.pl3   
   2 N2             0.0315     0.3903     0.1558 N.am    
   3 C3             1.2665    -0.0837     0.4209 C.2     
   4 C4             2.1792     1.0688     0.3578 C.2     
   5 C5             1.4016     2.1688     0.0527 C.2     
   6 C6             3.6305     1.0529     0.5771 C.2     
   7 O7             4.2698     2.0851     0.4944 O.2     
   8 N8             4.2551    -0.1050     0.8699 N.am    
   9 C9            -1.1426    -0.3686     0.1126 C.ar    
  10 C10           -2.0540    -0.1826    -0.9187 C.ar    
  11 C11           -3.2122    -0.9339    -0.9586 C.ar    
  12 C12           -3.4650    -1.8703     0.0271 C.ar    
  13 C13           -2.5595    -2.0580     1.0553 C.ar    
  14 C14           -1.3968    -1.3139     1.0979 C.ar    
  15 O15            1.5666    -1.2375     0.6648 O.2     
  16 C16            1.9013     3.5804    -0.1172 C.3     
  17 C17            5.6539    -0.1546     0.9129 C.ar    
  18 C18            6.3798     0.9853     1.2335 C.ar    
  19 C19            7.7604     0.9352     1.2761 C.ar    
  20 C20            8.4209    -0.2556     0.9980 C.ar    
  21 C21            7.6952    -1.3928     0.6781 C.ar    
  22 C22            6.3151    -1.3446     0.6405 C.ar    
  23 O23            9.7794    -0.3052     1.0394 O.3     
  24 N24           11.5854    -0.2434     4.7466 N.ar    
  25 C25           10.2843    -0.1054     4.6438 C.ar    
  26 C26            9.6412    -0.1209     3.4128 C.ar    
  27 C27           10.3802    -0.2857     2.2543 C.ar    
  28 C28           11.7806    -0.4334     2.3768 C.ar    
  29 C29           12.5954    -0.6041     1.2481 C.ar    
  30 C30           13.9408    -0.7431     1.3988 C.ar    
  31 C31           14.5245    -0.7181     2.6687 C.ar    
  32 C32           13.7517    -0.5527     3.7957 C.ar    
  33 C33           12.3612    -0.4065     3.6683 C.ar    
  34 O34           15.8699    -0.8591     2.7920 O.3     
  35 C35           16.6177    -1.0278     1.5860 C.3     
  36 F36            8.4675     2.0435     1.5874 F       
  37 C37           -1.0072     2.6427    -0.3925 C.3     
  38 C38           -1.5551     3.2657     0.8930 C.3     
  39 C39           -3.9675     3.7409     0.5178 C.2     
  40 N40           -2.6842     4.1411     0.5688 N.am    
  41 C41           -2.5743     5.4512     0.2836 C.2     
  42 C42           -3.9241     5.9890     0.0123 C.ar    
  43 C43           -4.4180     7.2386    -0.3263 C.ar    
  44 C44           -5.7802     7.4108    -0.5164 C.ar    
  45 C45           -6.6483     6.3450    -0.3705 C.ar    
  46 C46           -6.1687     5.0894    -0.0320 C.ar    
  47 C47           -4.8093     4.9023     0.1611 C.ar    
  48 O48           -1.5392     6.0858     0.2540 O.2     
  49 O49           -4.3670     2.6128     0.7250 O.2     
  50 H50            3.7357    -0.9039     1.0509 H       
  51 H51           -1.8575     0.5491    -1.6884 H       
  52 H52           -3.9213    -0.7898    -1.7603 H       
  53 H53           -4.3717    -2.4561    -0.0061 H       
  54 H54           -2.7599    -2.7901     1.8235 H       
  55 H55           -0.6881    -1.4638     1.8989 H       
  56 H56            1.8727     4.0940     0.8437 H       
  57 H57            2.9259     3.5609    -0.4885 H       
  58 H58            1.2666     4.1072    -0.8298 H       
  59 H59            5.8658     1.9103     1.4491 H       
  60 H60            8.2090    -2.3179     0.4621 H       
  61 H61            5.7504    -2.2319     0.3952 H       
  62 H62            9.6974     0.0238     5.5412 H       
  63 H63            8.5687    -0.0056     3.3600 H       
  64 H64           12.1562    -0.6255     0.2617 H       
  65 H65           14.5647    -0.8747     0.5271 H       
  66 H66           14.2124    -0.5355     4.7724 H       
  67 H67           17.6762    -1.1286     1.8260 H       
  68 H68           16.2755    -1.9241     1.0686 H       
  69 H69           16.4719    -0.1594     0.9436 H       
  70 H70           -0.6731     3.4325    -1.0653 H       
  71 H71           -1.7911     2.0604    -0.8768 H       
  72 H72           -1.8893     2.4759     1.5658 H       
  73 H73           -0.7713     3.8481     1.3773 H       
  74 H74           -3.7444     8.0750    -0.4413 H       
  75 H75           -6.1660     8.3845    -0.7800 H       
  76 H76           -7.7077     6.4918    -0.5208 H       
  77 H77           -6.8515     4.2603     0.0806 H       
@<TRIPOS>BOND
   1    1    2 1
   2    1    5 1
   3    1   37 1
   4    2    3 am
   5    2    9 1
   6    3    4 1
   7    3   15 2
   8    4    5 2
   9    4    6 1
  10    5   16 1
  11    6    7 2
  12    6    8 am
  13    8   17 1
  14    8   50 1
  15    9   10 ar
  16    9   14 ar
  17   10   11 ar
  18   10   51 1
  19   11   12 ar
  20   11   52 1
  21   12   13 ar
  22   12   53 1
  23   13   14 ar
  24   13   54 1
  25   14   55 1
  26   16   56 1
  27   16   57 1
  28   16   58 1
  29   17   18 ar
  30   17   22 ar
  31   18   19 ar
  32   18   59 1
  33   19   20 ar
  34   19   36 1
  35   20   21 ar
  36   20   23 1
  37   21   22 ar
  38   21   60 1
  39   22   61 1
  40   23   27 1
  41   24   25 ar
  42   24   33 ar
  43   25   26 ar
  44   25   62 1
  45   26   27 ar
  46   26   63 1
  47   27   28 ar
  48   28   29 ar
  49   28   33 ar
  50   29   30 ar
  51   29   64 1
  52   30   31 ar
  53   30   65 1
  54   31   32 ar
  55   31   34 1
  56   32   33 ar
  57   32   66 1
  58   34   35 1
  59   35   67 1
  60   35   68 1
  61   35   69 1
  62   37   38 1
  63   37   70 1
  64   37   71 1
  65   38   40 1
  66   38   72 1
  67   38   73 1
  68   39   40 am
  69   39   47 1
  70   39   49 2
  71   40   41 am
  72   41   42 1
  73   41   48 2
  74   42   43 ar
  75   42   47 ar
  76   43   44 ar
  77   43   74 1
  78   44   45 ar
  79   44   75 1
  80   45   46 ar
  81   45   76 1
  82   46   47 ar
  83   46   77 1

#	End of record

