#	Name: ASD09800019
#	Creating user name:	WinNT
#	Creation time:	15. 06. 2019 21:24

#	Modifying user name:	WinNT
#	Modification time:	15. 06. 2019 21:24

#	Program:	/corina/corina34_cracker 3.40 0067  02.08.2006

@<TRIPOS>MOLECULE
ASD09800019
  82   87    0    0    0
SMALL
NO_CHARGES


@<TRIPOS>ATOM
   1 N1            -0.0169     1.3923     0.0097 N.am    
   2 C2             0.0483    -0.0027     0.0037 C.ar    
   3 C3             1.1138    -0.6502     0.5900 C.ar    
   4 C4            -0.9796    -0.7597    -0.5980 C.ar    
   5 C5            -0.8945    -2.1735    -0.5934 C.ar    
   6 C6             0.2141    -2.7992     0.0118 C.ar    
   7 C7             1.1907    -2.0400     0.5908 C.ar    
   8 C8            -2.0848    -0.1377    -1.2002 C.ar    
   9 C9            -3.0585    -0.8993    -1.7710 C.ar    
  10 C10           -2.9753    -2.2903    -1.7664 C.ar    
  11 C11           -1.9177    -2.9268    -1.1923 C.ar    
  12 O12            0.3084    -4.1552     0.0238 O.3     
  13 C13            0.9393    -4.7583    -1.0130 C.ar    
  14 C14            1.0578    -6.1542    -1.0385 C.ar    
  15 N15            1.4342    -4.0260    -1.9961 N.ar    
  16 C16            1.7116    -6.7553    -2.1159 C.ar    
  17 C17            2.2166    -5.9414    -3.1167 C.ar    
  18 C18            2.0557    -4.5718    -3.0241 C.ar    
  19 C19            0.4994    -6.9780     0.0589 C.ar    
  20 N20           -0.1235    -6.4035     1.0859 N.ar    
  21 C21            0.6133    -8.3715     0.0293 C.ar    
  22 C22            0.0767    -9.0985     1.0758 C.ar    
  23 N23           -0.5244    -8.4595     2.0676 N.ar    
  24 C24           -0.6230    -7.1381     2.0674 C.ar    
  25 N25           -1.2589    -6.5092     3.1238 N.pl3   
  26 C26           -1.8125    -7.3036     4.2232 C.3     
  27 C27           -2.4558    -6.3718     5.2521 C.3     
  28 N28           -3.0110    -7.1684     6.3545 N.3     
  29 C29           -3.6383    -6.3050     7.3640 C.3     
  30 C30           -4.7023    -7.0992     8.1242 C.3     
  31 C31           -5.3556    -6.2000     9.1756 C.3     
  32 C32           -4.2907    -5.7054    10.1565 C.3     
  33 C33           -3.2267    -4.9112     9.3963 C.3     
  34 C34           -2.5733    -5.8104     8.3449 C.3     
  35 N35           -4.9180    -4.8420    11.1660 N.3     
  36 C36            2.1015     1.8660    -1.6822 C.ar    
  37 C37            1.7684     2.5760    -2.8206 C.ar    
  38 C38            2.3428     2.2460    -4.0339 C.ar    
  39 C39            3.2506     1.2062    -4.1087 C.ar    
  40 C40            3.5844     0.4967    -2.9702 C.ar    
  41 C41            3.0133     0.8296    -1.7562 C.ar    
  42 S42            1.3693     2.2866    -0.1358 S.o2    
  43 O43            0.9620     3.6439    -0.2406 O.2     
  44 O44            2.2571     1.8170     0.8695 O.2     
  45 C45            2.3728    -2.7172     1.2352 C.3     
  46 H46           -0.8745     1.8374     0.0951 H       
  47 H47            1.8991    -0.0722     1.0544 H       
  48 H48           -2.1625     0.9394    -1.2104 H       
  49 H49           -3.9076    -0.4184    -2.2337 H       
  50 H50           -3.7611    -2.8719    -2.2253 H       
  51 H51           -1.8661    -4.0055    -1.1964 H       
  52 H52            1.8212    -7.8285    -2.1676 H       
  53 H53            2.7279    -6.3737    -3.9641 H       
  54 H54            2.4491    -3.9372    -3.8044 H       
  55 H55            1.1085    -8.8681    -0.7920 H       
  56 H56            0.1469   -10.1762     1.0841 H       
  57 H57           -1.3380    -5.5425     3.1362 H       
  58 H58           -2.5650    -7.9890     3.8331 H       
  59 H59           -1.0137    -7.8732     4.6981 H       
  60 H60           -1.7033    -5.6864     5.6422 H       
  61 H61           -3.2547    -5.8023     4.7772 H       
  62 H62           -3.6643    -7.8560     6.0105 H       
  63 H63           -4.1044    -5.4510     6.8727 H       
  64 H64           -5.4610    -7.4516     7.4254 H       
  65 H65           -4.2362    -7.9533     8.6156 H       
  66 H66           -5.8217    -5.3460     8.6843 H       
  67 H67           -6.1137    -6.7659     9.7172 H       
  68 H68           -3.8246    -6.5595    10.6479 H       
  69 H69           -3.6928    -4.0571     8.9049 H       
  70 H70           -2.4680    -4.5588    10.0951 H       
  71 H71           -2.1072    -6.6644     8.8362 H       
  72 H72           -1.8153    -5.2446     7.8033 H       
  73 H73           -4.2347    -4.5023    11.8262 H       
  74 H74           -5.4121    -4.0773    10.7311 H       
  75 H75            1.0591     3.3883    -2.7621 H       
  76 H76            2.0820     2.8002    -4.9233 H       
  77 H77            3.6988     0.9479    -5.0568 H       
  78 H78            4.2934    -0.3158    -3.0288 H       
  79 H79            3.2741     0.2753    -0.8667 H       
  80 H80            3.1633    -2.8489     0.4964 H       
  81 H81            2.7413    -2.1018     2.0558 H       
  82 H82            2.0687    -3.6909     1.6194 H       
@<TRIPOS>BOND
   1    1    2 1
   2    1   42 am
   3    1   46 1
   4    2    3 ar
   5    2    4 ar
   6    3    7 ar
   7    3   47 1
   8    4    5 ar
   9    4    8 ar
  10    5    6 ar
  11    5   11 ar
  12    6    7 ar
  13    6   12 1
  14    7   45 1
  15    8    9 ar
  16    8   48 1
  17    9   10 ar
  18    9   49 1
  19   10   11 ar
  20   10   50 1
  21   11   51 1
  22   12   13 1
  23   13   14 ar
  24   13   15 ar
  25   14   16 ar
  26   14   19 1
  27   15   18 ar
  28   16   17 ar
  29   16   52 1
  30   17   18 ar
  31   17   53 1
  32   18   54 1
  33   19   20 ar
  34   19   21 ar
  35   20   24 ar
  36   21   22 ar
  37   21   55 1
  38   22   23 ar
  39   22   56 1
  40   23   24 ar
  41   24   25 1
  42   25   26 1
  43   25   57 1
  44   26   27 1
  45   26   58 1
  46   26   59 1
  47   27   28 1
  48   27   60 1
  49   27   61 1
  50   28   29 1
  51   28   62 1
  52   29   30 1
  53   29   34 1
  54   29   63 1
  55   30   31 1
  56   30   64 1
  57   30   65 1
  58   31   32 1
  59   31   66 1
  60   31   67 1
  61   32   33 1
  62   32   35 1
  63   32   68 1
  64   33   34 1
  65   33   69 1
  66   33   70 1
  67   34   71 1
  68   34   72 1
  69   35   73 1
  70   35   74 1
  71   36   37 ar
  72   36   42 1
  73   36   41 ar
  74   37   38 ar
  75   37   75 1
  76   38   39 ar
  77   38   76 1
  78   39   40 ar
  79   39   77 1
  80   40   41 ar
  81   40   78 1
  82   41   79 1
  83   42   43 2
  84   42   44 2
  85   45   80 1
  86   45   81 1
  87   45   82 1

#	End of record

