#	Name: ASD00310246
#	Creating user name:	WinNT
#	Creation time:	15. 06. 2019 18:34

#	Modifying user name:	WinNT
#	Modification time:	15. 06. 2019 18:34

#	Program:	/corina/corina34_cracker 3.40 0067  02.08.2006

@<TRIPOS>MOLECULE
ASD00310246
  40   43    0    0    0
SMALL
NO_CHARGES


@<TRIPOS>ATOM
   1 N1            -0.0163     1.3500     0.0060 N.pl3   
   2 C2             0.0019    -0.0038    -0.0185 C.2     
   3 C3             1.2919    -0.4480    -0.0413 C.2     
   4 C4             2.1474     0.7540    -0.0296 C.ar    
   5 C5             3.5230     0.9583    -0.0417 C.ar    
   6 C6             4.0242     2.2537    -0.0243 C.ar    
   7 C7             3.1469     3.3434     0.0054 C.ar    
   8 C8             1.7854     3.1433     0.0179 C.ar    
   9 C9             1.2696     1.8501     0.0002 C.ar    
  10 C10            1.7397    -1.8449    -0.0714 C.2     
  11 O11            2.9281    -2.1022    -0.0893 O.2     
  12 O12            0.8336    -2.8434    -0.0794 O.3     
  13 C13            5.4899     2.4819    -0.0365 C.ar    
  14 C14            6.0502     3.3720    -0.9515 C.ar    
  15 C15            7.4128     3.5824    -0.9610 C.ar    
  16 C16            8.2275     2.9081    -0.0595 C.ar    
  17 C17            7.6712     2.0199     0.8532 C.ar    
  18 C18            6.3085     1.8109     0.8706 C.ar    
  19 N19            9.6094     3.1232    -0.0711 N.am    
  20 C20           10.4650     2.6061     0.8274 C.2     
  21 C21           11.8770     3.0522     0.5178 C.3     
  22 C22           11.6945     4.2460    -0.4479 C.3     
  23 C23           10.3124     3.9374    -1.0696 C.3     
  24 O24           10.1507     1.8869     1.7521 O.2     
  25 Cl25           3.7806     4.9595     0.0270 Cl      
  26 H26           -0.8205     1.8921     0.0213 H       
  27 H27           -0.8731    -0.6369    -0.0194 H       
  28 H28            4.1974     0.1150    -0.0642 H       
  29 H29            1.1160     3.9906     0.0411 H       
  30 H30            1.1765    -3.7474    -0.0995 H       
  31 H31            5.4175     3.8960    -1.6525 H       
  32 H32            7.8473     4.2716    -1.6699 H       
  33 H33            8.3064     1.4967     1.5526 H       
  34 H34            5.8761     1.1245     1.5836 H       
  35 H35           12.3843     3.3720     1.4281 H       
  36 H36           12.4327     2.2501     0.0320 H       
  37 H37           11.6795     5.1898     0.0971 H       
  38 H38           12.4709     4.2512    -1.2128 H       
  39 H39           10.4296     3.3779    -1.9977 H       
  40 H40            9.7672     4.8633    -1.2528 H       
@<TRIPOS>BOND
   1    1    2 1
   2    1    9 1
   3    1   26 1
   4    2    3 2
   5    2   27 1
   6    3    4 1
   7    3   10 1
   8    4    5 ar
   9    4    9 ar
  10    5    6 ar
  11    5   28 1
  12    6    7 ar
  13    6   13 1
  14    7    8 ar
  15    7   25 1
  16    8    9 ar
  17    8   29 1
  18   10   11 2
  19   10   12 1
  20   12   30 1
  21   13   14 ar
  22   13   18 ar
  23   14   15 ar
  24   14   31 1
  25   15   16 ar
  26   15   32 1
  27   16   17 ar
  28   16   19 1
  29   17   18 ar
  30   17   33 1
  31   18   34 1
  32   19   20 am
  33   19   23 1
  34   20   21 1
  35   20   24 2
  36   21   22 1
  37   21   35 1
  38   21   36 1
  39   22   23 1
  40   22   37 1
  41   22   38 1
  42   23   39 1
  43   23   40 1

#	End of record

