#	Name: ASD00840093
#	Creating user name:	WinNT
#	Creation time:	15. 06. 2019 18:37

#	Modifying user name:	WinNT
#	Modification time:	15. 06. 2019 18:37

#	Program:	/corina/corina34_cracker 3.40 0067  02.08.2006

@<TRIPOS>MOLECULE
ASD00840093
  23   24    0    0    0
SMALL
NO_CHARGES


@<TRIPOS>ATOM
   1 C1            -0.0167     1.3788     0.0096 C.ar    
   2 C2             0.0021    -0.0041     0.0020 C.ar    
   3 N3             1.1411    -0.6698    -0.0124 N.ar    
   4 C4             2.3057    -0.0552    -0.0203 C.ar    
   5 C5             2.3724     1.3390    -0.0134 C.ar    
   6 C6             1.1808     2.0727     0.0019 C.ar    
   7 C7             3.6799     2.0289    -0.0217 C.2     
   8 C8             4.8818     1.4189    -0.0360 C.2     
   9 C9             5.9632     2.2756    -0.0413 C.2     
  10 C10            5.6555     3.5757    -0.0315 C.2     
  11 S11            3.9080     3.7730    -0.0221 S.3     
  12 C12            6.6552     4.7034    -0.0346 C.3     
  13 N13            6.9673     5.0772    -1.4206 N.3     
  14 H14           -0.9560     1.9117     0.0170 H       
  15 H15           -0.9310    -0.5480     0.0084 H       
  16 H16            3.2169    -0.6348    -0.0317 H       
  17 H17            1.1953     3.1526     0.0076 H       
  18 H18            4.9897     0.3443    -0.0424 H       
  19 H19            6.9834     1.9214    -0.0522 H       
  20 H20            6.2350     5.5629     0.4877 H       
  21 H21            7.5668     4.3821     0.4691 H       
  22 H22            6.1289     5.3173    -1.9279 H       
  23 H23            7.6362     5.8321    -1.4496 H       
@<TRIPOS>BOND
   1    1    2 ar
   2    1    6 ar
   3    1   14 1
   4    2    3 ar
   5    2   15 1
   6    3    4 ar
   7    4    5 ar
   8    4   16 1
   9    5    6 ar
  10    5    7 1
  11    6   17 1
  12    7    8 2
  13    7   11 1
  14    8    9 1
  15    8   18 1
  16    9   10 2
  17    9   19 1
  18   10   11 1
  19   10   12 1
  20   12   13 1
  21   12   20 1
  22   12   21 1
  23   13   22 1
  24   13   23 1

#	End of record

