#	Name: ASD01812794
#	Creating user name:	WinNT
#	Creation time:	15. 06. 2019 19:29

#	Modifying user name:	WinNT
#	Modification time:	15. 06. 2019 19:29

#	Program:	/corina/corina34_cracker 3.40 0067  02.08.2006

@<TRIPOS>MOLECULE
ASD01812794
  46   49    0    0    0
SMALL
NO_CHARGES


@<TRIPOS>ATOM
   1 C1            -0.0167     1.3765     0.0233 C.ar    
   2 C2             0.0018    -0.0040     0.0178 C.ar    
   3 C3             1.2084    -0.6873    -0.0064 C.ar    
   4 C4             2.3936     0.0073    -0.0256 C.ar    
   5 C5             2.3937     1.4055    -0.0208 C.ar    
   6 C6             1.1718     2.0915     0.0041 C.ar    
   7 C7             3.8405    -0.4180    -0.0538 C.3     
   8 N8             4.6306     0.8185    -0.0642 N.am    
   9 C9             3.7910     1.8681    -0.0451 C.2     
  10 C10            6.0933     0.8963    -0.0905 C.3     
  11 C11            6.5690     0.9275    -1.5201 C.ar    
  12 C12            6.7240     2.1391    -2.1717 C.ar    
  13 C13            7.1609     2.1677    -3.4850 C.ar    
  14 C14            7.4434     0.9849    -4.1464 C.ar    
  15 C15            7.2893    -0.2265    -3.4945 C.ar    
  16 C16            6.8565    -0.2550    -2.1799 C.ar    
  17 O17            1.1515     3.4479     0.0091 O.3     
  18 O18            4.1366     3.0338    -0.0471 O.2     
  19 F19            7.8690     1.0129    -5.4284 F       
  20 F20            6.7106    -1.4370    -1.5422 F       
  21 F21            6.4483     3.2934    -1.5262 F       
  22 C22           -0.1276     4.0779    -0.0868 C.3     
  23 C23            0.0357     5.4819    -0.6770 C.3     
  24 C24           -1.3276     6.1779    -0.7027 C.3     
  25 O25           -1.8630     6.2230     0.6214 O.3     
  26 C26           -2.0816     4.9376     1.2064 C.3     
  27 C27           -0.7486     4.1918     1.3089 C.3     
  28 O28            0.5471     5.3839    -2.0078 O.3     
  29 H29           -0.9603     1.9017     0.0381 H       
  30 H30           -0.9274    -0.5542     0.0328 H       
  31 H31            1.2163    -1.7672    -0.0099 H       
  32 H32            4.0758    -1.0055     0.8337 H       
  33 H33            4.0427    -0.9994    -0.9533 H       
  34 H34            6.4182     1.8027     0.4204 H       
  35 H35            6.5126     0.0252     0.4130 H       
  36 H36            7.2811     3.1129    -3.9936 H       
  37 H37            7.5093    -1.1493    -4.0107 H       
  38 H38           -0.7786     3.4855    -0.7297 H       
  39 H39            0.7280     6.0572    -0.0623 H       
  40 H40           -1.2103     7.1930    -1.0822 H       
  41 H41           -2.0065     5.6236    -1.3507 H       
  42 H42           -2.5075     5.0592     2.2024 H       
  43 H43           -2.7704     4.3671     0.5834 H       
  44 H44           -0.9194     3.1944     1.7140 H       
  45 H45           -0.0731     4.7414     1.9644 H       
  46 H46            0.6757     6.2375    -2.4436 H       
@<TRIPOS>BOND
   1    1    2 ar
   2    1    6 ar
   3    1   29 1
   4    2    3 ar
   5    2   30 1
   6    3    4 ar
   7    3   31 1
   8    4    7 1
   9    4    5 ar
  10    5    6 ar
  11    5    9 1
  12    6   17 1
  13    7    8 1
  14    7   32 1
  15    7   33 1
  16    8    9 am
  17    8   10 1
  18    9   18 2
  19   10   11 1
  20   10   34 1
  21   10   35 1
  22   11   12 ar
  23   11   16 ar
  24   12   13 ar
  25   12   21 1
  26   13   14 ar
  27   13   36 1
  28   14   15 ar
  29   14   19 1
  30   15   16 ar
  31   15   37 1
  32   16   20 1
  33   17   22 1
  34   22   23 1
  35   22   27 1
  36   22   38 1
  37   23   28 1
  38   23   24 1
  39   23   39 1
  40   24   25 1
  41   24   40 1
  42   24   41 1
  43   25   26 1
  44   26   27 1
  45   26   42 1
  46   26   43 1
  47   27   44 1
  48   27   45 1
  49   28   46 1

#	End of record

