#	Name: ASD09890077
#	Creating user name:	WinNT
#	Creation time:	15. 06. 2019 21:24

#	Modifying user name:	WinNT
#	Modification time:	15. 06. 2019 21:24

#	Program:	/corina/corina34_cracker 3.40 0067  02.08.2006

@<TRIPOS>MOLECULE
ASD09890077
  42   45    0    0    0
SMALL
NO_CHARGES


@<TRIPOS>ATOM
   1 C1            -0.0176     1.3671     0.0633 C.2     
   2 N2            -0.0054    -0.0002     0.0336 N.pl3   
   3 C3            -1.2997    -0.4352     0.1158 C.2     
   4 N4            -2.0760     0.6192     0.1928 N.2     
   5 N5            -1.2621     1.7592     0.1652 N.2     
   6 S6            -1.8303    -2.1154     0.1173 S.3     
   7 C7            -3.6340    -1.9735     0.2479 C.3     
   8 C8             1.1336    -0.8132    -0.0644 C.ar    
   9 C9             2.0773    -0.8327     0.9584 C.ar    
  10 C10            3.1858    -1.6518     0.8159 C.ar    
  11 C11            3.3173    -2.4165    -0.3279 C.ar    
  12 N12            2.4049    -2.3749    -1.2793 N.ar    
  13 C13            1.3331    -1.6143    -1.1805 C.ar    
  14 C14           -4.2816    -3.3650     0.1375 C.3     
  15 C15           -5.0398    -3.6044     1.4595 C.3     
  16 C16           -5.3171    -2.1802     2.0015 C.3     
  17 C17           -4.0213    -1.4159     1.6331 C.3     
  18 O18            1.0701     2.1752     0.0035 O.3     
  19 C19            0.8649     3.5155    -0.0919 C.ar    
  20 C20           -0.4172     4.0097    -0.2837 C.ar    
  21 C21            1.9366     4.3909     0.0081 C.ar    
  22 C22            1.7264     5.7528    -0.0886 C.ar    
  23 C23            0.4469     6.2443    -0.2853 C.ar    
  24 C24           -0.6243     5.3721    -0.3801 C.ar    
  25 F25            0.2428     7.5764    -0.3793 F       
  26 H26           -4.0149    -1.3211    -0.5379 H       
  27 H27            1.9489    -0.2241     1.8413 H       
  28 H28            3.9384    -1.6919     1.5895 H       
  29 H29            4.1793    -3.0568    -0.4442 H       
  30 H30            0.6076    -1.6066    -1.9805 H       
  31 H31           -4.9773    -3.3876    -0.7013 H       
  32 H32           -3.5120    -4.1255     0.0054 H       
  33 H33           -5.9759    -4.1304     1.2725 H       
  34 H34           -4.4194    -4.1647     2.1590 H       
  35 H35           -6.1807    -1.7388     1.5039 H       
  36 H36           -5.4605    -2.1992     3.0819 H       
  37 H37           -3.2365    -1.6227     2.3607 H       
  38 H38           -4.2143    -0.3448     1.5728 H       
  39 H39           -1.2529     3.3296    -0.3580 H       
  40 H40            2.9346     4.0079     0.1618 H       
  41 H41            2.5604     6.4345    -0.0105 H       
  42 H42           -1.6216     5.7569    -0.5338 H       
@<TRIPOS>BOND
   1    1    2 1
   2    1   18 1
   3    1    5 2
   4    2    3 1
   5    2    8 1
   6    3    4 2
   7    3    6 1
   8    4    5 1
   9    6    7 1
  10    7   14 1
  11    7   17 1
  12    7   26 1
  13    8    9 ar
  14    8   13 ar
  15    9   10 ar
  16    9   27 1
  17   10   11 ar
  18   10   28 1
  19   11   12 ar
  20   11   29 1
  21   12   13 ar
  22   13   30 1
  23   14   15 1
  24   14   31 1
  25   14   32 1
  26   15   16 1
  27   15   33 1
  28   15   34 1
  29   16   17 1
  30   16   35 1
  31   16   36 1
  32   17   37 1
  33   17   38 1
  34   18   19 1
  35   19   20 ar
  36   19   21 ar
  37   20   24 ar
  38   20   39 1
  39   21   22 ar
  40   21   40 1
  41   22   23 ar
  42   22   41 1
  43   23   24 ar
  44   23   25 1
  45   24   42 1

#	End of record

