#	Name: ASD01810464
#	Creating user name:	WinNT
#	Creation time:	15. 06. 2019 19:24

#	Modifying user name:	WinNT
#	Modification time:	15. 06. 2019 19:24

#	Program:	/corina/corina34_cracker 3.40 0067  02.08.2006

@<TRIPOS>MOLECULE
ASD01810464
  37   39    0    0    0
SMALL
NO_CHARGES


@<TRIPOS>ATOM
   1 C1            -0.0172     1.4155     0.0098 C.ar    
   2 C2             0.0021    -0.0041     0.0020 C.ar    
   3 C3             1.2027     2.1178     0.0019 C.ar    
   4 C4             2.3624     1.3981    -0.0130 C.ar    
   5 C5             2.3132    -0.0041    -0.0202 C.ar    
   6 N6             1.1653    -0.6539    -0.0122 N.ar    
   7 C7             3.5799    -0.7728    -0.0370 C.2     
   8 C8             1.2276     3.6246     0.0094 C.3     
   9 C9             1.1254     4.1217     1.4283 C.ar    
  10 O10            4.6444    -0.1888    -0.0444 O.2     
  11 O11            3.5506    -2.1191    -0.0440 O.3     
  12 C12            2.2729     4.3292     2.1713 C.ar    
  13 C13            2.1818     4.7848     3.4723 C.ar    
  14 C14            0.9377     5.0343     4.0332 C.ar    
  15 C15           -0.2121     4.8254     3.2856 C.ar    
  16 C16           -0.1155     4.3750     1.9832 C.ar    
  17 C17           -1.2195    -0.7042     0.0100 C.ar    
  18 C18           -2.3921    -0.0150     0.0250 C.ar    
  19 C19           -2.4076     1.3789     0.0325 C.ar    
  20 C20           -1.2473     2.0915     0.0310 C.ar    
  21 O21            0.8455     5.4822     5.3129 O.3     
  22 C22           -0.4677     5.7177     5.8248 C.3     
  23 H23            3.3152     1.9066    -0.0198 H       
  24 H24            2.1607     3.9747    -0.4319 H       
  25 H25            0.3864     4.0048    -0.5703 H       
  26 H26            4.4023    -2.5768    -0.0550 H       
  27 H27            3.2411     4.1345     1.7343 H       
  28 H28            3.0784     4.9464     4.0523 H       
  29 H29           -1.1818     5.0188     3.7200 H       
  30 H30           -1.0103     4.2122     1.4008 H       
  31 H31           -1.2254    -1.7842     0.0040 H       
  32 H32           -3.3265    -0.5565     0.0307 H       
  33 H33           -3.3530     1.9008     0.0440 H       
  34 H34           -1.2733     3.1712     0.0369 H       
  35 H35           -0.9660     6.4708     5.2143 H       
  36 H36           -1.0402     4.7905     5.7970 H       
  37 H37           -0.3987     6.0714     6.8535 H       
@<TRIPOS>BOND
   1    1    2 ar
   2    1    3 ar
   3    1   20 ar
   4    2   17 ar
   5    2    6 ar
   6    3    4 ar
   7    3    8 1
   8    4    5 ar
   9    4   23 1
  10    5    6 ar
  11    5    7 1
  12    7   10 2
  13    7   11 1
  14    8    9 1
  15    8   24 1
  16    8   25 1
  17    9   12 ar
  18    9   16 ar
  19   11   26 1
  20   12   13 ar
  21   12   27 1
  22   13   14 ar
  23   13   28 1
  24   14   15 ar
  25   14   21 1
  26   15   16 ar
  27   15   29 1
  28   16   30 1
  29   17   18 ar
  30   17   31 1
  31   18   19 ar
  32   18   32 1
  33   19   20 ar
  34   19   33 1
  35   20   34 1
  36   21   22 1
  37   22   35 1
  38   22   36 1
  39   22   37 1

#	End of record

