#	Name: ASD01151091
#	Creating user name:	WinNT
#	Creation time:	15. 06. 2019 19:05

#	Modifying user name:	WinNT
#	Modification time:	15. 06. 2019 19:05

#	Program:	/corina/corina34_cracker 3.40 0067  02.08.2006

@<TRIPOS>MOLECULE
ASD01151091
  58   61    0    0    0
SMALL
NO_CHARGES


@<TRIPOS>ATOM
   1 C1            -0.0184     1.5028     0.0103 C.3     
   2 C2             0.0021    -0.0041     0.0020 C.ar    
   3 N3             0.0051    -0.6371    -1.1575 N.ar    
   4 C4             0.0227    -1.9534    -1.2197 C.ar    
   5 C5             0.0263    -2.6552    -2.5532 C.3     
   6 N6             1.4124    -2.8645    -2.9927 N.3     
   7 C7             2.2115    -1.6458    -2.8116 C.3     
   8 C8             3.6765    -1.9413    -3.1410 C.3     
   9 C9             3.7804    -2.4319    -4.5877 C.3     
  10 H10            3.4406    -1.6473    -5.2638 H       
  11 O11            5.1389    -2.7620    -4.8837 O.3     
  12 C12            2.9012    -3.6734    -4.7618 C.3     
  13 H13            3.2652    -4.4708    -4.1139 H       
  14 O14            2.9494    -4.1052    -6.1231 O.3     
  15 C15            1.4586    -3.3277    -4.3854 C.3     
  16 C16            0.0386    -2.6953    -0.0220 C.ar    
  17 C17            0.0592    -4.1299     0.1985 C.2     
  18 C18            0.0702    -4.4951     1.4653 C.2     
  19 S19            0.0564    -3.1056     2.5347 S.3     
  20 C20            0.0346    -1.9810     1.1845 C.ar    
  21 N21            0.0217    -0.6458     1.1477 N.ar    
  22 C22            0.0911    -5.9268     1.9352 C.3     
  23 C23            1.3478    -6.1702     2.7733 C.3     
  24 C24            1.3691    -7.6238     3.2503 C.3     
  25 C25            0.1275    -7.8997     4.1008 C.3     
  26 C26            0.1488    -9.3533     4.5778 C.3     
  27 C27            0.1214    -6.9654     5.3124 C.3     
  28 C28           -1.1292    -7.6563     3.2627 C.3     
  29 C29           -1.1504    -6.2027     2.7857 C.3     
  30 H30            1.0042     1.8801     0.0026 H       
  31 H31           -0.5455     1.8639    -0.8728 H       
  32 H32           -0.5286     1.8543     0.9071 H       
  33 H33           -0.4740    -3.6189    -2.4580 H       
  34 H34           -0.4991    -2.0439    -3.2870 H       
  35 H35            1.8400    -0.8658    -3.4762 H       
  36 H36            2.1323    -1.3099    -1.7777 H       
  37 H37            4.2667    -1.0328    -3.0216 H       
  38 H38            4.0527    -2.7115    -2.4677 H       
  39 H39            5.7532    -2.0212    -4.7893 H       
  40 H40            2.4140    -4.8893    -6.3063 H       
  41 H41            0.8326    -4.2133    -4.4945 H       
  42 H42            1.0907    -2.5398    -5.0426 H       
  43 H43            0.0647    -4.8430    -0.6125 H       
  44 H44            0.0955    -6.5925     1.0720 H       
  45 H45            2.2323    -5.9737     2.1674 H       
  46 H46            1.3434    -5.5046     3.6365 H       
  47 H47            1.3735    -8.2894     2.3872 H       
  48 H48            2.2644    -7.7972     3.8474 H       
  49 H49            1.0441    -9.5267     5.1749 H       
  50 H50           -0.7357    -9.5498     5.1837 H       
  51 H51            0.1532   -10.0189     3.7147 H       
  52 H52            0.1062    -5.9298     4.9725 H       
  53 H53           -0.7632    -7.1619     5.9183 H       
  54 H54            1.0166    -7.1388     5.9095 H       
  55 H55           -1.1248    -8.3219     2.3995 H       
  56 H56           -2.0137    -7.8529     3.8686 H       
  57 H57           -1.1548    -5.5371     3.6488 H       
  58 H58           -2.0457    -6.0293     2.1886 H       
@<TRIPOS>BOND
   1    1    2 1
   2    1   30 1
   3    1   31 1
   4    1   32 1
   5    2   21 ar
   6    2    3 ar
   7    3    4 ar
   8    4    5 1
   9    4   16 ar
  10    5    6 1
  11    5   33 1
  12    5   34 1
  13    6   15 1
  14    6    7 1
  15    7    8 1
  16    7   35 1
  17    7   36 1
  18    8    9 1
  19    8   37 1
  20    8   38 1
  21    9   10 1
  22    9   11 1
  23    9   12 1
  24   11   39 1
  25   12   13 1
  26   12   14 1
  27   12   15 1
  28   14   40 1
  29   15   41 1
  30   15   42 1
  31   16   20 ar
  32   16   17 1
  33   17   18 2
  34   17   43 1
  35   18   19 1
  36   18   22 1
  37   19   20 1
  38   20   21 ar
  39   22   29 1
  40   22   23 1
  41   22   44 1
  42   23   24 1
  43   23   45 1
  44   23   46 1
  45   24   25 1
  46   24   47 1
  47   24   48 1
  48   25   26 1
  49   25   27 1
  50   25   28 1
  51   26   49 1
  52   26   50 1
  53   26   51 1
  54   27   52 1
  55   27   53 1
  56   27   54 1
  57   28   29 1
  58   28   55 1
  59   28   56 1
  60   29   57 1
  61   29   58 1

#	End of record

