#	Name: ASD01908036
#	Creating user name:	WinNT
#	Creation time:	15. 06. 2019 19:54

#	Modifying user name:	WinNT
#	Modification time:	15. 06. 2019 19:54

#	Program:	/corina/corina34_cracker 3.40 0067  02.08.2006

@<TRIPOS>MOLECULE
ASD01908036
  32   33    0    0    0
SMALL
NO_CHARGES


@<TRIPOS>ATOM
   1 C1             0.0021    -0.0041     0.0020 C.1     
   2 C2            -0.0179     1.4678     0.0101 C.3     
   3 C3             1.3959     1.9894    -0.0006 C.2     
   4 N4             0.0175    -1.1399    -0.0042 N.1     
   5 O5             1.9233     2.2909    -1.0507 O.2     
   6 N6             3.7217     2.5669     2.7134 N.pl3   
   7 N7             2.6064     2.0854     3.4075 N.2     
   8 C8             1.6559     1.8235     2.5545 C.2     
   9 C9             2.1343     2.1326     1.2586 C.2     
  10 C10            3.4313     2.5946     1.4042 C.2     
  11 C11            4.9920     2.9779     3.3163 C.3     
  12 C12            4.7329     4.0242     4.3695 C.ar    
  13 C13            4.5004     3.6433     5.6782 C.ar    
  14 C14            4.2626     4.6004     6.6455 C.ar    
  15 C15            4.2573     5.9448     6.3029 C.ar    
  16 C16            4.4909     6.3243     4.9892 C.ar    
  17 C17            4.7338     5.3636     4.0266 C.ar    
  18 O18            4.0232     6.8882     7.2526 O.3     
  19 C19            4.0327     8.2526     6.8279 C.3     
  20 Br20          -0.9688     2.1190    -1.5826 Br      
  21 H21           -0.5281     1.8193     0.9069 H       
  22 H22            0.6759     1.4381     2.7943 H       
  23 H23            4.0881     2.9178     0.6101 H       
  24 H24            5.4737     2.1136     3.7735 H       
  25 H25            5.6429     3.3913     2.5459 H       
  26 H26            4.5042     2.5966     5.9443 H       
  27 H27            4.0807     4.3024     7.6675 H       
  28 H28            4.4873     7.3703     4.7200 H       
  29 H29            4.9204     5.6588     3.0047 H       
  30 H30            5.0088     8.4956     6.4080 H       
  31 H31            3.2637     8.4027     6.0702 H       
  32 H32            3.8330     8.9003     7.6816 H       
@<TRIPOS>BOND
   1    1    2 1
   2    1    4 3
   3    2    3 1
   4    2   20 1
   5    2   21 1
   6    3    5 2
   7    3    9 1
   8    6    7 1
   9    6   10 1
  10    6   11 1
  11    7    8 2
  12    8    9 1
  13    8   22 1
  14    9   10 2
  15   10   23 1
  16   11   12 1
  17   11   24 1
  18   11   25 1
  19   12   13 ar
  20   12   17 ar
  21   13   14 ar
  22   13   26 1
  23   14   15 ar
  24   14   27 1
  25   15   16 ar
  26   15   18 1
  27   16   17 ar
  28   16   28 1
  29   17   29 1
  30   18   19 1
  31   19   30 1
  32   19   31 1
  33   19   32 1

#	End of record

