#	Name: ASD04560082
#	Creating user name:	WinNT
#	Creation time:	15. 06. 2019 20:49

#	Modifying user name:	WinNT
#	Modification time:	15. 06. 2019 20:49

#	Program:	/corina/corina34_cracker 3.40 0067  02.08.2006

@<TRIPOS>MOLECULE
ASD04560082
  61   64    0    0    0
SMALL
NO_CHARGES


@<TRIPOS>ATOM
   1 C1            -0.0173     1.3666     0.0244 C.ar    
   2 C2             0.0010    -0.0041     0.0240 C.ar    
   3 C3             1.2157    -0.6859     0.0136 C.ar    
   4 C4             2.4151     0.0225     0.0034 C.ar    
   5 C5             2.4031     1.3933     0.0042 C.ar    
   6 C6             1.1852     2.0805     0.0143 C.ar    
   7 C7             1.1690     3.5549     0.0146 C.2     
   8 O8             2.2154     4.1746     0.0062 O.2     
   9 N9            -0.0055     4.2159     0.0243 N.am    
  10 C10           -0.0226     5.6108     0.1376 C.ar    
  11 C11           -0.9920     6.3506    -0.5268 C.ar    
  12 C12            0.9074     7.6331     1.0301 C.ar    
  13 C13            0.9263     6.2566     0.9193 C.ar    
  14 S14            1.2351    -2.4478     0.0137 S.3     
  15 C15           -1.0073     7.7269    -0.4133 C.ar    
  16 C16           -0.0567     8.3693     0.3621 C.ar    
  17 C17            3.0069    -2.8364    -0.0017 C.3     
  18 C18            3.1961    -4.3547    -0.0030 C.3     
  19 F19           -0.0734     9.7157     0.4718 F       
  20 C20            4.6844    -4.6829    -0.1417 C.3     
  21 C21            4.8667    -6.2035    -0.1776 C.3     
  22 N22            4.2289    -6.7844     1.0118 N.am    
  23 C23            2.8232    -6.4594     1.2894 C.3     
  24 C24            2.6638    -4.9360     1.3088 C.3     
  25 C25            4.9201    -7.6001     1.8323 C.2     
  26 O26            6.0821    -7.8615     1.5916 O.2     
  27 O27            4.3231    -8.1254     2.9188 O.3     
  28 C28            5.1282    -8.9954     3.7574 C.3     
  29 C29            4.2982    -9.4848     4.9162 C.ar    
  30 C30            3.5707   -10.6545     4.8000 C.ar    
  31 C31            4.2688    -8.7670     6.0972 C.ar    
  32 C32            3.5075    -9.2158     7.1601 C.ar    
  33 C33            2.7752   -10.3823     7.0419 C.ar    
  34 C34            2.8094   -11.1033     5.8629 C.ar    
  35 H35           -0.9594     1.8947     0.0280 H       
  36 H36           -0.9274    -0.5560     0.0322 H       
  37 H37            3.3553    -0.5088    -0.0047 H       
  38 H38            3.3333     1.9420    -0.0029 H       
  39 H39           -0.8390     3.7249    -0.0472 H       
  40 H40           -1.7331     5.8500    -1.1322 H       
  41 H41            1.6452     8.1357     1.6379 H       
  42 H42            1.6784     5.6828     1.4404 H       
  43 H43           -1.7610     8.3026    -0.9299 H       
  44 H44            3.4641    -2.4125    -0.8957 H       
  45 H45            3.4796    -2.4122     0.8841 H       
  46 H46            2.6491    -4.7880    -0.8404 H       
  47 H47            5.0682    -4.2486    -1.0649 H       
  48 H48            5.2285    -4.2712     0.7083 H       
  49 H49            4.3996    -6.6065    -1.0762 H       
  50 H50            5.9297    -6.4442    -0.1765 H       
  51 H51            2.1895    -6.8833     0.5104 H       
  52 H52            2.5380    -6.8690     2.2584 H       
  53 H53            3.2269    -4.5219     2.1452 H       
  54 H54            1.6095    -4.6818     1.4181 H       
  55 H55            5.4726    -9.8477     3.1717 H       
  56 H56            5.9883    -8.4422     4.1346 H       
  57 H57            3.5969   -11.2174     3.8787 H       
  58 H58            4.8409    -7.8556     6.1896 H       
  59 H59            3.4851    -8.6554     8.0830 H       
  60 H60            2.1807   -10.7332     7.8724 H       
  61 H61            2.2373   -12.0147     5.7706 H       
@<TRIPOS>BOND
   1    1    2 ar
   2    1    6 ar
   3    1   35 1
   4    2    3 ar
   5    2   36 1
   6    3    4 ar
   7    3   14 1
   8    4    5 ar
   9    4   37 1
  10    5    6 ar
  11    5   38 1
  12    6    7 1
  13    7    8 2
  14    7    9 am
  15    9   10 1
  16    9   39 1
  17   10   11 ar
  18   10   13 ar
  19   11   15 ar
  20   11   40 1
  21   12   13 ar
  22   12   16 ar
  23   12   41 1
  24   13   42 1
  25   14   17 1
  26   15   16 ar
  27   15   43 1
  28   16   19 1
  29   17   18 1
  30   17   44 1
  31   17   45 1
  32   18   20 1
  33   18   24 1
  34   18   46 1
  35   20   21 1
  36   20   47 1
  37   20   48 1
  38   21   22 1
  39   21   49 1
  40   21   50 1
  41   22   23 1
  42   22   25 am
  43   23   24 1
  44   23   51 1
  45   23   52 1
  46   24   53 1
  47   24   54 1
  48   25   26 2
  49   25   27 1
  50   27   28 1
  51   28   29 1
  52   28   55 1
  53   28   56 1
  54   29   30 ar
  55   29   31 ar
  56   30   34 ar
  57   30   57 1
  58   31   32 ar
  59   31   58 1
  60   32   33 ar
  61   32   59 1
  62   33   34 ar
  63   33   60 1
  64   34   61 1

#	End of record

