#	Name: ASD02440014
#	Creating user name:	WinNT
#	Creation time:	15. 06. 2019 20:21

#	Modifying user name:	WinNT
#	Modification time:	15. 06. 2019 20:21

#	Program:	/corina/corina34_cracker 3.40 0067  02.08.2006

@<TRIPOS>MOLECULE
ASD02440014
 121  124    0    0    0
SMALL
NO_CHARGES


@<TRIPOS>ATOM
   1 C1            -2.4291     5.1121    -0.2197 C.3     
   2 C2            -2.7282     3.6233    -0.4053 C.3     
   3 C3            -2.3683     3.2048    -1.8323 C.3     
   4 C4            -0.8799     3.4602    -2.0780 C.3     
   5 C5            -0.5808     4.9491    -1.8928 C.3     
   6 C6            -0.9409     5.3689    -0.4661 C.3     
   7 C7            -0.6440     6.8580    -0.2843 C.3     
   8 C8             0.9067     5.2058    -2.1418 C.3     
   9 C9             1.2073     6.6944    -1.9540 C.3     
  10 C10            0.8528     7.1085    -0.5250 C.3     
  11 C11           -0.7008     8.7804     1.3591 C.3     
  12 C12           -1.0704     7.3086     1.1088 C.3     
  13 C13            0.7966     8.9100     1.1607 C.3     
  14 C14            1.3915    10.3015     1.3498 C.3     
  15 C15            1.0971     8.5930    -0.3294 C.3     
  16 C16            2.5532     9.0539    -0.4565 C.3     
  17 C17            2.5679    10.3839     0.3454 C.3     
  18 N18           -2.6560     1.7753    -2.0107 N.3     
  19 C19           -4.0642     1.5626    -2.3708 C.3     
  20 C20           -4.3248     0.0654    -2.5477 C.3     
  21 C21           -5.7915    -0.1562    -2.9227 C.3     
  22 N22           -6.0417    -1.5937    -3.0926 N.3     
  23 C23           -7.4432    -1.8450    -3.4540 C.3     
  24 C24           -7.6647    -3.3495    -3.6219 C.3     
  25 C25           -9.1244    -3.6113    -3.9983 C.3     
  26 C26           -9.3459    -5.1158    -4.1662 C.3     
  27 N27          -10.7474    -5.3671    -4.5276 N.3     
  28 C28          -10.9976    -6.8047    -4.6975 C.3     
  29 C29          -12.4643    -7.0262    -5.0725 C.3     
  30 C30          -12.7249    -8.5234    -5.2495 C.3     
  31 N31          -14.1331    -8.7361    -5.6096 N.3     
  32 C32           -0.1110     4.5563     0.5299 C.3     
  33 C33            1.5258     7.9092     2.0593 C.3     
  34 H34            1.4422     6.5269     0.1837 H       
  35 H35           -1.1717     5.5290    -2.6018 H       
  36 O36            0.4295     7.4579    -2.8782 O.3     
  37 H37           -1.2186     7.4239    -1.0175 H       
  38 H38            0.4558     9.1734    -0.9928 H       
  39 H39            0.6470    11.0646     1.1230 H       
  40 C40            1.9042    10.4687     2.7816 C.3     
  41 C41            2.6324    11.8083     2.9094 C.3     
  42 C42            3.2521    11.9209     4.3038 C.3     
  43 C43            3.9319    13.2836     4.4512 C.3     
  44 C44            5.2492    13.2833     3.6731 C.3     
  45 C45            6.0792    12.0628     4.0761 C.3     
  46 C46            4.9553    13.2273     2.1726 C.3     
  47 C47            4.2132    13.5559     5.9302 C.3     
  48 S48            4.9619    15.1983     6.1110 S.o2    
  49 O49            6.2841    15.2036     5.5904 O.2     
  50 O50            4.0312    16.2122     5.7573 O.2     
  51 O51            5.1487    15.3673     7.6120 O.3     
  52 C52            0.7230    10.4356     3.7535 C.3     
  53 H53           -3.0200     5.6924    -0.9283 H       
  54 H54           -2.6857     5.4102     0.7969 H       
  55 H55           -2.1375     3.0429     0.3034 H       
  56 H56           -3.7884     3.4410    -0.2296 H       
  57 H57           -2.9586     3.7855    -2.5411 H       
  58 H58           -0.2897     2.8800    -1.3686 H       
  59 H59           -0.6229     3.1616    -3.0943 H       
  60 H60            1.4988     4.6237    -1.4356 H       
  61 H61            1.1610     4.9095    -3.1595 H       
  62 H62            2.2669     6.8766    -2.1330 H       
  63 H63           -1.2255     9.4202     0.6496 H       
  64 H64           -0.9653     9.0608     2.3786 H       
  65 H65           -2.1495     7.1901     1.2073 H       
  66 H66           -0.5748     6.6849     1.8527 H       
  67 H67            3.2288     8.3256    -0.0080 H       
  68 H68            2.8122     9.2301    -1.5006 H       
  69 H69            2.4259    11.2288    -0.3286 H       
  70 H70            3.5113    10.4870     0.8817 H       
  71 H71           -2.0412     1.3658    -2.6980 H       
  72 H72           -4.7044     1.9518    -1.5791 H       
  73 H73           -4.2832     2.0822    -3.3036 H       
  74 H74           -3.6846    -0.3238    -3.3394 H       
  75 H75           -4.1058    -0.4543    -1.6149 H       
  76 H76           -6.4317     0.2330    -2.1311 H       
  77 H77           -6.0105     0.3635    -3.8556 H       
  78 H78           -5.4151    -1.9915    -3.7762 H       
  79 H79           -8.0949    -1.4675    -2.6660 H       
  80 H80           -7.6737    -1.3371    -4.3905 H       
  81 H81           -7.0130    -3.7270    -4.4099 H       
  82 H82           -7.4343    -3.8575    -2.6854 H       
  83 H83           -9.7761    -3.2338    -3.2103 H       
  84 H84           -9.3548    -3.1034    -4.9348 H       
  85 H85           -8.6942    -5.4933    -4.9542 H       
  86 H86           -9.1155    -5.6238    -3.2297 H       
  87 H87          -11.3740    -4.9693    -3.8441 H       
  88 H88          -10.3574    -7.1938    -5.4891 H       
  89 H89          -10.7786    -7.3243    -3.7647 H       
  90 H90          -13.1045    -6.6370    -4.2809 H       
  91 H91          -12.6833    -6.5066    -6.0053 H       
  92 H92          -12.0847    -8.9126    -6.0411 H       
  93 H93          -12.5060    -9.0431    -4.3167 H       
  94 H94          -14.3307    -9.7180    -5.7321 H       
  95 H95          -14.7479    -8.3266    -4.9223 H       
  96 H96           -0.3230     3.4952     0.3989 H       
  97 H97            0.9490     4.7394     0.3541 H       
  98 H98           -0.3678     4.8554     1.5461 H       
  99 H99            1.1752     6.9008     1.8394 H       
 100 H100           2.5984     7.9693     1.8745 H       
 101 H101           1.3234     8.1444     3.1042 H       
 102 H102           0.6022     7.2468    -3.8060 H       
 103 H103           2.5923     9.6571     3.0183 H       
 104 H104           3.4183    11.8678     2.1566 H       
 105 H105           1.9236    12.6228     2.7600 H       
 106 H106           2.4712    11.8210     5.0576 H       
 107 H107           3.9902    11.1302     4.4382 H       
 108 H108           3.2772    14.0608     4.0568 H       
 109 H109           5.8058    14.1924     3.9006 H       
 110 H110           5.5863    11.1562     3.7250 H       
 111 H111           7.0706    12.1338     3.6287 H       
 112 H112           6.1720    12.0288     5.1616 H       
 113 H113           3.9832    13.6793     1.9757 H       
 114 H114           5.7268    13.7741     1.6306 H       
 115 H115           4.9465    12.1884     1.8426 H       
 116 H116           3.2791    13.5187     6.4906 H       
 117 H117           4.8980    12.8001     6.3149 H       
 118 H118           5.5456    16.2117     7.8663 H       
 119 H119           0.1755     9.5014     3.6282 H       
 120 H120           1.0922    10.5059     4.7766 H       
 121 H121           0.0597    11.2758     3.5480 H       
@<TRIPOS>BOND
   1    1    2 1
   2    1    6 1
   3    1   53 1
   4    1   54 1
   5    2    3 1
   6    2   55 1
   7    2   56 1
   8    3    4 1
   9    3   18 1
  10    3   57 1
  11    4    5 1
  12    4   58 1
  13    4   59 1
  14    5    6 1
  15    5    8 1
  16    5   35 1
  17    6    7 1
  18    6   32 1
  19    7   10 1
  20    7   37 1
  21    7   12 1
  22    8    9 1
  23    8   60 1
  24    8   61 1
  25    9   10 1
  26    9   36 1
  27    9   62 1
  28   10   15 1
  29   10   34 1
  30   11   12 1
  31   11   13 1
  32   11   63 1
  33   11   64 1
  34   12   65 1
  35   12   66 1
  36   13   14 1
  37   13   33 1
  38   13   15 1
  39   14   17 1
  40   14   39 1
  41   14   40 1
  42   15   16 1
  43   15   38 1
  44   16   17 1
  45   16   67 1
  46   16   68 1
  47   17   69 1
  48   17   70 1
  49   18   19 1
  50   18   71 1
  51   19   20 1
  52   19   72 1
  53   19   73 1
  54   20   21 1
  55   20   74 1
  56   20   75 1
  57   21   22 1
  58   21   76 1
  59   21   77 1
  60   22   23 1
  61   22   78 1
  62   23   24 1
  63   23   79 1
  64   23   80 1
  65   24   25 1
  66   24   81 1
  67   24   82 1
  68   25   26 1
  69   25   83 1
  70   25   84 1
  71   26   27 1
  72   26   85 1
  73   26   86 1
  74   27   28 1
  75   27   87 1
  76   28   29 1
  77   28   88 1
  78   28   89 1
  79   29   30 1
  80   29   90 1
  81   29   91 1
  82   30   31 1
  83   30   92 1
  84   30   93 1
  85   31   94 1
  86   31   95 1
  87   32   96 1
  88   32   97 1
  89   32   98 1
  90   33   99 1
  91   33  100 1
  92   33  101 1
  93   36  102 1
  94   40   41 1
  95   40   52 1
  96   40  103 1
  97   41   42 1
  98   41  104 1
  99   41  105 1
 100   42   43 1
 101   42  106 1
 102   42  107 1
 103   43   44 1
 104   43   47 1
 105   43  108 1
 106   44   45 1
 107   44   46 1
 108   44  109 1
 109   45  110 1
 110   45  111 1
 111   45  112 1
 112   46  113 1
 113   46  114 1
 114   46  115 1
 115   47   48 1
 116   47  116 1
 117   47  117 1
 118   48   49 2
 119   48   50 2
 120   48   51 1
 121   51  118 1
 122   52  119 1
 123   52  120 1
 124   52  121 1

#	End of record

