#	Name: ASD01917087
#	Creating user name:	WinNT
#	Creation time:	15. 06. 2019 20:08

#	Modifying user name:	WinNT
#	Modification time:	15. 06. 2019 20:08

#	Program:	/corina/corina34_cracker 3.40 0067  02.08.2006

@<TRIPOS>MOLECULE
ASD01917087
  34   36    0    0    0
SMALL
NO_CHARGES


@<TRIPOS>ATOM
   1 C1            -0.0421     1.4710     0.1495 C.ar    
   2 C2            -0.0084    -0.0060     0.0625 C.2     
   3 N3             1.0564    -0.7653     0.2100 N.2     
   4 C4             0.7168    -2.0510     0.0671 C.2     
   5 N5            -0.5743    -2.1277    -0.1744 N.2     
   6 N6            -1.0680    -0.8131    -0.1769 N.pl3   
   7 C7            -2.4544    -0.3970    -0.4029 C.3     
   8 C8            -3.1968    -0.3897     0.9085 C.2     
   9 O9            -4.4918    -0.0383     0.9447 O.3     
  10 O10           -2.6264    -0.7003     1.9274 O.2     
  11 C11            1.6458    -3.2044     0.1645 C.ar    
  12 C12           -1.2469     2.1306     0.3919 C.ar    
  13 C13            2.9974    -2.9926     0.4256 C.ar    
  14 C14            3.8581    -4.0709     0.5158 C.ar    
  15 C15            3.3773    -5.3589     0.3464 C.ar    
  16 C16            2.0357    -5.5724     0.0870 C.ar    
  17 C17            1.1676    -4.5030     0.0008 C.ar    
  18 C18           -1.2734     3.5081     0.4722 C.ar    
  19 C19           -0.1084     4.2360     0.3127 C.ar    
  20 C20            1.0923     3.5876     0.0711 C.ar    
  21 C21            1.1318     2.2084    -0.0050 C.ar    
  22 F22            2.2267     4.3046    -0.0846 F       
  23 F23            5.1696    -3.8681     0.7690 F       
  24 H24           -2.4677     0.6043    -0.8334 H       
  25 H25           -2.9357    -1.0939    -1.0890 H       
  26 H26           -4.9255    -0.0488     1.8089 H       
  27 H27           -2.1580     1.5642     0.5164 H       
  28 H28            3.3723    -1.9883     0.5570 H       
  29 H29            4.0522    -6.1990     0.4167 H       
  30 H30            1.6658    -6.5785    -0.0447 H       
  31 H31            0.1202    -4.6718    -0.2015 H       
  32 H32           -2.2063     4.0190     0.6596 H       
  33 H33           -0.1345     5.3138     0.3764 H       
  34 H34            2.0676     1.7031    -0.1930 H       
@<TRIPOS>BOND
   1    1    2 1
   2    1   12 ar
   3    1   21 ar
   4    2    3 2
   5    2    6 1
   6    3    4 1
   7    4    5 2
   8    4   11 1
   9    5    6 1
  10    6    7 1
  11    7    8 1
  12    7   24 1
  13    7   25 1
  14    8    9 1
  15    8   10 2
  16    9   26 1
  17   11   13 ar
  18   11   17 ar
  19   12   18 ar
  20   12   27 1
  21   13   14 ar
  22   13   28 1
  23   14   15 ar
  24   14   23 1
  25   15   16 ar
  26   15   29 1
  27   16   17 ar
  28   16   30 1
  29   17   31 1
  30   18   19 ar
  31   18   32 1
  32   19   20 ar
  33   19   33 1
  34   20   21 ar
  35   20   22 1
  36   21   34 1

#	End of record

