#	Name: ASD03080151
#	Creating user name:	WinNT
#	Creation time:	15. 06. 2019 20:26

#	Modifying user name:	WinNT
#	Modification time:	15. 06. 2019 20:26

#	Program:	/corina/corina34_cracker 3.40 0067  02.08.2006

@<TRIPOS>MOLECULE
ASD03080151
  19   19    0    0    0
SMALL
NO_CHARGES


@<TRIPOS>ATOM
   1 C1            -0.0167     1.3802     0.0096 C.ar    
   2 C2             0.0021    -0.0041     0.0020 C.ar    
   3 C3            -1.1883    -0.7117     0.0095 C.ar    
   4 C4            -2.3932    -0.0355     0.0246 C.ar    
   5 C5            -2.4107     1.3470     0.0322 C.ar    
   6 C6            -1.2232     2.0543     0.0305 C.ar    
   7 C7             1.2778     2.1516     0.0014 C.3     
   8 O8             1.0566     3.4474    -0.5589 O.3     
   9 F9             1.1808    -0.6641    -0.0132 F       
  10 C10            1.7940     2.2970     1.4344 C.3     
  11 H11           -1.1748    -1.7916     0.0033 H       
  12 H12           -3.3217    -0.5872     0.0301 H       
  13 H13           -3.3530     1.8746     0.0437 H       
  14 H14           -1.2380     3.1342     0.0365 H       
  15 H15            2.0152     1.6177    -0.5980 H       
  16 H16            0.4102     3.9799    -0.0754 H       
  17 H17            1.9628     1.3086     1.8618 H       
  18 H18            2.7303     2.8550     1.4284 H       
  19 H19            1.0566     2.8310     2.0337 H       
@<TRIPOS>BOND
   1    1    2 ar
   2    1    7 1
   3    1    6 ar
   4    2    3 ar
   5    2    9 1
   6    3    4 ar
   7    3   11 1
   8    4    5 ar
   9    4   12 1
  10    5    6 ar
  11    5   13 1
  12    6   14 1
  13    7    8 1
  14    7   10 1
  15    7   15 1
  16    8   16 1
  17   10   17 1
  18   10   18 1
  19   10   19 1

#	End of record

