#	Name: ASD03740072
#	Creating user name:	WinNT
#	Creation time:	15. 06. 2019 20:46

#	Modifying user name:	WinNT
#	Modification time:	15. 06. 2019 20:46

#	Program:	/corina/corina34_cracker 3.40 0067  02.08.2006

@<TRIPOS>MOLECULE
ASD03740072
  54   57    0    0    0
SMALL
NO_CHARGES


@<TRIPOS>ATOM
   1 C1            -0.0168     1.3849     0.0097 C.ar    
   2 C2             0.0021    -0.0041     0.0020 C.ar    
   3 C3             1.1850    -0.6877    -0.0125 C.ar    
   4 C4             2.3894     0.0113    -0.0203 C.ar    
   5 C5             2.3718     1.4195    -0.0131 C.ar    
   6 C6             1.1486     2.0963     0.0023 C.ar    
   7 N7             3.7063    -0.3680    -0.0346 N.pl3   
   8 N8             4.5133     0.7743    -0.0364 N.2     
   9 C9             3.7704     1.8474    -0.0241 C.2     
  10 O10            4.2163     3.1315    -0.0222 O.3     
  11 C11            4.1915    -1.7503    -0.0454 C.3     
  12 C12            4.3443    -2.2179    -1.4698 C.ar    
  13 C13            5.6318     3.3268    -0.0344 C.3     
  14 C14            5.9400     4.8254    -0.0302 C.3     
  15 C15            7.4556     5.0345    -0.0433 C.3     
  16 C16            5.5447    -2.0352    -2.1312 C.ar    
  17 C17            5.6873    -2.4630    -3.4370 C.ar    
  18 C18            4.6248    -3.0764    -4.0847 C.ar    
  19 C19            3.4214    -3.2586    -3.4189 C.ar    
  20 C20            3.2857    -2.8340    -2.1113 C.ar    
  21 N21            7.7515     6.4734    -0.0393 N.3     
  22 C22            9.1879     6.7168     0.1875 C.3     
  23 C23            7.3652     7.0973    -1.3228 C.3     
  24 C24            8.4125     8.2158    -1.5500 C.3     
  25 C25            9.7037     7.5517    -1.0034 C.3     
  26 O26            4.7624    -3.4977    -5.3694 O.3     
  27 C27            3.6269    -4.1208    -5.9730 C.3     
  28 H28           -0.9621     1.9071     0.0170 H       
  29 H29           -0.9296    -0.5502     0.0080 H       
  30 H30            1.1859    -1.7677    -0.0176 H       
  31 H31            1.1256     3.1760     0.0077 H       
  32 H32            5.1565    -1.8005     0.4590 H       
  33 H33            3.4771    -2.3902     0.4724 H       
  34 H34            6.0702     2.8632     0.8494 H       
  35 H35            6.0537     2.8716    -0.9305 H       
  36 H36            5.5016     5.2889    -0.9140 H       
  37 H37            5.5182     5.2806     0.8659 H       
  38 H38            7.8940     4.5709     0.8405 H       
  39 H39            7.8774     4.5793    -0.9394 H       
  40 H40            6.3714    -1.5573    -1.6267 H       
  41 H41            6.6250    -2.3197    -3.9533 H       
  42 H42            2.5928    -3.7358    -3.9209 H       
  43 H43            2.3491    -2.9756    -1.5925 H       
  44 H44            9.3281     7.2697     1.1164 H       
  45 H45            9.7220     5.7678     0.2341 H       
  46 H46            7.4105     6.3654    -2.1293 H       
  47 H47            6.3644     7.5233    -1.2516 H       
  48 H48            8.5118     8.4482    -2.6103 H       
  49 H49            8.1605     9.1087    -0.9780 H       
  50 H50           10.4126     8.3077    -0.6657 H       
  51 H51           10.1554     6.9082    -1.7583 H       
  52 H52            3.3527    -5.0077    -5.4017 H       
  53 H53            2.7908    -3.4216    -5.9820 H       
  54 H54            3.8711    -4.4085    -6.9956 H       
@<TRIPOS>BOND
   1    1    2 ar
   2    1    6 ar
   3    1   28 1
   4    2    3 ar
   5    2   29 1
   6    3    4 ar
   7    3   30 1
   8    4    5 ar
   9    4    7 1
  10    5    6 ar
  11    5    9 1
  12    6   31 1
  13    7    8 1
  14    7   11 1
  15    8    9 2
  16    9   10 1
  17   10   13 1
  18   11   12 1
  19   11   32 1
  20   11   33 1
  21   12   16 ar
  22   12   20 ar
  23   13   14 1
  24   13   34 1
  25   13   35 1
  26   14   15 1
  27   14   36 1
  28   14   37 1
  29   15   21 1
  30   15   38 1
  31   15   39 1
  32   16   17 ar
  33   16   40 1
  34   17   18 ar
  35   17   41 1
  36   18   19 ar
  37   18   26 1
  38   19   20 ar
  39   19   42 1
  40   20   43 1
  41   21   22 1
  42   21   23 1
  43   22   25 1
  44   22   44 1
  45   22   45 1
  46   23   24 1
  47   23   46 1
  48   23   47 1
  49   24   25 1
  50   24   48 1
  51   24   49 1
  52   25   50 1
  53   25   51 1
  54   26   27 1
  55   27   52 1
  56   27   53 1
  57   27   54 1

#	End of record

