#	Name: ASD03080124
#	Creating user name:	WinNT
#	Creation time:	15. 06. 2019 20:26

#	Modifying user name:	WinNT
#	Modification time:	15. 06. 2019 20:26

#	Program:	/corina/corina34_cracker 3.40 0067  02.08.2006

@<TRIPOS>MOLECULE
ASD03080124
  30   32    0    0    0
SMALL
NO_CHARGES


@<TRIPOS>ATOM
   1 N1             0.0175    -1.1399    -0.0042 N.1     
   2 C2             0.0021    -0.0041     0.0020 C.1     
   3 C3            -0.0173     1.4278     0.0099 C.ar    
   4 C4             1.1798     2.1442     0.0023 C.ar    
   5 C5             1.1527     3.5298     0.0095 C.ar    
   6 C6            -0.0636     4.2011     0.0247 C.ar    
   7 C7            -1.2503     3.4917     0.0327 C.ar    
   8 C8            -1.2350     2.1122     0.0194 C.ar    
   9 C9            -2.5314     1.3439     0.0277 C.3     
  10 N10            2.3532     4.2543     0.0020 N.pl3   
  11 N11            3.5332     3.7400    -0.0121 N.2     
  12 N12            4.4047     4.6909    -0.0153 N.2     
  13 C13            3.7298     5.8493    -0.0026 C.2     
  14 N14            2.4481     5.5396     0.0024 N.2     
  15 C15            4.3121     7.2148    -0.0003 C.ar    
  16 C16            5.6973     7.3957    -0.0126 C.ar    
  17 C17            6.1906     8.6895    -0.0104 C.ar    
  18 C18            5.3048     9.7510     0.0038 C.ar    
  19 N19            4.0013     9.5487     0.0156 N.ar    
  20 C20            3.4860     8.3365     0.0083 C.ar    
  21 H21            2.1244     1.6207    -0.0088 H       
  22 H22           -0.0821     5.2809     0.0307 H       
  23 H23           -2.1926     4.0194     0.0452 H       
  24 H24           -2.8563     1.1684    -0.9978 H       
  25 H25           -2.3841     0.3881     0.5307 H       
  26 H26           -3.2914     1.9193     0.5563 H       
  27 H27            6.3664     6.5480    -0.0232 H       
  28 H28            7.2558     8.8675    -0.0192 H       
  29 H29            5.6860    10.7615     0.0056 H       
  30 H30            2.4133     8.2110     0.0181 H       
@<TRIPOS>BOND
   1    1    2 3
   2    2    3 1
   3    3    4 ar
   4    3    8 ar
   5    4    5 ar
   6    4   21 1
   7    5    6 ar
   8    5   10 1
   9    6    7 ar
  10    6   22 1
  11    7    8 ar
  12    7   23 1
  13    8    9 1
  14    9   24 1
  15    9   25 1
  16    9   26 1
  17   10   11 1
  18   10   14 1
  19   11   12 2
  20   12   13 1
  21   13   14 2
  22   13   15 1
  23   15   16 ar
  24   15   20 ar
  25   16   17 ar
  26   16   27 1
  27   17   18 ar
  28   17   28 1
  29   18   19 ar
  30   18   29 1
  31   19   20 ar
  32   20   30 1

#	End of record

