#	Name: ASD01810132
#	Creating user name:	WinNT
#	Creation time:	15. 06. 2019 19:23

#	Modifying user name:	WinNT
#	Modification time:	15. 06. 2019 19:23

#	Program:	/corina/corina34_cracker 3.40 0067  02.08.2006

@<TRIPOS>MOLECULE
ASD01810132
  34   36    0    0    0
SMALL
NO_CHARGES


@<TRIPOS>ATOM
   1 C1             0.1035     1.4767     0.3831 C.ar    
   2 C2             0.0845     0.0904     0.3748 C.ar    
   3 C3             1.2531    -0.6304     0.2357 C.ar    
   4 C4             2.4703     0.0349     0.1011 C.ar    
   5 C5             2.4880     1.4401     0.1091 C.ar    
   6 C6             1.2973     2.1572     0.2512 C.ar    
   7 N7             3.6447    -0.6745    -0.0381 N.pl3   
   8 C8             4.8384    -0.0823    -0.1697 C.2     
   9 C9             4.9815     1.2905    -0.1762 C.2     
  10 C10            3.7815     2.1314    -0.0341 C.2     
  11 O11            3.8550     3.3478    -0.0338 O.2     
  12 C12            6.3095     1.9025    -0.3226 C.2     
  13 O13            6.4364     3.2445    -0.3274 O.3     
  14 O14            7.2937     1.1984    -0.4392 O.2     
  15 C15            3.5837    -2.1382    -0.0416 C.3     
  16 C16            3.4399    -2.6316    -1.4583 C.ar    
  17 C17            4.5590    -2.7760    -2.2568 C.ar    
  18 C18            4.4271    -3.2286    -3.5563 C.ar    
  19 C19            3.1761    -3.5371    -4.0571 C.ar    
  20 C20            2.0571    -3.3935    -3.2583 C.ar    
  21 C21            2.1895    -2.9451    -1.9574 C.ar    
  22 F22            1.3141     3.5081     0.2585 F       
  23 F23            1.2172    -1.9809     0.2306 F       
  24 H24           -0.8200     2.0265     0.4887 H       
  25 H25           -0.8554    -0.4313     0.4788 H       
  26 H26            5.7185    -0.6995    -0.2739 H       
  27 H27            7.3300     3.6007    -0.4263 H       
  28 H28            4.4988    -2.5410     0.3923 H       
  29 H29            2.7271    -2.4676     0.5465 H       
  30 H30            5.5363    -2.5350    -1.8655 H       
  31 H31            5.3014    -3.3407    -4.1804 H       
  32 H32            3.0730    -3.8900    -5.0726 H       
  33 H33            1.0798    -3.6342    -3.6497 H       
  34 H34            1.3152    -2.8329    -1.3333 H       
@<TRIPOS>BOND
   1    1    2 ar
   2    1    6 ar
   3    1   24 1
   4    2    3 ar
   5    2   25 1
   6    3    4 ar
   7    3   23 1
   8    4    5 ar
   9    4    7 1
  10    5    6 ar
  11    5   10 1
  12    6   22 1
  13    7    8 1
  14    7   15 1
  15    8    9 2
  16    8   26 1
  17    9   10 1
  18    9   12 1
  19   10   11 2
  20   12   13 1
  21   12   14 2
  22   13   27 1
  23   15   16 1
  24   15   28 1
  25   15   29 1
  26   16   17 ar
  27   16   21 ar
  28   17   18 ar
  29   17   30 1
  30   18   19 ar
  31   18   31 1
  32   19   20 ar
  33   19   32 1
  34   20   21 ar
  35   20   33 1
  36   21   34 1

#	End of record

