#	Name: ASD08850004
#	Creating user name:	WinNT
#	Creation time:	15. 06. 2019 21:20

#	Modifying user name:	WinNT
#	Modification time:	15. 06. 2019 21:20

#	Program:	/corina/corina34_cracker 3.40 0067  02.08.2006

@<TRIPOS>MOLECULE
ASD08850004
  60   64    0    0    0
SMALL
NO_CHARGES


@<TRIPOS>ATOM
   1 C1             0.0767     0.9798     1.9168 C.ar    
   2 C2            -0.2746     0.2753     0.7640 C.ar    
   3 C3             0.5491     0.3285    -0.3617 C.ar    
   4 C4             1.7059     1.0757    -0.3324 C.ar    
   5 C5             2.0538     1.7764     0.8176 C.ar    
   6 C6             1.2347     1.7254     1.9406 C.ar    
   7 C7            -1.5172    -0.5266     0.7357 C.2     
   8 N8            -2.3196    -0.6146     1.7457 N.2     
   9 C9            -3.4598    -1.4792     1.4118 C.3     
  10 C10           -3.1875    -1.9136    -0.0420 C.3     
  11 N11           -1.9208    -1.2364    -0.3661 N.pl3   
  12 N12            3.2261     2.5319     0.8447 N.am    
  13 C13            3.6241     3.1980    -0.2573 C.2     
  14 C14            4.8100     4.0812    -0.2000 C.ar    
  15 O15            3.0090     3.0733    -1.2980 O.2     
  16 C16            6.0379     3.5741     0.2292 C.ar    
  17 C17            4.7024     5.4197    -0.5805 C.ar    
  18 C18            5.8069     6.2422    -0.5271 C.ar    
  19 C19            7.0331     5.7367    -0.0926 C.ar    
  20 C20            7.1420     4.3966     0.2830 C.ar    
  21 N21            3.4021     5.9556    -1.0417 N.pl3   
  22 O22            3.3331     7.0875    -1.4862 O.2     
  23 O23            2.4011     5.2647    -0.9769 O.2     
  24 C24            8.2190     6.6200    -0.0352 C.2     
  25 N25            9.4031     6.1318     0.3844 N.am    
  26 O26            8.1252     7.7855    -0.3665 O.2     
  27 C27           10.4939     6.9870     0.5415 C.ar    
  28 C28           10.2916     8.3041     0.9402 C.ar    
  29 C29           11.7823     6.5195     0.3046 C.ar    
  30 C30           12.8612     7.3618     0.4589 C.ar    
  31 C31           12.6606     8.6858     0.8534 C.ar    
  32 C32           11.3669     9.1508     1.0960 C.ar    
  33 C33           13.8172     9.5926     1.0200 C.2     
  34 N34           15.0379     9.2190     0.8149 N.2     
  35 C35           15.9574    10.3383     1.0614 C.3     
  36 C36           15.0312    11.5013     1.4687 C.3     
  37 N37           13.6871    10.9039     1.3997 N.pl3   
  38 H38           -0.5610     0.9439     2.7876 H       
  39 H39            0.2797    -0.2159    -1.2548 H       
  40 H40            2.3435     1.1173    -1.2031 H       
  41 H41            1.5068     2.2710     2.8321 H       
  42 H42           -3.4871    -2.3468     2.0710 H       
  43 H43           -4.3938    -0.9208     1.4750 H       
  44 H44           -3.0760    -2.9961    -0.1053 H       
  45 H45           -3.9836    -1.5688    -0.7019 H       
  46 H46           -1.4509    -1.2859    -1.2133 H       
  47 H47            3.7548     2.5778     1.6566 H       
  48 H48            6.1223     2.5373     0.5194 H       
  49 H49            5.7237     7.2779    -0.8218 H       
  50 H50            8.0918     4.0044     0.6153 H       
  51 H51            9.4968     5.1858     0.5772 H       
  52 H52            9.2904     8.6634     1.1274 H       
  53 H53           11.9369     5.4950    -0.0003 H       
  54 H54           13.8614     6.9982     0.2752 H       
  55 H55           11.2092    10.1735     1.4052 H       
  56 H56           16.6453    10.0962     1.8715 H       
  57 H57           16.5072    10.5878     0.1539 H       
  58 H58           15.2559    11.8351     2.4817 H       
  59 H59           15.1177    12.3272     0.7626 H       
  60 H60           12.8526    11.3594     1.5920 H       
@<TRIPOS>BOND
   1    1    2 ar
   2    1    6 ar
   3    1   38 1
   4    2    3 ar
   5    2    7 1
   6    3    4 ar
   7    3   39 1
   8    4    5 ar
   9    4   40 1
  10    5    6 ar
  11    5   12 1
  12    6   41 1
  13    7    8 2
  14    7   11 1
  15    8    9 1
  16    9   10 1
  17    9   42 1
  18    9   43 1
  19   10   11 1
  20   10   44 1
  21   10   45 1
  22   11   46 1
  23   12   13 am
  24   12   47 1
  25   13   14 1
  26   13   15 2
  27   14   17 ar
  28   14   16 ar
  29   16   20 ar
  30   16   48 1
  31   17   18 ar
  32   17   21 1
  33   18   19 ar
  34   18   49 1
  35   19   20 ar
  36   19   24 1
  37   20   50 1
  38   21   22 2
  39   21   23 2
  40   24   25 am
  41   24   26 2
  42   25   27 1
  43   25   51 1
  44   27   29 ar
  45   27   28 ar
  46   28   32 ar
  47   28   52 1
  48   29   30 ar
  49   29   53 1
  50   30   31 ar
  51   30   54 1
  52   31   32 ar
  53   31   33 1
  54   32   55 1
  55   33   34 2
  56   33   37 1
  57   34   35 1
  58   35   36 1
  59   35   56 1
  60   35   57 1
  61   36   37 1
  62   36   58 1
  63   36   59 1
  64   37   60 1

#	End of record

