#	Name: ASD02198741
#	Creating user name:	WinNT
#	Creation time:	15. 06. 2019 20:20

#	Modifying user name:	WinNT
#	Modification time:	15. 06. 2019 20:20

#	Program:	/corina/corina34_cracker 3.40 0067  02.08.2006

@<TRIPOS>MOLECULE
ASD02198741
  46   50    0    0    0
SMALL
NO_CHARGES


@<TRIPOS>ATOM
   1 F1             2.2525    -1.7111     2.4725 F       
   2 C2            -0.0433     1.5019    -0.1149 C.2     
   3 C3            -0.0730     0.1621     0.0976 C.2     
   4 N4             1.0712    -0.5394     0.2604 N.pl3   
   5 N5             2.2357    -0.0047     0.2264 N.2     
   6 C6             2.4073     1.2847     0.0277 C.2     
   7 C7             1.2215     2.1358    -0.1604 C.2     
   8 C8             0.9797    -1.9185     0.4774 C.ar    
   9 C9             1.5803    -2.4887     1.5958 C.ar    
  10 C10            1.4889    -3.8513     1.8086 C.ar    
  11 C11            0.7982    -4.6497     0.9068 C.ar    
  12 C12            0.1993    -4.0798    -0.2097 C.ar    
  13 C13            0.2843    -2.7188    -0.4205 C.ar    
  14 C14            3.7643     1.8670    -0.0049 C.2     
  15 N15            4.3063     2.6067    -1.0182 N.pl3   
  16 N16            5.6083     2.9580    -0.6406 N.2     
  17 C17            5.8521     2.4586     0.5448 C.2     
  18 C18            4.7199     1.7717     0.9828 C.2     
  19 C19            3.6731     2.9516    -2.2190 C.ar    
  20 C20            3.8073     4.2348    -2.7328 C.ar    
  21 C21            3.1821     4.5716    -3.9173 C.ar    
  22 C22            2.4231     3.6328    -4.5916 C.ar    
  23 C23            2.2875     2.3542    -4.0826 C.ar    
  24 C24            2.9145     2.0096    -2.9012 C.ar    
  25 O25            1.3245     3.3389    -0.3486 O.2     
  26 N26            0.7056    -6.0314     1.1227 N.pl3   
  27 C27            1.2437    -6.7117     2.1808 C.2     
  28 C28            0.0570    -6.9239     0.3135 C.2     
  29 C29            0.1894    -8.1544     0.8520 C.2     
  30 C30            0.9429    -8.0196     2.0377 C.2     
  31 F31           -0.3109    -9.3044     0.3497 F       
  32 F32            1.2986    -9.0176     2.8760 F       
  33 H33           -0.9547     2.0655    -0.2494 H       
  34 H34           -1.0229    -0.3504     0.1376 H       
  35 H35            1.9549    -4.2950     2.6760 H       
  36 H36           -0.3371    -4.7019    -0.9108 H       
  37 H37           -0.1820    -2.2768    -1.2886 H       
  38 H38            6.7757     2.5645     1.0944 H       
  39 H39            4.6141     1.2522     1.9238 H       
  40 H40            4.3997     4.9686    -2.2065 H       
  41 H41            3.2858     5.5695    -4.3173 H       
  42 H42            1.9348     3.8987    -5.5175 H       
  43 H43            1.6937     1.6232    -4.6113 H       
  44 H44            2.8082     1.0108    -2.5042 H       
  45 H45            1.8113    -6.2772     2.9904 H       
  46 H46           -0.4702    -6.6850    -0.5984 H       
@<TRIPOS>BOND
   1    1    9 1
   2    2    3 2
   3    2    7 1
   4    2   33 1
   5    3    4 1
   6    3   34 1
   7    4    5 1
   8    4    8 1
   9    5    6 2
  10    6    7 1
  11    6   14 1
  12    7   25 2
  13    8    9 ar
  14    8   13 ar
  15    9   10 ar
  16   10   11 ar
  17   10   35 1
  18   11   12 ar
  19   11   26 1
  20   12   13 ar
  21   12   36 1
  22   13   37 1
  23   14   15 1
  24   14   18 2
  25   15   16 1
  26   15   19 1
  27   16   17 2
  28   17   18 1
  29   17   38 1
  30   18   39 1
  31   19   20 ar
  32   19   24 ar
  33   20   21 ar
  34   20   40 1
  35   21   22 ar
  36   21   41 1
  37   22   23 ar
  38   22   42 1
  39   23   24 ar
  40   23   43 1
  41   24   44 1
  42   26   28 1
  43   26   27 1
  44   27   30 2
  45   27   45 1
  46   28   29 2
  47   28   46 1
  48   29   30 1
  49   29   31 1
  50   30   32 1

#	End of record

