#	Name: ASD03091544
#	Creating user name:	WinNT
#	Creation time:	15. 06. 2019 20:30

#	Modifying user name:	WinNT
#	Modification time:	15. 06. 2019 20:30

#	Program:	/corina/corina34_cracker 3.40 0067  02.08.2006

@<TRIPOS>MOLECULE
ASD03091544
  40   42    0    0    0
SMALL
NO_CHARGES


@<TRIPOS>ATOM
   1 C1            -0.0170     1.4030     0.0098 C.ar    
   2 C2             0.0021    -0.0041     0.0020 C.ar    
   3 C3             1.2250    -0.6653    -0.0125 C.ar    
   4 C4             2.3969     0.0594    -0.0191 C.ar    
   5 C5             2.3728     1.4485    -0.0114 C.ar    
   6 C6             1.1820     2.1200     0.0022 C.ar    
   7 O7            -1.2766    -0.4288     0.0119 O.3     
   8 C8            -2.1300     0.6164     0.0257 C.2     
   9 C9            -1.4299     1.7801     0.0311 C.2     
  10 C10           -3.5959     0.5113     0.0384 C.2     
  11 O11           -4.2780     1.5186     0.0499 O.2     
  12 N12           -4.1846    -0.7012     0.0372 N.am    
  13 N13           -6.8766    -1.9599     1.8244 N.3     
  14 C14           -6.1536    -0.7249     1.4923 C.3     
  15 C15           -5.6458    -0.8060     0.0498 C.3     
  16 C16           -6.0697    -2.1529    -0.5492 C.3     
  17 C17           -7.5995    -2.2519    -0.4966 C.3     
  18 C18           -8.0531    -2.1315     0.9609 C.3     
  19 C19           -5.9898    -3.1288     1.7434 C.3     
  20 C20           -5.4768    -3.2780     0.3084 C.3     
  21 Cl21           3.8641     2.3371    -0.0194 Cl      
  22 H22            1.2563    -1.7448    -0.0182 H       
  23 H23            3.3447    -0.4582    -0.0300 H       
  24 H24            1.1683     3.1999     0.0078 H       
  25 H25           -1.8346     2.7814     0.0420 H       
  26 H26           -3.6408    -1.5043     0.0280 H       
  27 H27           -6.8248     0.1279     1.5942 H       
  28 H28           -5.3079    -0.6054     2.1694 H       
  29 H29           -6.0772     0.0061    -0.5354 H       
  30 H30           -5.7243    -2.2299    -1.5802 H       
  31 H31           -8.0381    -1.4449    -1.0835 H       
  32 H32           -7.9173    -3.2135    -0.8997 H       
  33 H33           -8.5885    -3.0355     1.2511 H       
  34 H34           -8.7110    -1.2689     1.0670 H       
  35 H35           -5.1456    -2.9924     2.4192 H       
  36 H36           -6.5422    -4.0247     2.0271 H       
  37 H37           -5.7860    -4.2437    -0.0915 H       
  38 H38           -4.3890    -3.2088     0.3004 H       
  39 Cl39           8.8641     8.1999     7.4192 Cl      
  40 H40            8.8641     9.5699     7.4192 H       
@<TRIPOS>BOND
   1    1    2 ar
   2    1    6 ar
   3    1    9 1
   4    2    3 ar
   5    2    7 1
   6    3    4 ar
   7    3   22 1
   8    4    5 ar
   9    4   23 1
  10    5    6 ar
  11    5   21 1
  12    6   24 1
  13    7    8 1
  14    8    9 2
  15    8   10 1
  16    9   25 1
  17   10   11 2
  18   10   12 am
  19   12   15 1
  20   12   26 1
  21   13   14 1
  22   13   18 1
  23   13   19 1
  24   14   15 1
  25   14   27 1
  26   14   28 1
  27   15   16 1
  28   15   29 1
  29   16   17 1
  30   16   20 1
  31   16   30 1
  32   17   18 1
  33   17   31 1
  34   17   32 1
  35   18   33 1
  36   18   34 1
  37   19   20 1
  38   19   35 1
  39   19   36 1
  40   20   37 1
  41   20   38 1
  42   39   40 1

#	End of record

