#	Name: ASD01208117
#	Creating user name:	WinNT
#	Creation time:	15. 06. 2019 19:09

#	Modifying user name:	WinNT
#	Modification time:	15. 06. 2019 19:09

#	Program:	/corina/corina34_cracker 3.40 0067  02.08.2006

@<TRIPOS>MOLECULE
ASD01208117
  73   77    0    0    0
SMALL
NO_CHARGES


@<TRIPOS>ATOM
   1 C1            -0.0846     1.4337     0.0272 C.ar    
   2 C2             0.0181     0.0509    -0.0134 C.ar    
   3 C3            -1.1251    -0.7352     0.0259 C.ar    
   4 C4            -2.3738    -0.1413     0.1058 C.ar    
   5 C5            -2.4813     1.2495     0.1473 C.ar    
   6 C6            -1.3292     2.0357     0.1133 C.ar    
   7 C7            -3.8119     1.8877     0.2325 C.2     
   8 C8            -4.0551     3.2418     0.2796 C.2     
   9 N9            -5.0116     1.2349     0.2722 N.pl3   
  10 C10           -6.0167     2.1699     0.3495 C.2     
  11 C11           -5.4373     3.4202     0.3550 C.2     
  12 O12            1.0379     2.1989    -0.0119 O.3     
  13 C13            0.8560     3.6141    -0.0912 C.3     
  14 C14            2.0901     4.2518    -0.7324 C.3     
  15 O15            3.2211     4.0632     0.1203 O.3     
  16 C16            0.6609     4.1827     1.3158 C.3     
  17 O17           -1.0191    -2.0893    -0.0146 O.3     
  18 C18           -1.4878    -2.7333    -1.1156 C.ar    
  19 C19           -1.9380    -2.0051    -2.2076 C.ar    
  20 C20           -1.5116    -4.1202    -1.1520 C.ar    
  21 C21           -1.9881    -4.7723    -2.2726 C.ar    
  22 C22           -2.4411    -4.0443    -3.3574 C.ar    
  23 C23           -2.4135    -2.6622    -3.3257 C.ar    
  24 C24           -7.4574     1.8856     0.4120 C.2     
  25 N25           -8.3639     2.8163     0.4839 N.2     
  26 C26           -9.6899     2.1712     0.5452 C.3     
  27 C27           -9.3214     0.7061     0.8832 C.3     
  28 O28           -7.9647     0.6341     0.3945 O.3     
  29 S29           -3.0476    -4.8793    -4.7855 S.o2    
  30 N30           -4.6740    -5.1033    -4.5686 N.am    
  31 O31           -2.9087    -3.9719    -5.8702 O.2     
  32 O32           -2.4595    -6.1728    -4.7741 O.2     
  33 C33           -9.3807     0.4590     2.3920 C.3     
  34 C34           -5.6423    -4.0938    -5.0232 C.3     
  35 C35           -5.1889    -6.3197    -3.9216 C.3     
  36 C36           -6.2749    -6.9250    -4.8174 C.3     
  37 N37           -7.2875    -5.9025    -5.1129 N.3     
  38 C38           -6.7096    -4.7913    -5.8734 C.3     
  39 C39           -8.4323    -6.4857    -5.8251 C.3     
  40 H40            0.9903    -0.4153    -0.0760 H       
  41 H41           -3.2629    -0.7536     0.1356 H       
  42 H42           -1.4081     3.1123     0.1456 H       
  43 H43           -3.3110     4.0244     0.2618 H       
  44 H44           -5.1337     0.2729     0.2493 H       
  45 H45           -5.9576     4.3651     0.4080 H       
  46 H46           -0.0230     3.8340    -0.6971 H       
  47 H47            2.2808     3.7834    -1.6980 H       
  48 H48            1.9157     5.3184    -0.8741 H       
  49 H49            4.0410     4.4431    -0.2241 H       
  50 H50            1.5399     3.9628     1.9217 H       
  51 H51            0.5221     5.2622     1.2554 H       
  52 H52           -0.2183     3.7284     1.7726 H       
  53 H53           -1.9170    -0.9256    -2.1832 H       
  54 H54           -1.1576    -4.6892    -0.3051 H       
  55 H55           -2.0065    -5.8518    -2.3017 H       
  56 H56           -2.7682    -2.0959    -4.1742 H       
  57 H57          -10.3004     2.6107     1.3340 H       
  58 H58          -10.1974     2.2326    -0.4175 H       
  59 H59           -9.9649     0.0075     0.3484 H       
  60 H60          -10.3898     0.6576     2.7533 H       
  61 H61           -9.1174    -0.5778     2.6010 H       
  62 H62           -8.6773     1.1213     2.8965 H       
  63 H63           -6.1122    -3.6223    -4.1601 H       
  64 H64           -5.1315    -3.3403    -5.6227 H       
  65 H65           -4.3784    -7.0371    -3.7931 H       
  66 H66           -5.6145    -6.0659    -2.9508 H       
  67 H67           -5.8267    -7.2727    -5.7481 H       
  68 H68           -6.7443    -7.7639    -4.3036 H       
  69 H69           -7.4930    -4.0762    -6.1246 H       
  70 H70           -6.2578    -5.1731    -6.7889 H       
  71 H71           -8.8876    -7.2605    -5.2082 H       
  72 H72           -9.1667    -5.7072    -6.0315 H       
  73 H73           -8.0920    -6.9223    -6.7641 H       
@<TRIPOS>BOND
   1    1    2 ar
   2    1   12 1
   3    1    6 ar
   4    2    3 ar
   5    2   40 1
   6    3    4 ar
   7    3   17 1
   8    4    5 ar
   9    4   41 1
  10    5    6 ar
  11    5    7 1
  12    6   42 1
  13    7    8 2
  14    7    9 1
  15    8   11 1
  16    8   43 1
  17    9   10 1
  18    9   44 1
  19   10   11 2
  20   10   24 1
  21   11   45 1
  22   12   13 1
  23   13   14 1
  24   13   16 1
  25   13   46 1
  26   14   15 1
  27   14   47 1
  28   14   48 1
  29   15   49 1
  30   16   50 1
  31   16   51 1
  32   16   52 1
  33   17   18 1
  34   18   19 ar
  35   18   20 ar
  36   19   23 ar
  37   19   53 1
  38   20   21 ar
  39   20   54 1
  40   21   22 ar
  41   21   55 1
  42   22   23 ar
  43   22   29 1
  44   23   56 1
  45   24   25 2
  46   24   28 1
  47   25   26 1
  48   26   27 1
  49   26   57 1
  50   26   58 1
  51   27   28 1
  52   27   33 1
  53   27   59 1
  54   29   30 am
  55   29   31 2
  56   29   32 2
  57   30   34 1
  58   30   35 1
  59   33   60 1
  60   33   61 1
  61   33   62 1
  62   34   38 1
  63   34   63 1
  64   34   64 1
  65   35   36 1
  66   35   65 1
  67   35   66 1
  68   36   37 1
  69   36   67 1
  70   36   68 1
  71   37   38 1
  72   37   39 1
  73   38   69 1
  74   38   70 1
  75   39   71 1
  76   39   72 1
  77   39   73 1

#	End of record

