#	Name: ASD05430211
#	Creating user name:	WinNT
#	Creation time:	15. 06. 2019 21:00

#	Modifying user name:	WinNT
#	Modification time:	15. 06. 2019 21:00

#	Program:	/corina/corina34_cracker 3.40 0067  02.08.2006

@<TRIPOS>MOLECULE
ASD05430211
  70   75    0    0    0
SMALL
NO_CHARGES


@<TRIPOS>ATOM
   1 C1             0.3944     0.5949     1.7879 C.ar    
   2 C2             0.4603    -0.7481     1.4180 C.ar    
   3 C3             1.6146    -1.2557     0.8356 C.ar    
   4 C4             2.7000    -0.4347     0.6205 C.ar    
   5 C5             2.6412     0.9133     0.9888 C.ar    
   6 C6             1.4793     1.4242     1.5751 C.ar    
   7 C7             5.3273    -0.1288     1.2891 C.3     
   8 C8             5.0473     1.2908     0.8221 C.2     
   9 C9             3.7998     1.7921     0.7598 C.2     
  10 C10            6.5757    -0.0966     2.1805 C.3     
  11 C11            7.8445     0.4583     1.5204 C.3     
  12 N12            7.5169     1.7196     0.8592 N.pl3   
  13 C13            6.2359     2.0853     0.4411 C.2     
  14 N14           -0.6406    -1.5877     1.6350 N.pl3   
  15 C15           -1.3336    -1.7271     2.7949 C.2     
  16 C16           -1.2252    -2.4191     0.7150 C.2     
  17 C17           -2.2444    -3.0381     1.3408 C.2     
  18 N18           -2.2877    -2.5978     2.6069 N.2     
  19 C19           -3.1774    -4.0480     0.7239 C.3     
  20 C20            8.3966     2.8392     0.5158 C.3     
  21 O21            7.6312     3.5698    -0.4651 O.3     
  22 N22            6.2856     3.1462    -0.2951 N.2     
  23 C23            8.6696     3.7085     1.7450 C.3     
  24 C24            9.5895     4.8674     1.3559 C.3     
  25 C25            9.6868     2.3387    -0.0809 C.ar    
  26 C26           10.3987     1.3383     0.5536 C.ar    
  27 C27           10.1542     2.8764    -1.2651 C.ar    
  28 C28           11.3393     2.4169    -1.8146 C.ar    
  29 C29           12.0561     1.4190    -1.1771 C.ar    
  30 C30           11.5845     0.8779     0.0065 C.ar    
  31 S31            9.9131     5.8981     2.8132 S.o2    
  32 O32            8.6940     6.5058     3.2176 O.2     
  33 O33           10.6521     5.1318     3.7545 O.2     
  34 C34           10.9999     7.1805     2.1314 C.3     
  35 C35           -0.7365     2.4741     2.7066 C.3     
  36 O36           -0.7390     1.0896     2.3525 O.3     
  37 C37            6.3740     0.1809     3.6697 C.3     
  38 C38            6.7457    -1.2261     3.1965 C.3     
  39 F39           11.7956     2.9421    -2.9727 F       
  40 F40           12.2831    -0.0961     0.6298 F       
  41 H41            1.6616    -2.2964     0.5510 H       
  42 H42            3.5964    -0.8321     0.1678 H       
  43 H43            1.4295     2.4646     1.8607 H       
  44 H44            4.4772    -0.5037     1.8590 H       
  45 H45            5.5064    -0.7717     0.4273 H       
  46 H46            3.6488     2.8390     0.5417 H       
  47 H47            8.6063     0.6313     2.2806 H       
  48 H48            8.2152    -0.2548     0.7841 H       
  49 H49           -1.1293    -1.2051     3.7180 H       
  50 H50           -0.9261    -2.5518    -0.3143 H       
  51 H51           -2.7686    -5.0496     0.8575 H       
  52 H52           -4.1519    -3.9858     1.2083 H       
  53 H53           -3.2867    -3.8392    -0.3403 H       
  54 H54            7.7283     4.1040     2.1265 H       
  55 H55            9.1500     3.1065     2.5163 H       
  56 H56           10.5308     4.4719     0.9744 H       
  57 H57            9.1091     5.4694     0.5846 H       
  58 H58           10.0302     0.9158     1.4767 H       
  59 H59            9.5948     3.6550    -1.7624 H       
  60 H60           12.9803     1.0598    -1.6051 H       
  61 H61           10.4781     7.7144     1.3372 H       
  62 H62           11.2750     7.8807     2.9201 H       
  63 H63           11.8997     6.7169     1.7270 H       
  64 H64            0.0573     2.6628     3.4293 H       
  65 H65           -0.5665     3.0769     1.8145 H       
  66 H66           -1.6984     2.7385     3.1459 H       
  67 H67            7.1427     0.7589     4.1827 H       
  68 H68            5.3538     0.3416     4.0181 H       
  69 H69            5.9699    -1.9909     3.2335 H       
  70 H70            7.7589    -1.5737     3.3980 H       
@<TRIPOS>BOND
   1    1    2 ar
   2    1    6 ar
   3    1   36 1
   4    2    3 ar
   5    2   14 1
   6    3    4 ar
   7    3   41 1
   8    4    5 ar
   9    4   42 1
  10    5    6 ar
  11    5    9 1
  12    6   43 1
  13    7    8 1
  14    7   10 1
  15    7   44 1
  16    7   45 1
  17    8    9 2
  18    8   13 1
  19    9   46 1
  20   10   11 1
  21   10   37 1
  22   10   38 1
  23   11   12 1
  24   11   47 1
  25   11   48 1
  26   12   13 1
  27   12   20 1
  28   13   22 2
  29   14   15 1
  30   14   16 1
  31   15   18 2
  32   15   49 1
  33   16   17 2
  34   16   50 1
  35   17   18 1
  36   17   19 1
  37   19   51 1
  38   19   52 1
  39   19   53 1
  40   20   21 1
  41   20   23 1
  42   20   25 1
  43   21   22 1
  44   23   24 1
  45   23   54 1
  46   23   55 1
  47   24   31 1
  48   24   56 1
  49   24   57 1
  50   25   26 ar
  51   25   27 ar
  52   26   30 ar
  53   26   58 1
  54   27   28 ar
  55   27   59 1
  56   28   29 ar
  57   28   39 1
  58   29   30 ar
  59   29   60 1
  60   30   40 1
  61   31   32 2
  62   31   33 2
  63   31   34 1
  64   34   61 1
  65   34   62 1
  66   34   63 1
  67   35   36 1
  68   35   64 1
  69   35   65 1
  70   35   66 1
  71   37   38 1
  72   37   67 1
  73   37   68 1
  74   38   69 1
  75   38   70 1

#	End of record

