#	Name: ASD01200092
#	Creating user name:	WinNT
#	Creation time:	15. 06. 2019 19:08

#	Modifying user name:	WinNT
#	Modification time:	15. 06. 2019 19:08

#	Program:	/corina/corina34_cracker 3.40 0067  02.08.2006

@<TRIPOS>MOLECULE
ASD01200092
  53   56    0    0    0
SMALL
NO_CHARGES


@<TRIPOS>ATOM
   1 C1            -0.1412     1.6972     0.3071 C.2     
   2 C2            -0.1502     0.2292     0.1343 C.ar    
   3 C3             0.9845    -0.4257    -0.3465 C.ar    
   4 C4             0.9721    -1.8015    -0.5065 C.ar    
   5 C5            -0.1668    -2.5285    -0.1898 C.ar    
   6 C6            -1.2969    -1.8815     0.2884 C.ar    
   7 C7            -1.2910    -0.5062     0.4568 C.ar    
   8 O8             0.8554     2.3358     0.0303 O.2     
   9 N9            -1.2400     2.3284     0.7663 N.am    
  10 O10           -2.4097    -2.5980     0.5965 O.3     
  11 C11           -3.4390    -2.5909    -0.2906 C.ar    
  12 C12           -4.6123    -3.2721     0.0007 C.ar    
  13 C13           -5.6571    -3.2633    -0.9029 C.ar    
  14 C14           -5.5345    -2.5765    -2.0967 C.ar    
  15 C15           -4.3663    -1.8973    -2.3896 C.ar    
  16 C16           -3.3208    -1.8978    -1.4868 C.ar    
  17 S17            0.0982     4.7262     0.5858 S.3     
  18 C18           -1.2316     3.7078     0.9287 C.2     
  19 N19           -2.2312     4.4106     1.3618 N.2     
  20 C20           -2.0492     5.7146     1.4541 C.2     
  21 C21           -0.8384     6.1337     1.0812 C.2     
  22 C22           -3.1220     6.6543     1.9411 C.3     
  23 O23            2.0765    -2.4402    -0.9745 O.3     
  24 C24            3.1027    -2.6564    -0.1104 C.ar    
  25 C25            4.2771    -3.2441    -0.5590 C.ar    
  26 C26            5.3186    -3.4628     0.3213 C.ar    
  27 C27            5.1917    -3.0971     1.6490 C.ar    
  28 C28            4.0228    -2.5114     2.0985 C.ar    
  29 C29            2.9803    -2.2848     1.2206 C.ar    
  30 S30            6.8100    -4.2089    -0.2474 S.o2    
  31 O31            7.3553    -4.8284     0.9094 O.2     
  32 O32            6.4094    -4.9803    -1.3716 O.2     
  33 C33            7.8441    -2.8129    -0.7693 C.3     
  34 H34            1.8710     0.1395    -0.5938 H       
  35 H35           -0.1734    -3.6011    -0.3164 H       
  36 H36           -2.1699    -0.0037     0.8330 H       
  37 H37           -2.0366     1.8193     0.9834 H       
  38 H38           -4.7084    -3.8090     0.9328 H       
  39 H39           -6.5704    -3.7936    -0.6768 H       
  40 H40           -6.3526    -2.5709    -2.8018 H       
  41 H41           -4.2728    -1.3622    -3.3231 H       
  42 H42           -2.4103    -1.3631    -1.7139 H       
  43 H43           -0.4929     7.1569     1.0828 H       
  44 H44           -3.0436     6.7660     3.0226 H       
  45 H45           -2.9965     7.6269     1.4654 H       
  46 H46           -4.1019     6.2496     1.6877 H       
  47 H47            4.3764    -3.5305    -1.5956 H       
  48 H48            6.0070    -3.2696     2.3359 H       
  49 H49            3.9262    -2.2267     3.1358 H       
  50 H50            2.0692    -1.8228     1.5712 H       
  51 H51            8.0179    -2.1521     0.0799 H       
  52 H52            8.7986    -3.1865    -1.1402 H       
  53 H53            7.3373    -2.2614    -1.5612 H       
@<TRIPOS>BOND
   1    1    2 1
   2    1    8 2
   3    1    9 am
   4    2    3 ar
   5    2    7 ar
   6    3    4 ar
   7    3   34 1
   8    4    5 ar
   9    4   23 1
  10    5    6 ar
  11    5   35 1
  12    6    7 ar
  13    6   10 1
  14    7   36 1
  15    9   18 1
  16    9   37 1
  17   10   11 1
  18   11   12 ar
  19   11   16 ar
  20   12   13 ar
  21   12   38 1
  22   13   14 ar
  23   13   39 1
  24   14   15 ar
  25   14   40 1
  26   15   16 ar
  27   15   41 1
  28   16   42 1
  29   17   18 1
  30   17   21 1
  31   18   19 2
  32   19   20 1
  33   20   21 2
  34   20   22 1
  35   21   43 1
  36   22   44 1
  37   22   45 1
  38   22   46 1
  39   23   24 1
  40   24   25 ar
  41   24   29 ar
  42   25   26 ar
  43   25   47 1
  44   26   27 ar
  45   26   30 1
  46   27   28 ar
  47   27   48 1
  48   28   29 ar
  49   28   49 1
  50   29   50 1
  51   30   31 2
  52   30   32 2
  53   30   33 1
  54   33   51 1
  55   33   52 1
  56   33   53 1

#	End of record

