#	Name: ASD01911253
#	Creating user name:	WinNT
#	Creation time:	15. 06. 2019 19:57

#	Modifying user name:	WinNT
#	Modification time:	15. 06. 2019 19:57

#	Program:	/corina/corina34_cracker 3.40 0067  02.08.2006

@<TRIPOS>MOLECULE
ASD01911253
  39   42    0    0    0
SMALL
NO_CHARGES


@<TRIPOS>ATOM
   1 C1            -0.0189     1.5390     0.0105 C.3     
   2 C2             0.0021    -0.0041     0.0020 C.3     
   3 N3             1.3027    -0.4200    -0.5430 N.am    
   4 C4             2.0751     0.7854    -0.8949 C.3     
   5 C5             1.4884     1.9071    -0.0019 C.3     
   6 C6             1.7200    -1.6925    -0.6949 C.2     
   7 O7             2.8181    -1.9194    -1.1571 O.2     
   8 C8             0.8222    -2.8333    -0.2906 C.3     
   9 C9             1.4436    -4.2199    -0.5271 C.3     
  10 C10            0.8256    -4.6393     0.8172 C.3     
  11 C11            0.8725    -3.1539     1.2125 C.3     
  12 C12            3.5361     0.5805    -0.5874 C.2     
  13 N13            4.5453     0.8932    -1.3614 N.2     
  14 C14            5.6536     0.5301    -0.6774 C.2     
  15 N15            5.2565     0.0233     0.4604 N.2     
  16 O16            4.0458     0.0506     0.5289 O.3     
  17 C17            7.0587     0.6784    -1.1334 C.ar    
  18 C18            8.1066     0.2570    -0.3169 C.ar    
  19 N19            9.3547     0.3905    -0.7270 N.ar    
  20 C20            9.6101     0.9227    -1.9094 C.ar    
  21 C21            8.5711     1.3431    -2.7234 C.ar    
  22 N22            7.3207     1.2084    -2.3238 N.ar    
  23 H23           -0.5169     1.9228    -0.8798 H       
  24 H24           -0.4998     1.9132     0.9143 H       
  25 H25           -0.1121    -0.3819     1.0180 H       
  26 H26           -0.8023    -0.3822    -0.6289 H       
  27 H27            1.9388     1.0291    -1.9485 H       
  28 H28            1.6475     2.8874    -0.4510 H       
  29 H29            1.9087     1.8665     1.0030 H       
  30 H30           -0.1897    -2.7355    -0.6839 H       
  31 H31            1.0234    -4.7464    -1.3840 H       
  32 H32            2.5336    -4.2161    -0.5243 H       
  33 H33           -0.1858    -5.0357     0.7280 H       
  34 H34            1.4778    -5.2721     1.4191 H       
  35 H35            1.8063    -2.8587     1.6909 H       
  36 H36           -0.0088    -2.8198     1.7600 H       
  37 H37            7.8983    -0.1776     0.6495 H       
  38 H38           10.6320     1.0305    -2.2419 H       
  39 H39            8.7846     1.7778    -3.6888 H       
@<TRIPOS>BOND
   1    1    2 1
   2    1    5 1
   3    1   23 1
   4    1   24 1
   5    2    3 1
   6    2   25 1
   7    2   26 1
   8    3    4 1
   9    3    6 am
  10    4    5 1
  11    4   12 1
  12    4   27 1
  13    5   28 1
  14    5   29 1
  15    6    7 2
  16    6    8 1
  17    8    9 1
  18    8   11 1
  19    8   30 1
  20    9   10 1
  21    9   31 1
  22    9   32 1
  23   10   11 1
  24   10   33 1
  25   10   34 1
  26   11   35 1
  27   11   36 1
  28   12   13 2
  29   12   16 1
  30   13   14 1
  31   14   15 2
  32   14   17 1
  33   15   16 1
  34   17   18 ar
  35   17   22 ar
  36   18   19 ar
  37   18   37 1
  38   19   20 ar
  39   20   21 ar
  40   20   38 1
  41   21   22 ar
  42   21   39 1

#	End of record

