#	Name: ASD03090597
#	Creating user name:	WinNT
#	Creation time:	15. 06. 2019 20:29

#	Modifying user name:	WinNT
#	Modification time:	15. 06. 2019 20:29

#	Program:	/corina/corina34_cracker 3.40 0067  02.08.2006

@<TRIPOS>MOLECULE
ASD03090597
  30   31    0    0    0
SMALL
NO_CHARGES


@<TRIPOS>ATOM
   1 N1            -0.0162     1.3436     0.0094 N.am    
   2 C2            -0.2048     0.1129    -0.5066 C.2     
   3 O3             0.6895    -0.4301    -1.1262 O.2     
   4 N4            -1.3845    -0.5160    -0.3358 N.am    
   5 S5            -3.0134    -2.7138    -0.7392 S.3     
   6 C6            -1.5791    -1.7858    -0.8683 C.2     
   7 N7            -0.7037    -2.4647    -1.5466 N.2     
   8 N8            -1.0422    -3.6082    -1.9612 N.2     
   9 C9            -2.2414    -3.9994    -1.6681 C.2     
  10 C10           -2.8652    -5.3166    -2.0514 C.3     
  11 F11           -1.9098    -6.1181    -2.6853 F       
  12 F12           -3.3291    -5.9649    -0.9017 F       
  13 F13           -3.9358    -5.0896    -2.9228 F       
  14 C14            1.2476     1.9478    -0.0618 C.ar    
  15 C15            1.3523     3.3267    -0.2085 C.ar    
  16 C16            2.5987     3.9206    -0.2780 C.ar    
  17 C17            3.7437     3.1409    -0.2014 C.ar    
  18 C18            3.6389     1.7658    -0.0555 C.ar    
  19 C19            2.3941     1.1709     0.0199 C.ar    
  20 O20            4.9695     3.7254    -0.2698 O.3     
  21 C21            6.1054     2.8625    -0.1843 C.3     
  22 F22            0.2369     4.0852    -0.2835 F       
  23 H23           -0.7555     1.8131     0.4265 H       
  24 H24           -2.0979    -0.0828     0.1585 H       
  25 H25            2.6811     4.9914    -0.3923 H       
  26 H26            4.5310     1.1599     0.0033 H       
  27 H27            2.3135     0.1004     0.1379 H       
  28 H28            6.0870     2.3310     0.7671 H       
  29 H29            6.0777     2.1433    -1.0029 H       
  30 H30            7.0177     3.4551    -0.2519 H       
@<TRIPOS>BOND
   1    1    2 am
   2    1   14 1
   3    1   23 1
   4    2    3 2
   5    2    4 am
   6    4    6 1
   7    4   24 1
   8    5    6 1
   9    5    9 1
  10    6    7 2
  11    7    8 1
  12    8    9 2
  13    9   10 1
  14   10   11 1
  15   10   12 1
  16   10   13 1
  17   14   15 ar
  18   14   19 ar
  19   15   16 ar
  20   15   22 1
  21   16   17 ar
  22   16   25 1
  23   17   18 ar
  24   17   20 1
  25   18   19 ar
  26   18   26 1
  27   19   27 1
  28   20   21 1
  29   21   28 1
  30   21   29 1
  31   21   30 1

#	End of record

