#	Name: ASD03092983
#	Creating user name:	WinNT
#	Creation time:	15. 06. 2019 20:33

#	Modifying user name:	WinNT
#	Modification time:	15. 06. 2019 20:33

#	Program:	/corina/corina34_cracker 3.40 0067  02.08.2006

@<TRIPOS>MOLECULE
ASD03092983
  36   39    0    0    0
SMALL
NO_CHARGES


@<TRIPOS>ATOM
   1 N1            -0.7413    -0.8314     1.2216 N.am    
   2 S2             0.0037     0.0014    -0.0006 S.o2    
   3 O3            -0.5673    -0.4699    -1.2135 O.2     
   4 O4            -0.0054     1.3697     0.3826 O.2     
   5 C5             1.6930    -0.4991    -0.0185 C.ar    
   6 C6             2.6238     0.1822     0.7433 C.ar    
   7 C7             3.9492    -0.2104     0.7292 C.ar    
   8 C8             4.3436    -1.2846    -0.0463 C.ar    
   9 C9             3.4126    -1.9664    -0.8074 C.ar    
  10 C10            2.0865    -1.5765    -0.7900 C.ar    
  11 C11            5.7886    -1.7120    -0.0624 C.3     
  12 H12            6.0904    -2.3173    -0.9172 H       
  13 C13            6.8196    -0.7390     0.5133 C.3     
  14 H14            6.4526     0.2102     0.9037 H       
  15 C15            8.1744    -0.6910    -0.1448 C.2     
  16 N16            8.9641    -1.6929    -0.2404 N.2     
  17 C17           10.1469    -1.5052    -0.8562 C.ar    
  18 C18           11.1913    -2.4201    -1.0974 C.ar    
  19 C19           12.3209    -2.0220    -1.7463 C.ar    
  20 C20           12.4655    -0.7126    -2.1817 C.ar    
  21 C21           11.4614     0.2031    -1.9599 C.ar    
  22 C22           10.2991    -0.1860    -1.2980 C.ar    
  23 S23            8.8442     0.7050    -0.8623 S.3     
  24 C24            6.4523    -2.0099     1.2836 C.3     
  25 F25            5.6712    -1.8646     2.4351 F       
  26 F26            7.4003    -3.0379     1.3229 F       
  27 H27           -0.2335    -1.4560     1.7627 H       
  28 H28           -1.6847    -0.6916     1.3989 H       
  29 H29            2.3156     1.0215     1.3491 H       
  30 H30            4.6765     0.3223     1.3238 H       
  31 H31            3.7209    -2.8055    -1.4136 H       
  32 H32            1.3585    -2.1115    -1.3817 H       
  33 H33           11.0956    -3.4433    -0.7654 H       
  34 H34           13.1134    -2.7339    -1.9236 H       
  35 H35           13.3668    -0.4112    -2.6949 H       
  36 H36           11.5750     1.2223    -2.2985 H       
@<TRIPOS>BOND
   1    1    2 am
   2    1   27 1
   3    1   28 1
   4    2    3 2
   5    2    4 2
   6    2    5 1
   7    5   10 ar
   8    5    6 ar
   9    6    7 ar
  10    6   29 1
  11    7    8 ar
  12    7   30 1
  13    8    9 ar
  14    8   11 1
  15    9   10 ar
  16    9   31 1
  17   10   32 1
  18   11   12 1
  19   11   24 1
  20   11   13 1
  21   13   14 1
  22   13   15 1
  23   13   24 1
  24   15   23 1
  25   15   16 2
  26   16   17 1
  27   17   22 ar
  28   17   18 ar
  29   18   19 ar
  30   18   33 1
  31   19   20 ar
  32   19   34 1
  33   20   21 ar
  34   20   35 1
  35   21   22 ar
  36   21   36 1
  37   22   23 1
  38   24   25 1
  39   24   26 1

#	End of record

