#	Name: ASD01200114
#	Creating user name:	WinNT
#	Creation time:	15. 06. 2019 19:08

#	Modifying user name:	WinNT
#	Modification time:	15. 06. 2019 19:08

#	Program:	/corina/corina34_cracker 3.40 0067  02.08.2006

@<TRIPOS>MOLECULE
ASD01200114
  37   39    0    0    0
SMALL
NO_CHARGES


@<TRIPOS>ATOM
   1 C1            -0.0167     1.3792     0.0096 C.ar    
   2 C2             0.0021    -0.0041     0.0020 C.ar    
   3 C3             1.2087    -0.6842    -0.0132 C.ar    
   4 C4             2.3920     0.0166    -0.0208 C.ar    
   5 C5             2.3846     1.4137    -0.0132 C.ar    
   6 C6             1.1648     2.0919     0.0022 C.ar    
   7 C7             3.8409    -0.4021    -0.0369 C.3     
   8 N8             4.6266     0.8371    -0.0378 N.am    
   9 C9             3.7832     1.8837    -0.0241 C.2     
  10 O10            4.1240     3.0505    -0.0207 O.2     
  11 S11            4.2232    -1.3815     1.4413 S.3     
  12 C12            6.0892     0.9201    -0.0514 C.3     
  13 C13            6.5770     0.9561    -1.4768 C.2     
  14 C14            6.7643     2.0627    -2.1976 C.2     
  15 C15            7.2197     1.8487    -3.4872 C.2     
  16 C16            7.4022     0.5683    -3.8135 C.2     
  17 S17            6.9938    -0.4540    -2.4418 S.3     
  18 C18            3.6289    -3.0373     0.9988 C.3     
  19 C19            3.8791    -3.9837     2.1445 C.2     
  20 O20            3.5183    -5.2725     2.0415 O.3     
  21 O21            4.4044    -3.5824     3.1559 O.2     
  22 C22            3.7899    -6.1264     3.1841 C.3     
  23 H23           -0.9607     1.9038     0.0169 H       
  24 H24           -0.9267    -0.5552     0.0083 H       
  25 H25            1.2202    -1.7641    -0.0188 H       
  26 H26            1.1457     3.1718     0.0078 H       
  27 H27            4.0535    -0.9810    -0.9357 H       
  28 H28            6.4065     1.8264     0.4643 H       
  29 H29            6.5072     0.0493     0.4538 H       
  30 H30            6.5747     3.0508    -1.8050 H       
  31 H31            7.4123     2.6571    -4.1769 H       
  32 H32            7.7509     0.2137    -4.7722 H       
  33 H33            2.5601    -2.9956     0.7887 H       
  34 H34            4.1596    -3.3894     0.1142 H       
  35 H35            4.8616    -6.1372     3.3830 H       
  36 H36            3.2621    -5.7434     4.0575 H       
  37 H37            3.4500    -7.1395     2.9694 H       
@<TRIPOS>BOND
   1    1    2 ar
   2    1    6 ar
   3    1   23 1
   4    2    3 ar
   5    2   24 1
   6    3    4 ar
   7    3   25 1
   8    4    5 ar
   9    4    7 1
  10    5    6 ar
  11    5    9 1
  12    6   26 1
  13    7    8 1
  14    7   11 1
  15    7   27 1
  16    8    9 am
  17    8   12 1
  18    9   10 2
  19   11   18 1
  20   12   13 1
  21   12   28 1
  22   12   29 1
  23   13   14 2
  24   13   17 1
  25   14   15 1
  26   14   30 1
  27   15   16 2
  28   15   31 1
  29   16   17 1
  30   16   32 1
  31   18   19 1
  32   18   33 1
  33   18   34 1
  34   19   20 1
  35   19   21 2
  36   20   22 1
  37   22   35 1
  38   22   36 1
  39   22   37 1

#	End of record

