#	Name: ASD07480031
#	Creating user name:	WinNT
#	Creation time:	15. 06. 2019 21:11

#	Modifying user name:	WinNT
#	Modification time:	15. 06. 2019 21:11

#	Program:	/corina/corina34_cracker 3.40 0067  02.08.2006

@<TRIPOS>MOLECULE
ASD07480031
  68   72    0    0    0
SMALL
NO_CHARGES


@<TRIPOS>ATOM
   1 C1            -0.1972     0.9911    -0.2097 C.ar    
   2 C2            -0.0466    -0.3895    -0.2705 C.ar    
   3 C3             1.2274    -0.9413    -0.3190 C.ar    
   4 C4             2.3351    -0.1084    -0.3063 C.ar    
   5 C5             2.1817     1.2842    -0.2799 C.ar    
   6 C6             0.9090     1.8185    -0.2144 C.ar    
   7 C7             3.7136    -0.6357    -0.3065 C.2     
   8 C8             4.7759     0.1877    -0.0104 C.2     
   9 C9             4.5991     1.6342     0.3490 C.3     
  10 C10            3.3737     2.1967    -0.3705 C.3     
  11 C11            4.4056     1.7633     1.8612 C.3     
  12 C12            5.8425     2.4194    -0.0734 C.3     
  13 N13            4.2198    -1.8586    -0.5582 N.pl3   
  14 N14            5.5061    -1.8270    -0.4517 N.2     
  15 C15            5.9152    -0.6113    -0.1214 C.2     
  16 C16            3.4305    -3.0444    -0.9002 C.3     
  17 C17            7.3130    -0.1821     0.0900 C.2     
  18 N18            8.1263     0.0095    -0.9674 N.am    
  19 O19            7.7295    -0.0018     1.2178 O.2     
  20 C20            9.5124     0.4351    -0.7578 C.3     
  21 N21           -1.1712    -1.2183    -0.2823 N.pl3   
  22 C22           -2.3958    -0.7299    -0.7537 C.ar    
  23 C23           -2.4218     0.2027    -1.7824 C.ar    
  24 C24           -3.6295     0.6843    -2.2472 C.ar    
  25 C25           -4.8181     0.2362    -1.6861 C.ar    
  26 C26           -4.7921    -0.6961    -0.6571 C.ar    
  27 C27           -3.5847    -1.1824    -0.1964 C.ar    
  28 N28           -6.0424     0.7244    -2.1573 N.3     
  29 C29           -7.1661     0.1206    -1.4278 C.3     
  30 C30           -6.1766     0.5016    -3.6037 C.3     
  31 C31           -7.4891     1.1187    -4.0925 C.3     
  32 N32           -8.6129     0.5148    -3.3630 N.3     
  33 C33           -8.4786     0.7376    -1.9166 C.3     
  34 C34           -9.8977     1.0273    -3.8575 C.3     
  35 H35           -1.1871     1.4205    -0.1631 H       
  36 H36            1.3538    -2.0128    -0.3659 H       
  37 H37            0.7783     2.8895    -0.1668 H       
  38 H38            3.6213     2.3498    -1.4209 H       
  39 H39            3.1156     3.1585     0.0725 H       
  40 H40            5.2809     1.3653     2.3747 H       
  41 H41            4.2772     2.8136     2.1227 H       
  42 H42            3.5210     1.2028     2.1635 H       
  43 H43            6.0408     2.2446    -1.1308 H       
  44 H44            5.6744     3.4833     0.0937 H       
  45 H45            6.6980     2.0897     0.5161 H       
  46 H46            3.2066    -3.0367    -1.9669 H       
  47 H47            3.9981    -3.9419    -0.6546 H       
  48 H48            2.4994    -3.0369    -0.3335 H       
  49 H49            7.7940    -0.1343    -1.8673 H       
  50 H50           10.0109     0.5370    -1.7217 H       
  51 H51            9.5236     1.3941    -0.2398 H       
  52 H52           10.0339    -0.3091    -0.1559 H       
  53 H53           -1.1037    -2.1320     0.0361 H       
  54 H54           -1.4974     0.5515    -2.2186 H       
  55 H55           -3.6497     1.4098    -3.0470 H       
  56 H56           -5.7165    -1.0440    -0.2202 H       
  57 H57           -3.5645    -1.9076     0.6036 H       
  58 H58           -7.1806    -0.9544    -1.6073 H       
  59 H59           -7.0506     0.3099    -0.3606 H       
  60 H60           -5.3397     0.9687    -4.1228 H       
  61 H61           -6.1798    -0.5691    -3.8079 H       
  62 H62           -7.4747     2.1937    -3.9130 H       
  63 H63           -7.6047     0.9294    -5.1597 H       
  64 H64           -9.3156     0.2706    -1.3975 H       
  65 H65           -8.4754     1.8083    -1.7124 H       
  66 H66          -10.0004     0.7896    -4.9164 H       
  67 H67          -10.7122     0.5641    -3.3006 H       
  68 H68           -9.9340     2.1083    -3.7226 H       
@<TRIPOS>BOND
   1    1    2 ar
   2    1    6 ar
   3    1   35 1
   4    2    3 ar
   5    2   21 1
   6    3    4 ar
   7    3   36 1
   8    4    5 ar
   9    4    7 1
  10    5    6 ar
  11    5   10 1
  12    6   37 1
  13    7    8 2
  14    7   13 1
  15    8    9 1
  16    8   15 1
  17    9   10 1
  18    9   11 1
  19    9   12 1
  20   10   38 1
  21   10   39 1
  22   11   40 1
  23   11   41 1
  24   11   42 1
  25   12   43 1
  26   12   44 1
  27   12   45 1
  28   13   14 1
  29   13   16 1
  30   14   15 2
  31   15   17 1
  32   16   46 1
  33   16   47 1
  34   16   48 1
  35   17   18 am
  36   17   19 2
  37   18   20 1
  38   18   49 1
  39   20   50 1
  40   20   51 1
  41   20   52 1
  42   21   22 1
  43   21   53 1
  44   22   23 ar
  45   22   27 ar
  46   23   24 ar
  47   23   54 1
  48   24   25 ar
  49   24   55 1
  50   25   26 ar
  51   25   28 1
  52   26   27 ar
  53   26   56 1
  54   27   57 1
  55   28   29 1
  56   28   30 1
  57   29   33 1
  58   29   58 1
  59   29   59 1
  60   30   31 1
  61   30   60 1
  62   30   61 1
  63   31   32 1
  64   31   62 1
  65   31   63 1
  66   32   33 1
  67   32   34 1
  68   33   64 1
  69   33   65 1
  70   34   66 1
  71   34   67 1
  72   34   68 1

#	End of record

