#	Name: ASD01917400
#	Creating user name:	WinNT
#	Creation time:	15. 06. 2019 20:09

#	Modifying user name:	WinNT
#	Modification time:	15. 06. 2019 20:09

#	Program:	/corina/corina34_cracker 3.40 0067  02.08.2006

@<TRIPOS>MOLECULE
ASD01917400
  37   39    0    0    0
SMALL
NO_CHARGES


@<TRIPOS>ATOM
   1 C1            -0.0168     1.3889     0.0097 C.ar    
   2 C2             0.0021    -0.0041     0.0020 C.ar    
   3 C3             1.2225    -0.6606    -0.0132 C.ar    
   4 C4             2.3820     0.0991    -0.0202 C.ar    
   5 C5             2.2883     1.4815    -0.0119 C.ar    
   6 N6             1.1168     2.0790     0.0026 N.ar    
   7 C7            -1.3134     2.1059     0.0197 C.2     
   8 O8            -2.3544     1.4791     0.0212 O.2     
   9 N9            -1.3382     3.4534     0.0271 N.am    
  10 C10           -2.6202     4.1624     0.0371 C.3     
  11 C11           -3.4933     3.8196    -1.1827 C.3     
  12 C12           -4.8892     4.4117    -0.9789 C.3     
  13 C13           -4.7967     5.9181    -0.7283 C.3     
  14 C14           -3.8675     6.1707     0.4719 C.3     
  15 C15           -4.2616     5.1684     1.5813 C.3     
  16 C16           -3.4559     3.8638     1.3031 C.3     
  17 C17           -2.4507     5.7047     0.0442 C.3     
  18 N18           -3.9062     7.5658     0.9303 N.3     
  19 H19           -0.9212    -0.5643     0.0082 H       
  20 H20            1.2691    -1.7396    -0.0191 H       
  21 H21            3.3489    -0.3819    -0.0317 H       
  22 H22            3.1896     2.0764    -0.0174 H       
  23 H23           -0.5072     3.9538     0.0259 H       
  24 H24           -3.0456     4.2424    -2.0821 H       
  25 H25           -3.5678     2.7370    -1.2851 H       
  26 H26           -5.4913     4.2305    -1.8693 H       
  27 H27           -5.3630     3.9320    -0.1225 H       
  28 H28           -4.3924     6.4108    -1.6126 H       
  29 H29           -5.7890     6.3132    -0.5108 H       
  30 H30           -3.9969     5.5693     2.5597 H       
  31 H31           -5.3310     4.9621     1.5372 H       
  32 H32           -4.1374     3.0342     1.1151 H       
  33 H33           -2.7979     3.6266     2.1391 H       
  34 H34           -1.6922     6.0113     0.7644 H       
  35 H35           -2.2138     6.0765    -0.9527 H       
  36 H36           -4.8402     7.8301     1.2060 H       
  37 H37           -3.2507     7.7177     1.6821 H       
@<TRIPOS>BOND
   1    1    2 ar
   2    1    6 ar
   3    1    7 1
   4    2    3 ar
   5    2   19 1
   6    3    4 ar
   7    3   20 1
   8    4    5 ar
   9    4   21 1
  10    5    6 ar
  11    5   22 1
  12    7    8 2
  13    7    9 am
  14    9   10 1
  15    9   23 1
  16   10   11 1
  17   10   16 1
  18   10   17 1
  19   11   12 1
  20   11   24 1
  21   11   25 1
  22   12   13 1
  23   12   26 1
  24   12   27 1
  25   13   14 1
  26   13   28 1
  27   13   29 1
  28   14   15 1
  29   14   17 1
  30   14   18 1
  31   15   16 1
  32   15   30 1
  33   15   31 1
  34   16   32 1
  35   16   33 1
  36   17   34 1
  37   17   35 1
  38   18   36 1
  39   18   37 1

#	End of record

