#	Name: ASD01918031
#	Creating user name:	WinNT
#	Creation time:	15. 06. 2019 20:10

#	Modifying user name:	WinNT
#	Modification time:	15. 06. 2019 20:10

#	Program:	/corina/corina34_cracker 3.40 0067  02.08.2006

@<TRIPOS>MOLECULE
ASD01918031
  41   44    0    0    0
SMALL
NO_CHARGES


@<TRIPOS>ATOM
   1 C1            -0.0157     1.3065     0.0092 C.2     
   2 N2             0.0021    -0.0041     0.0020 N.2     
   3 N3             1.3223    -0.4639    -0.0131 N.pl3   
   4 C4             2.1755     0.6067    -0.0154 C.ar    
   5 C5             1.3772     1.7670    -0.0016 C.ar    
   6 C6            -1.2230     2.1666     0.0199 C.ar    
   7 C7            -1.1035     3.5552     0.0263 C.ar    
   8 N8            -2.1758     4.3203     0.0363 N.ar    
   9 C9            -3.3932     3.8127     0.0401 C.ar    
  10 C10           -3.5955     2.4443     0.0338 C.ar    
  11 C11           -2.5006     1.5980     0.0179 C.ar    
  12 N12            1.9492     2.9687    -0.0010 N.ar    
  13 N13            3.4995     0.7204    -0.0275 N.ar    
  14 C14            4.0560     1.9198    -0.0264 C.ar    
  15 C15            3.2613     3.0684    -0.0134 C.ar    
  16 C16           -2.6805     0.1018     0.0048 C.3     
  17 C17            1.7291    -1.8712    -0.0241 C.3     
  18 O18            5.4075     2.0356    -0.0386 O.3     
  19 C19            6.1624     0.8223    -0.0523 C.3     
  20 C20            7.6341     1.1466    -0.0646 C.ar    
  21 N21            8.5171     0.1672    -0.0837 N.ar    
  22 C22            8.0426     2.4666    -0.0614 C.ar    
  23 C23            9.3991     2.7543    -0.0728 C.ar    
  24 C24           10.2973     1.6984    -0.0871 C.ar    
  25 C25            9.8143     0.4033    -0.0950 C.ar    
  26 F26           -4.0457    -0.2037     0.0054 F       
  27 F27           -2.0842    -0.4295    -1.1438 F       
  28 F28           -2.0786    -0.4501     1.1407 F       
  29 H29           -0.1230     4.0080     0.0235 H       
  30 H30           -4.2455     4.4759     0.0487 H       
  31 H31           -4.5973     2.0407     0.0370 H       
  32 H32            3.7260     4.0433    -0.0129 H       
  33 H33            1.8205    -2.2150    -1.0544 H       
  34 H34            2.6897    -1.9757     0.4804 H       
  35 H35            0.9798    -2.4701     0.4937 H       
  36 H36            5.9266     0.2376     0.8368 H       
  37 H37            5.9097     0.2471    -0.9430 H       
  38 H38            7.3146     3.2643    -0.0506 H       
  39 H39            9.7475     3.7765    -0.0711 H       
  40 H40           11.3610     1.8854    -0.0966 H       
  41 H41           10.5075    -0.4248    -0.1103 H       
@<TRIPOS>BOND
   1    1    2 2
   2    1    5 1
   3    1    6 1
   4    2    3 1
   5    3    4 1
   6    3   17 1
   7    4   13 ar
   8    4    5 ar
   9    5   12 ar
  10    6    7 ar
  11    6   11 ar
  12    7    8 ar
  13    7   29 1
  14    8    9 ar
  15    9   10 ar
  16    9   30 1
  17   10   11 ar
  18   10   31 1
  19   11   16 1
  20   12   15 ar
  21   13   14 ar
  22   14   15 ar
  23   14   18 1
  24   15   32 1
  25   16   26 1
  26   16   27 1
  27   16   28 1
  28   17   33 1
  29   17   34 1
  30   17   35 1
  31   18   19 1
  32   19   20 1
  33   19   36 1
  34   19   37 1
  35   20   22 ar
  36   20   21 ar
  37   21   25 ar
  38   22   23 ar
  39   22   38 1
  40   23   24 ar
  41   23   39 1
  42   24   25 ar
  43   24   40 1
  44   25   41 1

#	End of record

