#	Name: ASD01870170
#	Creating user name:	WinNT
#	Creation time:	15. 06. 2019 19:38

#	Modifying user name:	WinNT
#	Modification time:	15. 06. 2019 19:38

#	Program:	/corina/corina34_cracker 3.40 0067  02.08.2006

@<TRIPOS>MOLECULE
ASD01870170
  54   58    0    0    0
SMALL
NO_CHARGES


@<TRIPOS>ATOM
   1 C1            -0.0168     1.3890     0.0097 C.ar    
   2 C2             0.0021    -0.0041     0.0020 C.ar    
   3 C3             1.1787    -0.6895    -0.0125 C.ar    
   4 C4             2.3941     0.0134    -0.0203 C.ar    
   5 C5             2.3756     1.4326    -0.0130 C.ar    
   6 C6             1.1407     2.1050     0.0025 C.ar    
   7 C7             3.6272    -0.6637    -0.0358 C.ar    
   8 C8             4.7900     0.0351    -0.0436 C.ar    
   9 C9             4.7882     1.4439    -0.0361 C.ar    
  10 C10            3.5864     2.1337    -0.0214 C.ar    
  11 C11            5.8880     2.4286    -0.0415 C.2     
  12 N12            5.3952     3.6790    -0.0301 N.am    
  13 C13            3.9298     3.6021    -0.0168 C.3     
  14 C14            6.1876     4.9112    -0.0312 C.3     
  15 C15            7.0590     4.9582    -1.2900 C.3     
  16 C16            7.9390     6.2111    -1.2419 C.3     
  17 C17            8.7731     6.1904     0.0417 C.3     
  18 O18            7.9027     6.1151     1.1726 O.3     
  19 C19            7.0892     4.9407     1.2056 C.3     
  20 C20            3.6565    -2.1704    -0.0431 C.3     
  21 C21            3.5284    -2.6685    -1.4596 C.ar    
  22 C22            4.6615    -2.8765    -2.2350 C.ar    
  23 C23            4.5003    -3.3347    -3.5300 C.ar    
  24 C24            3.2154    -3.5705    -4.0094 C.ar    
  25 N25            2.1590    -3.3593    -3.2381 N.ar    
  26 C26            2.2836    -2.9280    -1.9975 C.ar    
  27 O27            6.2236     5.0051    -2.4484 O.3     
  28 O28            7.0708     2.1485    -0.0540 O.2     
  29 S29            2.9913    -4.1544    -5.6566 S.3     
  30 C30            1.1886    -4.3001    -5.7962 C.3     
  31 H31           -0.9637     1.9083     0.0170 H       
  32 H32           -0.9306    -0.5486     0.0080 H       
  33 H33            1.1770    -1.7695    -0.0175 H       
  34 H34            1.1108     3.1846     0.0079 H       
  35 H35            5.7302    -0.4960    -0.0555 H       
  36 H36            3.5210     4.0855    -0.9040 H       
  37 H37            3.5378     4.0759     0.8832 H       
  38 H38            5.5206     5.7732    -0.0175 H       
  39 H39            7.6903     4.0705    -1.3299 H       
  40 H40            8.6021     6.2239    -2.1070 H       
  41 H41            7.3082     7.0999    -1.2521 H       
  42 H42            9.4329     5.3228     0.0325 H       
  43 H43            9.3698     7.1005     0.1022 H       
  44 H44            6.4729     4.9506     2.1046 H       
  45 H45            7.7271     4.0568     1.2117 H       
  46 H46            4.5991    -2.5175     0.3803 H       
  47 H47            2.8279    -2.5529     0.5529 H       
  48 H48            5.6465    -2.6844    -1.8359 H       
  49 H49            5.3600    -3.5069    -4.1607 H       
  50 H50            1.3998    -2.7674    -1.3979 H       
  51 H51            6.7103     5.0365    -3.2834 H       
  52 H52            0.9291    -4.6598    -6.7919 H       
  53 H53            0.8220    -5.0038    -5.0488 H       
  54 H54            0.7313    -3.3244    -5.6318 H       
@<TRIPOS>BOND
   1    1    2 ar
   2    1    6 ar
   3    1   31 1
   4    2    3 ar
   5    2   32 1
   6    3    4 ar
   7    3   33 1
   8    4    5 ar
   9    4    7 ar
  10    5    6 ar
  11    5   10 ar
  12    6   34 1
  13    7    8 ar
  14    7   20 1
  15    8    9 ar
  16    8   35 1
  17    9   10 ar
  18    9   11 1
  19   10   13 1
  20   11   12 am
  21   11   28 2
  22   12   13 1
  23   12   14 1
  24   13   36 1
  25   13   37 1
  26   14   15 1
  27   14   19 1
  28   14   38 1
  29   15   16 1
  30   15   27 1
  31   15   39 1
  32   16   17 1
  33   16   40 1
  34   16   41 1
  35   17   18 1
  36   17   42 1
  37   17   43 1
  38   18   19 1
  39   19   44 1
  40   19   45 1
  41   20   21 1
  42   20   46 1
  43   20   47 1
  44   21   22 ar
  45   21   26 ar
  46   22   23 ar
  47   22   48 1
  48   23   24 ar
  49   23   49 1
  50   24   25 ar
  51   24   29 1
  52   25   26 ar
  53   26   50 1
  54   27   51 1
  55   29   30 1
  56   30   52 1
  57   30   53 1
  58   30   54 1

#	End of record

