#	Name: ASD03330668
#	Creating user name:	WinNT
#	Creation time:	15. 06. 2019 20:37

#	Modifying user name:	WinNT
#	Modification time:	15. 06. 2019 20:37

#	Program:	/corina/corina34_cracker 3.40 0067  02.08.2006

@<TRIPOS>MOLECULE
ASD03330668
  67   69    0    0    0
SMALL
NO_CHARGES


@<TRIPOS>ATOM
   1 C1             0.3392     1.7263     1.5227 C.2     
   2 N2             0.3628     0.4291     1.9276 N.pl3   
   3 C3             1.5623     2.0023     0.9895 C.2     
   4 N4             2.3059     0.8774     1.0578 N.2     
   5 C5             1.5926    -0.0755     1.6146 C.2     
   6 C6             2.0435    -1.4560     1.8595 C.2     
   7 C7             1.9960     3.2974     0.4360 C.2     
   8 O8             1.2309     4.2428     0.4294 O.2     
   9 C9             3.6717     4.7218    -0.6129 C.3     
  10 N10            3.2406     3.4343    -0.0627 N.am    
  11 C11            3.2327     4.8244    -2.0750 C.3     
  12 C12            1.7127     4.6740    -2.1628 C.3     
  13 C13            3.6437     6.1870    -2.6365 C.3     
  14 C14            3.9028     3.7147    -2.8877 C.3     
  15 C15            5.1729     4.8259    -0.5307 C.2     
  16 N16            5.7768     6.0169    -0.7131 N.am    
  17 O17            5.8375     3.8379    -0.3004 O.2     
  18 C18            7.2392     6.1051    -0.7079 C.3     
  19 C19           -0.7385    -0.2745     2.5907 C.3     
  20 C20           -2.0399    -0.0002     1.8304 C.3     
  21 C21           -2.6871     1.2756     2.3595 C.3     
  22 N22           -1.6735     2.2490     2.7708 N.3     
  23 C23           -0.8367     2.6618     1.6344 C.3     
  24 C24           -2.2934     3.4128     3.4182 C.3     
  25 C25            2.4603    -2.1520     0.8251 C.2     
  26 C26            3.0300    -3.5364     0.9379 C.3     
  27 C27            2.0911    -4.4388     1.7467 C.3     
  28 C28            2.5313    -4.3854     3.2081 C.3     
  29 C29            3.0940    -2.9962     3.5236 C.3     
  30 C30            1.9984    -1.9607     3.2722 C.3     
  31 H31            3.2195     5.5315    -0.0401 H       
  32 H32            3.8509     2.6804    -0.0574 H       
  33 H33            1.2353     5.4645    -1.5838 H       
  34 H34            1.3999     4.7470    -3.2044 H       
  35 H35            1.4199     3.7032    -1.7628 H       
  36 H36            4.7097     6.3420    -2.4701 H       
  37 H37            3.4347     6.2173    -3.7059 H       
  38 H38            3.0794     6.9724    -2.1336 H       
  39 H39            3.6101     2.7440    -2.4877 H       
  40 H40            3.5901     3.7878    -3.9293 H       
  41 H41            4.9857     3.8219    -2.8251 H       
  42 H42            5.2433     6.8156    -0.8479 H       
  43 H43            7.6437     5.4800    -1.5039 H       
  44 H44            7.5413     7.1398    -0.8693 H       
  45 H45            7.6205     5.7610     0.2535 H       
  46 H46           -0.5372    -1.3457     2.5937 H       
  47 H47           -0.8336     0.0822     3.6163 H       
  48 H48           -1.8217     0.1173     0.7690 H       
  49 H49           -2.7237    -0.8377     1.9685 H       
  50 H50           -3.3067     1.7135     1.5769 H       
  51 H51           -3.3150     1.0296     3.2159 H       
  52 H52           -0.4793     3.6789     1.7954 H       
  53 H53           -1.4230     2.6214     0.7164 H       
  54 H54           -2.8439     3.0873     4.3009 H       
  55 H55           -1.5183     4.1199     3.7137 H       
  56 H56           -2.9781     3.8949     2.7204 H       
  57 H57            2.3890    -1.7053    -0.1556 H       
  58 H58            3.1605    -3.9547    -0.0602 H       
  59 H59            3.9992    -3.4878     1.4343 H       
  60 H60            1.0661    -4.0791     1.6570 H       
  61 H61            2.1567    -5.4629     1.3791 H       
  62 H62            1.6753    -4.5854     3.8527 H       
  63 H63            3.3008    -5.1372     3.3832 H       
  64 H64            3.4051    -2.9543     4.5674 H       
  65 H65            3.9470    -2.7899     2.8771 H       
  66 H66            2.1322    -1.1243     3.9582 H       
  67 H67            1.0255    -2.4180     3.4524 H       
@<TRIPOS>BOND
   1    1    2 1
   2    1    3 2
   3    1   23 1
   4    2   19 1
   5    2    5 1
   6    3    4 1
   7    3    7 1
   8    4    5 2
   9    5    6 1
  10    6   25 2
  11    6   30 1
  12    7    8 2
  13    7   10 am
  14    9   10 1
  15    9   11 1
  16    9   15 1
  17    9   31 1
  18   10   32 1
  19   11   12 1
  20   11   13 1
  21   11   14 1
  22   12   33 1
  23   12   34 1
  24   12   35 1
  25   13   36 1
  26   13   37 1
  27   13   38 1
  28   14   39 1
  29   14   40 1
  30   14   41 1
  31   15   16 am
  32   15   17 2
  33   16   18 1
  34   16   42 1
  35   18   43 1
  36   18   44 1
  37   18   45 1
  38   19   20 1
  39   19   46 1
  40   19   47 1
  41   20   21 1
  42   20   48 1
  43   20   49 1
  44   21   22 1
  45   21   50 1
  46   21   51 1
  47   22   23 1
  48   22   24 1
  49   23   52 1
  50   23   53 1
  51   24   54 1
  52   24   55 1
  53   24   56 1
  54   25   26 1
  55   25   57 1
  56   26   27 1
  57   26   58 1
  58   26   59 1
  59   27   28 1
  60   27   60 1
  61   27   61 1
  62   28   29 1
  63   28   62 1
  64   28   63 1
  65   29   30 1
  66   29   64 1
  67   29   65 1
  68   30   66 1
  69   30   67 1

#	End of record

