#	Name: ASD00310024
#	Creating user name:	WinNT
#	Creation time:	15. 06. 2019 18:33

#	Modifying user name:	WinNT
#	Modification time:	15. 06. 2019 18:33

#	Program:	/corina/corina34_cracker 3.40 0067  02.08.2006

@<TRIPOS>MOLECULE
ASD00310024
   9    8    0    0    0
SMALL
NO_CHARGES


@<TRIPOS>ATOM
   1 C1            -0.0181     1.4822     0.0102 C.2     
   2 C2             0.0021    -0.0041     0.0020 C.2     
   3 C3             1.2766     2.2534     0.0020 C.3     
   4 O4            -1.0722     2.0719     0.0184 O.2     
   5 O5            -1.0356    -0.6222     0.0086 O.2     
   6 H6             0.9446    -0.5313    -0.0098 H       
   7 H7             1.8432     2.0027    -0.8948 H       
   8 H8             1.0629     3.3222     0.0098 H       
   9 H9             1.8602     1.9931     0.8850 H       
@<TRIPOS>BOND
   1    1    2 1
   2    1    3 1
   3    1    4 2
   4    2    5 2
   5    2    6 1
   6    3    7 1
   7    3    8 1
   8    3    9 1

#	End of record

