#	Name: ASD02032010
#	Creating user name:	WinNT
#	Creation time:	15. 06. 2019 20:16

#	Modifying user name:	WinNT
#	Modification time:	15. 06. 2019 20:16

#	Program:	/corina/corina34_cracker 3.40 0067  02.08.2006

@<TRIPOS>MOLECULE
ASD02032010
  20   21    0    0    0
SMALL
NO_CHARGES


@<TRIPOS>ATOM
   1 C1            -0.0179     1.4702     0.0101 C.2     
   2 C2             0.0021    -0.0041     0.0020 C.2     
   3 C3            -1.0926    -0.6575     0.5549 C.2     
   4 C4            -2.1566     0.1373     1.0541 C.ar    
   5 C5            -2.1774     1.5214     0.7993 C.ar    
   6 O6            -1.2205     2.0871     0.0306 O.3     
   7 C7            -3.1853    -0.4462     1.8077 C.ar    
   8 C8            -4.1874     0.3455     2.3205 C.ar    
   9 C9            -4.1885     1.7150     2.0894 C.ar    
  10 C10           -3.1943     2.3009     1.3338 C.ar    
  11 O11            1.0160     2.1116     0.0037 O.2     
  12 Br12          -5.5713    -0.4359     3.3453 Br      
  13 C13            1.1334    -0.7520    -0.5680 C.2     
  14 O14            1.1235    -1.9674    -0.5614 O.2     
  15 O15            2.1810    -0.0894    -1.0976 O.3     
  16 H16           -1.1323    -1.7357     0.6027 H       
  17 H17           -3.1914    -1.5116     1.9845 H       
  18 H18           -4.9753     2.3269     2.5052 H       
  19 H19           -3.2071     3.3663     1.1577 H       
  20 H20            2.9007    -0.6239    -1.4602 H       
@<TRIPOS>BOND
   1    1    2 1
   2    1   11 2
   3    1    6 1
   4    2    3 2
   5    2   13 1
   6    3    4 1
   7    3   16 1
   8    4    5 ar
   9    4    7 ar
  10    5    6 1
  11    5   10 ar
  12    7    8 ar
  13    7   17 1
  14    8    9 ar
  15    8   12 1
  16    9   10 ar
  17    9   18 1
  18   10   19 1
  19   13   14 2
  20   13   15 1
  21   15   20 1

#	End of record

