#	Name: ASD01028598
#	Creating user name:	WinNT
#	Creation time:	15. 06. 2019 18:57

#	Modifying user name:	WinNT
#	Modification time:	15. 06. 2019 18:57

#	Program:	/corina/corina34_cracker 3.40 0067  02.08.2006

@<TRIPOS>MOLECULE
ASD01028598
  55   60    0    0    0
SMALL
NO_CHARGES


@<TRIPOS>ATOM
   1 N1            -0.0157     1.3086     0.0092 N.ar    
   2 C2             0.0021    -0.0041     0.0020 C.ar    
   3 C3             1.1929    -0.7180    -0.0127 C.ar    
   4 C4             2.4010    -0.0409    -0.0206 C.ar    
   5 C5             2.3699     1.3759    -0.0131 C.ar    
   6 N6             3.4972     2.0878    -0.0196 N.ar    
   7 C7             3.4806     3.3981    -0.0124 C.ar    
   8 C8             2.2786     4.1130     0.0024 C.ar    
   9 C9             1.0780     3.4323     0.0097 C.ar    
  10 C10            1.1130     2.0256     0.0023 C.ar    
  11 N11            3.6056    -0.7290    -0.0349 N.pl3   
  12 C12            3.6123    -2.1940    -0.0419 C.3     
  13 C13            7.0115    -3.3801     0.5387 C.2     
  14 C14            8.0317    -3.7372     1.4413 C.2     
  15 C15            7.7935    -3.6555     2.7764 C.2     
  16 C16            6.5359    -3.2176     3.2455 C.2     
  17 N17            5.5825    -2.8834     2.4025 N.2     
  18 N18            5.7979    -2.9571     1.0248 N.pl3   
  19 N19            5.7561    -2.9376    -1.1228 N.2     
  20 N20            6.9289    -3.3442    -0.7814 N.2     
  21 C21            5.0353    -2.6897    -0.0573 C.2     
  22 S22            5.2217    -2.7649     6.9687 S.3     
  23 C23            6.8805    -3.3439     6.8538 C.2     
  24 N24            7.2130    -3.4581     5.6057 N.2     
  25 C25            6.2869    -3.1334     4.7037 C.2     
  26 C26            5.1107    -2.7235     5.2108 C.2     
  27 O27            9.1502    -3.0399    10.2632 O.3     
  28 C28            7.9307    -3.7804    10.3626 C.3     
  29 C29            7.0086    -3.3928     9.2035 C.3     
  30 N30            7.7032    -3.6328     7.9302 N.3     
  31 C31            8.9505    -2.8575     7.8631 C.3     
  32 C32            9.8531    -3.2505     9.0356 C.3     
  33 O33            2.2928     5.4715     0.0099 O.3     
  34 C34            3.5727     6.1070     0.0021 C.3     
  35 H35           -0.9340    -0.5427     0.0081 H       
  36 H36            1.1771    -1.7979    -0.0177 H       
  37 H37            4.4160     3.9379    -0.0177 H       
  38 H38            0.1381     3.9642     0.0211 H       
  39 H39            4.4433    -0.2401    -0.0403 H       
  40 H40            3.1083    -2.5639     0.8510 H       
  41 H41            3.0920    -2.5555    -0.9289 H       
  42 H42            8.9916    -4.0722     1.0768 H       
  43 H43            8.5670    -3.9263     3.4798 H       
  44 H44            4.2461    -2.4211     4.6386 H       
  45 H45            8.1478    -4.8475    10.3138 H       
  46 H46            7.4416    -3.5508    11.3092 H       
  47 H47            6.1016    -3.9960     9.2426 H       
  48 H48            6.7483    -2.3374     9.2828 H       
  49 H49            9.4610    -3.0699     6.9237 H       
  50 H50            8.7212    -1.7935     7.9209 H       
  51 H51           10.7543    -2.6375     9.0225 H       
  52 H52           10.1261    -4.3021     8.9482 H       
  53 H53            4.1186     5.8134    -0.8944 H       
  54 H54            3.4411     7.1890     0.0094 H       
  55 H55            4.1345     5.8033     0.8854 H       
@<TRIPOS>BOND
   1    1    2 ar
   2    1   10 ar
   3    2    3 ar
   4    2   35 1
   5    3    4 ar
   6    3   36 1
   7    4    5 ar
   8    4   11 1
   9    5    6 ar
  10    5   10 ar
  11    6    7 ar
  12    7    8 ar
  13    7   37 1
  14    8    9 ar
  15    8   33 1
  16    9   10 ar
  17    9   38 1
  18   11   12 1
  19   11   39 1
  20   12   21 1
  21   12   40 1
  22   12   41 1
  23   13   14 1
  24   13   18 1
  25   13   20 2
  26   14   15 2
  27   14   42 1
  28   15   16 1
  29   15   43 1
  30   16   17 2
  31   16   25 1
  32   17   18 1
  33   18   21 1
  34   19   20 1
  35   19   21 2
  36   22   23 1
  37   22   26 1
  38   23   24 2
  39   23   30 1
  40   24   25 1
  41   25   26 2
  42   26   44 1
  43   27   28 1
  44   27   32 1
  45   28   29 1
  46   28   45 1
  47   28   46 1
  48   29   30 1
  49   29   47 1
  50   29   48 1
  51   30   31 1
  52   31   32 1
  53   31   49 1
  54   31   50 1
  55   32   51 1
  56   32   52 1
  57   33   34 1
  58   34   53 1
  59   34   54 1
  60   34   55 1

#	End of record

