#	Name: ASD07030044
#	Creating user name:	WinNT
#	Creation time:	15. 06. 2019 21:08

#	Modifying user name:	WinNT
#	Modification time:	15. 06. 2019 21:08

#	Program:	/corina/corina34_cracker 3.40 0067  02.08.2006

@<TRIPOS>MOLECULE
ASD07030044
  36   37    0    0    0
SMALL
NO_CHARGES


@<TRIPOS>ATOM
   1 C1            -0.0187     1.5258     0.0104 C.3     
   2 C2             0.0021    -0.0041     0.0020 C.3     
   3 C3             1.3165     0.7789    -0.0063 C.3     
   4 N4            -0.4313     2.2053    -1.2248 N.3     
   5 C5            -0.3780    -0.7121     1.2769 C.ar    
   6 C6            -1.4567    -1.5770     1.2908 C.ar    
   7 C7            -1.8071    -2.2272     2.4581 C.ar    
   8 C8            -1.0757    -2.0119     3.6171 C.ar    
   9 C9             0.0062    -1.1437     3.6006 C.ar    
  10 C10            0.3560    -0.5002     2.4293 C.ar    
  11 O11           -1.4187    -2.6501     4.7669 O.3     
  12 C12           -0.6209    -2.3805     5.9214 C.3     
  13 O13           -0.9443    -1.0856     6.4320 O.3     
  14 C14           -2.1919    -1.0297     7.1266 C.3     
  15 C15           -2.4337     0.3960     7.6265 C.3     
  16 O16           -2.5836     1.2737     6.5089 O.3     
  17 C17           -2.8150     2.6374     6.8678 C.3     
  18 H18           -0.3072     2.0201     0.9381 H       
  19 H19           -0.2904    -0.5063    -0.9201 H       
  20 H20            1.8888     0.7918    -0.9339 H       
  21 H21            1.9064     0.7818     0.9103 H       
  22 H22           -0.4095     3.2076    -1.1107 H       
  23 H23            0.1412     1.9176    -2.0043 H       
  24 H24           -2.0260    -1.7440     0.3883 H       
  25 H25           -2.6500    -2.9024     2.4686 H       
  26 H26            0.5772    -0.9744     4.5015 H       
  27 H27            1.2011     0.1722     2.4147 H       
  28 H28           -0.8207    -3.1324     6.6848 H       
  29 H29            0.4341    -2.4106     5.6491 H       
  30 H30           -2.9970    -1.3194     6.4513 H       
  31 H31           -2.1661    -1.7129     7.9755 H       
  32 H32           -3.3401     0.4200     8.2315 H       
  33 H33           -1.5853     0.7181     8.2303 H       
  34 H34           -3.7293     2.7079     7.4569 H       
  35 H35           -1.9745     3.0061     7.4558 H       
  36 H36           -2.9177     3.2385     5.9643 H       
@<TRIPOS>BOND
   1    1    2 1
   2    1    3 1
   3    1    4 1
   4    1   18 1
   5    2    3 1
   6    2    5 1
   7    2   19 1
   8    3   20 1
   9    3   21 1
  10    4   22 1
  11    4   23 1
  12    5    6 ar
  13    5   10 ar
  14    6    7 ar
  15    6   24 1
  16    7    8 ar
  17    7   25 1
  18    8    9 ar
  19    8   11 1
  20    9   10 ar
  21    9   26 1
  22   10   27 1
  23   11   12 1
  24   12   13 1
  25   12   28 1
  26   12   29 1
  27   13   14 1
  28   14   15 1
  29   14   30 1
  30   14   31 1
  31   15   16 1
  32   15   32 1
  33   15   33 1
  34   16   17 1
  35   17   34 1
  36   17   35 1
  37   17   36 1

#	End of record

