#	Name: ASD03331633
#	Creating user name:	WinNT
#	Creation time:	15. 06. 2019 20:39

#	Modifying user name:	WinNT
#	Modification time:	15. 06. 2019 20:39

#	Program:	/corina/corina34_cracker 3.40 0067  02.08.2006

@<TRIPOS>MOLECULE
ASD03331633
  62   64    0    0    0
SMALL
NO_CHARGES


@<TRIPOS>ATOM
   1 C1            -0.0164     1.3615     0.0095 C.ar    
   2 C2             0.0021    -0.0041     0.0020 C.ar    
   3 C3             1.2080    -0.6950    -0.0132 C.ar    
   4 C4             2.4059    -0.0158    -0.0210 C.ar    
   5 C5             1.1892     2.0745     0.0018 C.ar    
   6 C6             1.5022     3.4553     0.0055 C.2     
   7 C7             2.4125     1.3760    -0.0136 C.ar    
   8 N8             3.4200     2.3121    -0.0186 N.pl3   
   9 C9             2.8557     3.5730    -0.0072 C.2     
  10 C10            0.5117     4.5910     0.0203 C.3     
  11 C11            0.1901     4.9684     1.4678 C.3     
  12 Cl12          -1.4939    -0.8848     0.0122 Cl      
  13 C13            3.6012     4.8406    -0.0086 C.2     
  14 N14            4.9489     4.8298    -0.0219 N.am    
  15 O15            3.0015     5.8989     0.0022 O.2     
  16 C16            5.6915     6.0926    -0.0233 C.3     
  17 C17            7.1934     5.8010    -0.0394 C.3     
  18 C18            7.9574     7.1000    -0.0408 C.ar    
  19 C19            8.9904     8.8936    -1.2447 C.ar    
  20 C20            8.2904     7.7031    -1.2398 C.ar    
  21 C21            8.3188     7.6890     1.1570 C.ar    
  22 C22            9.0186     8.8796     1.1593 C.ar    
  23 C23            9.3597     9.4853    -0.0434 C.ar    
  24 N24           10.0678    10.6893    -0.0447 N.pl3   
  25 C25           10.4563    11.3119     1.2232 C.3     
  26 C26           10.4219    11.3294    -1.3140 C.3     
  27 C27           -0.8156     6.1213     1.4828 C.3     
  28 C28           -1.1371     6.4987     2.9303 C.3     
  29 C29           -2.1428     7.6517     2.9453 C.3     
  30 C30           -2.4643     8.0291     4.3928 C.3     
  31 H31           -0.9582     1.8902     0.0169 H       
  32 H32            1.2056    -1.7750    -0.0186 H       
  33 H33            3.3377    -0.5617    -0.0325 H       
  34 H34            4.3705     2.1189    -0.0286 H       
  35 H35            0.9386     5.4523    -0.4934 H       
  36 H36           -0.4027     4.2822    -0.4863 H       
  37 H37           -0.2369     4.1071     1.9815 H       
  38 H38            1.1044     5.2771     1.9745 H       
  39 H39            5.4271     3.9859    -0.0305 H       
  40 H40            5.4241     6.6704    -0.9080 H       
  41 H41            5.4416     6.6621     0.8719 H       
  42 H42            7.4608     5.2232     0.8453 H       
  43 H43            7.4434     5.2315    -0.9345 H       
  44 H44            9.2499     9.3643    -2.1814 H       
  45 H45            8.0030     7.2425    -2.1734 H       
  46 H46            8.0533     7.2176     2.0917 H       
  47 H47            9.3000     9.3395     2.0951 H       
  48 H48           11.0976    10.6299     1.7814 H       
  49 H49           10.9969    12.2370     1.0230 H       
  50 H50            9.5635    11.5321     1.8085 H       
  51 H51            9.6240    12.0091    -1.6131 H       
  52 H52           11.3493    11.8890    -1.1923 H       
  53 H53           10.5558    10.5664    -2.0808 H       
  54 H54           -0.3886     6.9826     0.9691 H       
  55 H55           -1.7299     5.8126     0.9762 H       
  56 H56           -1.5641     5.6374     3.4440 H       
  57 H57           -0.2228     6.8075     3.4369 H       
  58 H58           -1.7158     8.5130     2.4316 H       
  59 H59           -3.0571     7.3429     2.4386 H       
  60 H60           -2.8913     7.1678     4.9065 H       
  61 H61           -1.5500     8.3379     4.8994 H       
  62 H62           -3.1808     8.8505     4.4035 H       
@<TRIPOS>BOND
   1    1    2 ar
   2    1    5 ar
   3    1   31 1
   4    2    3 ar
   5    2   12 1
   6    3    4 ar
   7    3   32 1
   8    4    7 ar
   9    4   33 1
  10    5    7 ar
  11    5    6 1
  12    6    9 2
  13    6   10 1
  14    7    8 1
  15    8    9 1
  16    8   34 1
  17    9   13 1
  18   10   11 1
  19   10   35 1
  20   10   36 1
  21   11   27 1
  22   11   37 1
  23   11   38 1
  24   13   14 am
  25   13   15 2
  26   14   16 1
  27   14   39 1
  28   16   17 1
  29   16   40 1
  30   16   41 1
  31   17   18 1
  32   17   42 1
  33   17   43 1
  34   18   21 ar
  35   18   20 ar
  36   19   20 ar
  37   19   23 ar
  38   19   44 1
  39   20   45 1
  40   21   22 ar
  41   21   46 1
  42   22   23 ar
  43   22   47 1
  44   23   24 1
  45   24   26 1
  46   24   25 1
  47   25   48 1
  48   25   49 1
  49   25   50 1
  50   26   51 1
  51   26   52 1
  52   26   53 1
  53   27   28 1
  54   27   54 1
  55   27   55 1
  56   28   29 1
  57   28   56 1
  58   28   57 1
  59   29   30 1
  60   29   58 1
  61   29   59 1
  62   30   60 1
  63   30   61 1
  64   30   62 1

#	End of record

