#	Name: ASD01814837
#	Creating user name:	WinNT
#	Creation time:	15. 06. 2019 19:33

#	Modifying user name:	WinNT
#	Modification time:	15. 06. 2019 19:33

#	Program:	/corina/corina34_cracker 3.40 0067  02.08.2006

@<TRIPOS>MOLECULE
ASD01814837
  48   51    0    0    0
SMALL
NO_CHARGES


@<TRIPOS>ATOM
   1 C1            -0.0169     1.3972     0.0097 C.2     
   2 C2             0.0021    -0.0041     0.0020 C.2     
   3 C3             1.1986    -0.6593    -0.0129 C.2     
   4 C4             2.3918     0.0821    -0.0204 C.2     
   5 N5             2.3437     1.4497    -0.0122 N.am    
   6 C6             1.1421     2.0937     0.0024 C.2     
   7 C7             3.6227    -0.5889    -0.0356 C.2     
   8 C8             4.7877     0.1218    -0.0425 C.2     
   9 C9             4.7345     1.5280    -0.0346 C.2     
  10 C10            3.4812     2.1736    -0.0189 C.2     
  11 O11            3.4258     3.3917    -0.0123 O.2     
  12 C12            5.9703     2.3140    -0.0413 C.2     
  13 O13            5.9124     3.6618    -0.0337 O.3     
  14 O14            7.0487     1.7516    -0.0537 O.2     
  15 C15            3.6593    -2.0954    -0.0439 C.3     
  16 N16            3.7787    -2.5747    -1.4274 N.3     
  17 C17            4.0550    -4.0176    -1.4629 C.3     
  18 C18            4.0930    -4.4914    -2.9177 C.3     
  19 N19            5.1256    -3.7424    -3.6473 N.3     
  20 C20            4.8494    -2.2994    -3.6118 C.3     
  21 C21            4.8113    -1.8256    -2.1570 C.3     
  22 H22            5.0173    -4.2153    -0.9907 H       
  23 C23            5.2393    -4.1985    -4.9640 C.ar    
  24 C24            6.1629    -3.6185    -5.8234 C.ar    
  25 C25            4.4324    -5.2362    -5.4125 C.ar    
  26 C26            4.5465    -5.6854    -6.7145 C.ar    
  27 C27            5.4657    -5.1011    -7.5717 C.ar    
  28 C28            6.2740    -4.0704    -7.1243 C.ar    
  29 H29            4.3265    -5.5557    -2.9475 H       
  30 H30            3.1221    -4.3186    -3.3819 H       
  31 Cl31           3.5386    -6.9823    -7.2764 Cl      
  32 F32            5.5767    -5.5419    -8.8439 F       
  33 H33           -0.9605     1.9226     0.0170 H       
  34 H34           -0.9233    -0.5609     0.0082 H       
  35 H35            1.2282    -1.7389    -0.0187 H       
  36 H36            1.1156     3.1733     0.0087 H       
  37 H37            5.7393    -0.3889    -0.0536 H       
  38 H38            6.7544     4.1373    -0.0385 H       
  39 H39            4.5153    -2.4412     0.5356 H       
  40 H40            2.7412    -2.4836     0.3971 H       
  41 H41            3.2701    -4.5514    -0.9270 H       
  42 H42            5.6342    -1.7656    -4.1477 H       
  43 H43            3.8870    -2.1017    -4.0839 H       
  44 H44            4.5779    -0.7613    -2.1271 H       
  45 H45            5.7823    -1.9984    -1.6927 H       
  46 H46            6.7940    -2.8143    -5.4752 H       
  47 H47            3.7167    -5.6919    -4.7443 H       
  48 H48            6.9893    -3.6163    -7.7940 H       
@<TRIPOS>BOND
   1    1    2 1
   2    1    6 2
   3    1   33 1
   4    2    3 2
   5    2   34 1
   6    3    4 1
   7    3   35 1
   8    4    5 1
   9    4    7 2
  10    5    6 1
  11    5   10 am
  12    6   36 1
  13    7   15 1
  14    7    8 1
  15    8    9 2
  16    8   37 1
  17    9   10 1
  18    9   12 1
  19   10   11 2
  20   12   13 1
  21   12   14 2
  22   13   38 1
  23   15   16 1
  24   15   39 1
  25   15   40 1
  26   16   17 1
  27   16   21 1
  28   17   18 1
  29   17   22 1
  30   17   41 1
  31   18   19 1
  32   18   29 1
  33   18   30 1
  34   19   20 1
  35   19   23 1
  36   20   21 1
  37   20   42 1
  38   20   43 1
  39   21   44 1
  40   21   45 1
  41   23   24 ar
  42   23   25 ar
  43   24   28 ar
  44   24   46 1
  45   25   26 ar
  46   25   47 1
  47   26   27 ar
  48   26   31 1
  49   27   28 ar
  50   27   32 1
  51   28   48 1

#	End of record

