#	Name: ASD00431183
#	Creating user name:	WinNT
#	Creation time:	15. 06. 2019 18:35

#	Modifying user name:	WinNT
#	Modification time:	15. 06. 2019 18:35

#	Program:	/corina/corina34_cracker 3.40 0067  02.08.2006

@<TRIPOS>MOLECULE
ASD00431183
  47   49    0    0    0
SMALL
NO_CHARGES


@<TRIPOS>ATOM
   1 C1            -0.0296     1.4157    -0.1156 C.2     
   2 N2            -0.0574     0.0684    -0.1383 N.am    
   3 O3             1.0337     2.0005    -0.0541 O.2     
   4 O4            -1.1798     2.1136    -0.1667 O.3     
   5 C5             1.1945    -0.6910    -0.0889 C.3     
   6 C6             1.6248    -0.8706     1.3683 C.3     
   7 O7            -0.0487    -2.8632    -0.5193 O.3     
   8 N8             0.0845    -3.8731    -1.1776 N.2     
   9 C9             1.1997    -3.8174    -1.8645 C.2     
  10 N10            1.7883    -2.6333    -1.5725 N.2     
  11 C11            0.9873    -2.0429    -0.7217 C.2     
  12 S12            3.2185    -4.7656    -3.7004 S.3     
  13 C13            2.9081    -6.3061    -4.3732 C.2     
  14 N14            1.7875    -6.7781    -3.9198 N.2     
  15 C15            1.1228    -6.0292    -3.0682 C.2     
  16 C16            1.7167    -4.8512    -2.7830 C.2     
  17 O17            3.7159    -6.9427    -5.2542 O.3     
  18 C18            4.1065    -8.8709    -6.5982 C.ar    
  19 C19            3.4104    -8.2247    -5.5892 C.ar    
  20 C20            2.3947    -8.9044    -4.9225 C.ar    
  21 C21            2.1183   -10.2078    -5.2964 C.ar    
  22 C22            2.8580   -10.7906    -6.3168 C.ar    
  23 N23            3.8160   -10.1148    -6.9284 N.ar    
  24 O24            2.5949   -12.0688    -6.6906 O.3     
  25 C25            3.3897   -12.6127    -7.7463 C.3     
  26 C26            4.6299   -13.2866    -7.1558 C.3     
  27 C27            2.5693   -13.6449    -8.5225 C.3     
  28 C28           -1.0741     3.5615    -0.1382 C.3     
  29 H29           -0.9062    -0.3985    -0.1874 H       
  30 H30            1.9692    -0.1502    -0.6325 H       
  31 H31            2.5562    -1.4356     1.4051 H       
  32 H32            1.7747     0.1072     1.8261 H       
  33 H33            0.8501    -1.4114     1.9119 H       
  34 H34            0.1811    -6.3308    -2.6338 H       
  35 H35            4.8929    -8.3490    -7.1232 H       
  36 H36            1.8358    -8.4258    -4.1319 H       
  37 H37            1.3373   -10.7650    -4.8004 H       
  38 H38            3.6968   -11.8122    -8.4193 H       
  39 H39            5.2362   -13.7014    -7.9611 H       
  40 H40            5.2144   -12.5512    -6.6028 H       
  41 H41            4.3228   -14.0871    -6.4828 H       
  42 H42            1.6858   -13.1649    -8.9432 H       
  43 H43            3.1756   -14.0598    -9.3278 H       
  44 H44            2.2622   -14.4454    -7.8495 H       
  45 H45           -0.5839     3.8719     0.7846 H       
  46 H46           -0.4880     3.8999    -0.9926 H       
  47 H47           -2.0711     3.9996    -0.1850 H       
@<TRIPOS>BOND
   1    1    2 am
   2    1    3 2
   3    1    4 1
   4    2    5 1
   5    2   29 1
   6    4   28 1
   7    5    6 1
   8    5   11 1
   9    5   30 1
  10    6   31 1
  11    6   32 1
  12    6   33 1
  13    7    8 1
  14    7   11 1
  15    8    9 2
  16    9   10 1
  17    9   16 1
  18   10   11 2
  19   12   13 1
  20   12   16 1
  21   13   14 2
  22   13   17 1
  23   14   15 1
  24   15   16 2
  25   15   34 1
  26   17   19 1
  27   18   19 ar
  28   18   23 ar
  29   18   35 1
  30   19   20 ar
  31   20   21 ar
  32   20   36 1
  33   21   22 ar
  34   21   37 1
  35   22   23 ar
  36   22   24 1
  37   24   25 1
  38   25   26 1
  39   25   27 1
  40   25   38 1
  41   26   39 1
  42   26   40 1
  43   26   41 1
  44   27   42 1
  45   27   43 1
  46   27   44 1
  47   28   45 1
  48   28   46 1
  49   28   47 1

#	End of record

