#	Name: ASD04230137
#	Creating user name:	WinNT
#	Creation time:	15. 06. 2019 20:48

#	Modifying user name:	WinNT
#	Modification time:	15. 06. 2019 20:48

#	Program:	/corina/corina34_cracker 3.40 0067  02.08.2006

@<TRIPOS>MOLECULE
ASD04230137
  47   50    0    0    0
SMALL
NO_CHARGES


@<TRIPOS>ATOM
   1 C1            -0.0201     1.3790     0.0495 C.ar    
   2 C2            -0.0003    -0.0082     0.0381 C.ar    
   3 C3             1.1848    -0.6863     0.0294 C.ar    
   4 C4             2.3957     0.0212     0.0422 C.ar    
   5 C5             2.3815     1.4276     0.0206 C.ar    
   6 C6             1.1610     2.0997     0.0379 C.ar    
   7 C7             3.6343    -0.6710     0.0720 C.2     
   8 C8             4.7886     0.0708     0.2852 C.2     
   9 C9             4.6293     1.5213     0.4957 C.2     
  10 O10            3.5429     2.1221    -0.0390 O.3     
  11 C11            6.1166    -0.5650     0.3009 C.2     
  12 N12            7.2188     0.1818     0.5104 N.am    
  13 O13            6.2189    -1.7642     0.1248 O.2     
  14 C14            8.4676    -0.4350     0.6376 C.ar    
  15 C15            9.6061     0.1931     0.1477 C.ar    
  16 C16           10.8417    -0.4138     0.2713 C.ar    
  17 C17           10.9516    -1.6470     0.8819 C.ar    
  18 C18            9.8148    -2.2843     1.3762 C.ar    
  19 C19            8.5709    -1.6714     1.2579 C.ar    
  20 C20            9.9314    -3.6108     2.0322 C.2     
  21 O21            5.4495     2.1572     1.1309 O.2     
  22 C22            9.4250    -4.8078     1.6116 C.2     
  23 C23           10.6023    -3.9365     3.2443 C.2     
  24 N24           10.4364    -5.2140     3.4208 N.2     
  25 O25            9.7892    -5.7127     2.5304 O.3     
  26 C26           11.3552    -2.9900     4.1434 C.3     
  27 C27            8.6178    -5.0601     0.3643 C.3     
  28 O28            1.1309     3.4591     0.0425 O.3     
  29 C29           -0.1564     4.0794     0.0606 C.3     
  30 H30           -0.9655     1.9009     0.0629 H       
  31 H31           -0.9306    -0.5567     0.0366 H       
  32 H32            1.1898    -1.7661     0.0129 H       
  33 H33            3.6777    -1.7412    -0.0665 H       
  34 H34            7.1460     1.1470     0.5730 H       
  35 H35            9.5253     1.1578    -0.3311 H       
  36 H36           11.7238     0.0781    -0.1113 H       
  37 H37           11.9187    -2.1183     0.9763 H       
  38 H38            7.6873    -2.1613     1.6394 H       
  39 H39           10.6742    -2.5765     4.8873 H       
  40 H40           12.1590    -3.5281     4.6459 H       
  41 H41           11.7769    -2.1807     3.5473 H       
  42 H42            9.2887    -5.3033    -0.4597 H       
  43 H43            7.9356    -5.8928     0.5352 H       
  44 H44            8.0453    -4.1666     0.1151 H       
  45 H45           -0.7179     3.7769    -0.8234 H       
  46 H46           -0.6956     3.7714     0.9564 H       
  47 H47           -0.0376     5.1629     0.0624 H       
@<TRIPOS>BOND
   1    1    2 ar
   2    1    6 ar
   3    1   30 1
   4    2    3 ar
   5    2   31 1
   6    3    4 ar
   7    3   32 1
   8    4    5 ar
   9    4    7 1
  10    5    6 ar
  11    5   10 1
  12    6   28 1
  13    7    8 2
  14    7   33 1
  15    8    9 1
  16    8   11 1
  17    9   10 1
  18    9   21 2
  19   11   12 am
  20   11   13 2
  21   12   14 1
  22   12   34 1
  23   14   15 ar
  24   14   19 ar
  25   15   16 ar
  26   15   35 1
  27   16   17 ar
  28   16   36 1
  29   17   18 ar
  30   17   37 1
  31   18   19 ar
  32   18   20 1
  33   19   38 1
  34   20   23 1
  35   20   22 2
  36   22   27 1
  37   22   25 1
  38   23   24 2
  39   23   26 1
  40   24   25 1
  41   26   39 1
  42   26   40 1
  43   26   41 1
  44   27   42 1
  45   27   43 1
  46   27   44 1
  47   28   29 1
  48   29   45 1
  49   29   46 1
  50   29   47 1

#	End of record

