#	Name: ASD00960266
#	Creating user name:	WinNT
#	Creation time:	15. 06. 2019 18:53

#	Modifying user name:	WinNT
#	Modification time:	15. 06. 2019 18:53

#	Program:	/corina/corina34_cracker 3.40 0067  02.08.2006

@<TRIPOS>MOLECULE
ASD00960266
  40   43    0    0    0
SMALL
NO_CHARGES


@<TRIPOS>ATOM
   1 C1            -0.0169     1.3970     0.0097 C.2     
   2 C2             0.0021    -0.0041     0.0020 C.2     
   3 N3             1.2805     1.8204    -0.0004 N.pl3   
   4 C4             2.1027     0.7253    -0.0004 C.2     
   5 C5             1.3609    -0.3916    -0.0068 C.2     
   6 N6             1.8000     3.1241     0.0041 N.2     
   7 C7             3.0678     3.2848    -0.2329 C.2     
   8 N8             3.8946     2.2228    -0.5255 N.pl3   
   9 C9             3.6074     0.8832     0.0175 C.3     
  10 N10            4.1079     0.7804     1.3948 N.3     
  11 C11           -1.1692    -0.9005     0.0033 C.2     
  12 S12           -1.1091    -2.6612    -0.0065 S.3     
  13 C13           -2.8707    -2.7165     0.0031 C.2     
  14 C14           -3.3289    -1.4589     0.0125 C.2     
  15 N15           -2.4153    -0.5173     0.0177 N.2     
  16 C16           -1.1694     2.2214     0.0199 C.2     
  17 O17           -2.2774     1.7183     0.0231 O.2     
  18 O18           -1.0382     3.5647     0.0261 O.3     
  19 C19           -2.2424     4.3341     0.0362 C.3     
  20 C20           -1.9006     5.8018     0.0419 C.ar    
  21 C21           -1.7501     6.4811    -1.1526 C.ar    
  22 C22           -1.4366     7.8274    -1.1474 C.ar    
  23 C23           -1.2741     8.4946     0.0523 C.ar    
  24 C24           -1.4255     7.8155     1.2469 C.ar    
  25 C25           -1.7432     6.4702     1.2417 C.ar    
  26 H26            1.7347    -1.4049    -0.0162 H       
  27 H27            3.4852     4.2804    -0.1998 H       
  28 H28            4.6701     2.3573    -1.0925 H       
  29 H29            4.0706     0.1196    -0.6074 H       
  30 H30            5.1050     0.9311     1.4294 H       
  31 H31            3.6238     1.4224     2.0043 H       
  32 H32           -3.4761    -3.6109     0.0014 H       
  33 H33           -4.3850    -1.2334     0.0197 H       
  34 H34           -2.8298     4.1013    -0.8519 H       
  35 H35           -2.8206     4.0922     0.9280 H       
  36 H36           -1.8772     5.9598    -2.0899 H       
  37 H37           -1.3184     8.3579    -2.0806 H       
  38 H38           -1.0285     9.5463     0.0564 H       
  39 H39           -1.2981     8.3367     2.1842 H       
  40 H40           -1.8652     5.9405     2.1749 H       
@<TRIPOS>BOND
   1    1    2 2
   2    1    3 1
   3    1   16 1
   4    2   11 1
   5    2    5 1
   6    3    4 1
   7    3    6 1
   8    4    5 2
   9    4    9 1
  10    5   26 1
  11    6    7 2
  12    7    8 1
  13    7   27 1
  14    8    9 1
  15    8   28 1
  16    9   10 1
  17    9   29 1
  18   10   30 1
  19   10   31 1
  20   11   12 1
  21   11   15 2
  22   12   13 1
  23   13   14 2
  24   13   32 1
  25   14   15 1
  26   14   33 1
  27   16   17 2
  28   16   18 1
  29   18   19 1
  30   19   20 1
  31   19   34 1
  32   19   35 1
  33   20   21 ar
  34   20   25 ar
  35   21   22 ar
  36   21   36 1
  37   22   23 ar
  38   22   37 1
  39   23   24 ar
  40   23   38 1
  41   24   25 ar
  42   24   39 1
  43   25   40 1

#	End of record

