#	Name: ASD03240403
#	Creating user name:	WinNT
#	Creation time:	15. 06. 2019 20:34

#	Modifying user name:	WinNT
#	Modification time:	15. 06. 2019 20:34

#	Program:	/corina/corina34_cracker 3.40 0067  02.08.2006

@<TRIPOS>MOLECULE
ASD03240403
  44   46    0    0    0
SMALL
NO_CHARGES


@<TRIPOS>ATOM
   1 C1            -0.0687     1.4763     0.0646 C.ar    
   2 C2            -0.1573     0.0989    -0.0115 C.ar    
   3 C3             0.6072     4.0499    -1.4794 C.ar    
   4 C4             1.3917     2.9277    -1.2833 C.ar    
   5 C5             1.2788     2.1479     0.0014 C.3     
   6 C6             0.7067     4.7677    -2.6542 C.ar    
   7 C7             1.5990     4.3600    -3.6432 C.ar    
   8 C8             2.3863     3.2288    -3.4407 C.ar    
   9 C9             2.2790     2.5183    -2.2622 C.ar    
  10 C10            1.4309     3.0990     1.1902 C.3     
  11 C11            1.7099     5.1280    -4.9090 C.2     
  12 C12            2.5375     4.8424    -5.9554 C.2     
  13 N13            2.3325     5.7777    -6.9047 N.pl3   
  14 N14            1.3554     6.6661    -6.4397 N.2     
  15 C15            0.9754     6.2802    -5.2505 C.2     
  16 N16            1.4409     2.3247     2.4385 N.3     
  17 C17            1.5857     3.2069     3.6041 C.3     
  18 C18           -1.3916    -0.5200     0.0457 C.ar    
  19 C19           -2.5425     0.2417     0.1801 C.ar    
  20 C20           -2.4514     1.6251     0.2569 C.ar    
  21 C21           -1.2149     2.2393     0.1930 C.ar    
  22 O22           -3.7576    -0.3648     0.2362 O.3     
  23 Cl23          -3.8897     2.5827     0.4246 Cl      
  24 C24           -3.7753    -1.7911     0.1507 C.3     
  25 H25            0.7392    -0.4943    -0.1162 H       
  26 H26           -0.0875     4.3625    -0.7139 H       
  27 H27            2.0635     1.3923     0.0379 H       
  28 H28            0.0935     5.6436    -2.8065 H       
  29 H29            3.0797     2.9085    -4.2042 H       
  30 H30            2.8892     1.6414    -2.1040 H       
  31 H31            2.3667     3.6502     1.0971 H       
  32 H32            0.5962     3.7998     1.2040 H       
  33 H33            3.2312     4.0167    -6.0130 H       
  34 H34            2.7843     5.8268    -7.7616 H       
  35 H35            0.2327     6.7646    -4.6339 H       
  36 H36            0.6119     1.7548     2.5172 H       
  37 H37            2.5225     3.7589     3.5278 H       
  38 H38            0.7521     3.9085     3.6346 H       
  39 H39            1.5901     2.6080     4.5148 H       
  40 H40           -1.4598    -1.5962    -0.0146 H       
  41 H41           -1.1430     3.3152     0.2530 H       
  42 H42           -4.8044    -2.1458     0.2079 H       
  43 H43           -3.3353    -2.1039    -0.7962 H       
  44 H44           -3.1998    -2.2117     0.9753 H       
@<TRIPOS>BOND
   1    1    2 ar
   2    1    5 1
   3    1   21 ar
   4    2   18 ar
   5    2   25 1
   6    3    4 ar
   7    3    6 ar
   8    3   26 1
   9    4    5 1
  10    4    9 ar
  11    5   10 1
  12    5   27 1
  13    6    7 ar
  14    6   28 1
  15    7    8 ar
  16    7   11 1
  17    8    9 ar
  18    8   29 1
  19    9   30 1
  20   10   16 1
  21   10   31 1
  22   10   32 1
  23   11   12 2
  24   11   15 1
  25   12   13 1
  26   12   33 1
  27   13   14 1
  28   13   34 1
  29   14   15 2
  30   15   35 1
  31   16   17 1
  32   16   36 1
  33   17   37 1
  34   17   38 1
  35   17   39 1
  36   18   19 ar
  37   18   40 1
  38   19   20 ar
  39   19   22 1
  40   20   21 ar
  41   20   23 1
  42   21   41 1
  43   22   24 1
  44   24   42 1
  45   24   43 1
  46   24   44 1

#	End of record

