#	Name: ASD01140520
#	Creating user name:	WinNT
#	Creation time:	15. 06. 2019 19:01

#	Modifying user name:	WinNT
#	Modification time:	15. 06. 2019 19:01

#	Program:	/corina/corina34_cracker 3.40 0067  02.08.2006

@<TRIPOS>MOLECULE
ASD01140520
  44   47    0    0    0
SMALL
NO_CHARGES


@<TRIPOS>ATOM
   1 C1            -0.1076     1.4019     0.0367 C.ar    
   2 C2            -0.1295     0.0250     0.0694 C.ar    
   3 C3             1.0610    -0.6867     0.1542 C.ar    
   4 C4             2.2651    -0.0149     0.2008 C.ar    
   5 C5             2.3004     1.3892     0.1629 C.ar    
   6 C6             1.1007     2.0955     0.0874 C.ar    
   7 O7             1.0391    -2.0456     0.1917 O.3     
   8 C8            -0.2425    -2.6754     0.1401 C.3     
   9 N9             1.0404     3.4913     0.0730 N.pl3   
  10 C10            3.6196     2.0335     0.1916 C.2     
  11 N11            3.9096     3.1498     0.8673 N.am    
  12 C12            2.9629     3.9409     1.6721 C.3     
  13 C13            3.7163     5.1879     2.1722 C.3     
  14 C14            5.2269     3.8129     0.9065 C.3     
  15 C15            5.1947     4.7144     2.1647 C.3     
  16 N16            0.3763     5.5052    -0.3924 N.2     
  17 C17            0.1604     4.2465    -0.6446 C.2     
  18 C18            1.8289     4.3494     0.7713 C.2     
  19 C19            1.4066     5.6111     0.4885 C.2     
  20 O20            4.5143     1.5130    -0.4461 O.2     
  21 C21            1.9624     6.8596     1.0344 C.2     
  22 O22            1.7075     7.1903     2.1759 O.2     
  23 O23            2.7542     7.6364     0.2685 O.3     
  24 C24            3.2669     8.8532     0.8725 C.3     
  25 C25            4.1385     9.5976    -0.1409 C.3     
  26 H26           -1.0358     1.9497    -0.0334 H       
  27 H27           -1.0717    -0.5013     0.0296 H       
  28 H28            3.1876    -0.5725     0.2673 H       
  29 H29           -0.7458    -2.3998    -0.7867 H       
  30 H30           -0.1173    -3.7576     0.1776 H       
  31 H31           -0.8421    -2.3493     0.9900 H       
  32 H32            2.5989     3.3542     2.5155 H       
  33 H33            3.5747     6.0253     1.4890 H       
  34 H34            3.3999     5.4524     3.1811 H       
  35 H35            6.0207     3.0710     0.9937 H       
  36 H36            5.3716     4.4184     0.0117 H       
  37 H37            5.8749     5.5593     2.0573 H       
  38 H38            5.4257     4.1407     3.0622 H       
  39 H39           -0.5941     3.8620    -1.3149 H       
  40 H40            2.4338     9.4892     1.1718 H       
  41 H41            3.8639     8.6003     1.7487 H       
  42 H42            4.9716     8.9616    -0.4402 H       
  43 H43            3.5414     9.8505    -1.0171 H       
  44 H44            4.5233    10.5111     0.3125 H       
@<TRIPOS>BOND
   1    1    2 ar
   2    1    6 ar
   3    1   26 1
   4    2    3 ar
   5    2   27 1
   6    3    4 ar
   7    3    7 1
   8    4    5 ar
   9    4   28 1
  10    5    6 ar
  11    5   10 1
  12    6    9 1
  13    7    8 1
  14    8   29 1
  15    8   30 1
  16    8   31 1
  17    9   18 1
  18    9   17 1
  19   10   11 am
  20   10   20 2
  21   11   14 1
  22   11   12 1
  23   12   13 1
  24   12   18 1
  25   12   32 1
  26   13   15 1
  27   13   33 1
  28   13   34 1
  29   14   15 1
  30   14   35 1
  31   14   36 1
  32   15   37 1
  33   15   38 1
  34   16   17 2
  35   16   19 1
  36   17   39 1
  37   18   19 2
  38   19   21 1
  39   21   22 2
  40   21   23 1
  41   23   24 1
  42   24   25 1
  43   24   40 1
  44   24   41 1
  45   25   42 1
  46   25   43 1
  47   25   44 1

#	End of record

