#	Name: ASD01411010
#	Creating user name:	WinNT
#	Creation time:	15. 06. 2019 19:19

#	Modifying user name:	WinNT
#	Modification time:	15. 06. 2019 19:19

#	Program:	/corina/corina34_cracker 3.40 0067  02.08.2006

@<TRIPOS>MOLECULE
ASD01411010
  69   75    0    0    0
SMALL
NO_CHARGES


@<TRIPOS>ATOM
   1 C1            -0.0105     1.4129    -0.0008 C.ar    
   2 C2             0.0050     0.0178     0.1900 C.ar    
   3 C3            -1.1831    -0.6700     0.4083 C.ar    
   4 C4            -2.3702     0.0030     0.4384 C.ar    
   5 C5            -2.4050     1.3911     0.2501 C.ar    
   6 C6            -1.2258     2.0980     0.0362 C.ar    
   7 N7             1.2729     1.8073    -0.1886 N.2     
   8 C8             2.0670     0.7630    -0.1271 C.2     
   9 N9             1.3265    -0.3682     0.1059 N.pl3   
  10 C10            1.8433    -1.7324     0.2403 C.3     
  11 C11            1.4582    -2.2908     1.6117 C.3     
  12 C12            1.9979    -3.7155     1.7521 C.3     
  13 C13            1.3988    -4.5983     0.6554 C.3     
  14 C14            1.7839    -4.0398    -0.7160 C.3     
  15 C15            1.2442    -2.6151    -0.8564 C.3     
  16 C16           -3.6964     2.1065     0.2847 C.2     
  17 O17           -3.7286     3.3109     0.1215 O.2     
  18 N18           -4.8392     1.4244     0.4971 N.am    
  19 C19           -6.1203     2.1342     0.5314 C.3     
  20 C20           -7.2484     1.1685     0.1628 C.3     
  21 C21           -6.3567     2.6774     1.9170 C.2     
  22 C22           -7.0791     0.7202    -1.2660 C.2     
  23 C23           -7.6670     1.2579    -2.3464 C.2     
  24 N24           -7.2750     0.5879    -3.4728 N.pl3   
  25 C25           -6.4018    -0.4246    -3.1353 C.ar    
  26 C26           -6.2369    -0.3809    -1.7395 C.ar    
  27 C27           -5.7201    -1.3844    -3.8763 C.ar    
  28 C28           -4.8961    -2.2866    -3.2418 C.ar    
  29 C29           -4.7355    -2.2499    -1.8589 C.ar    
  30 C30           -5.3976    -1.3006    -1.1065 C.ar    
  31 O31           -3.9177    -3.1484    -1.2480 O.3     
  32 C32            3.5283     0.8004    -0.2846 C.2     
  33 C33           -5.4483     2.5884     2.8931 C.2     
  34 S34           -6.1254     3.3426     4.3344 S.3     
  35 C35           -7.5627     3.7025     3.4812 C.2     
  36 N36           -7.4740     3.2839     2.2639 N.2     
  37 C37            4.3134     1.9125    -0.2104 C.2     
  38 C38            5.6377     1.4876    -0.4199 C.2     
  39 C39            5.6002     0.1523    -0.6098 C.2     
  40 O40            4.3265    -0.2598    -0.5218 O.3     
  41 H41           -1.1669    -1.7400     0.5542 H       
  42 H42           -3.2892    -0.5382     0.6082 H       
  43 H43           -1.2517     3.1679    -0.1090 H       
  44 H44            2.9291    -1.7207     0.1446 H       
  45 H45            1.8850    -1.6619     2.3930 H       
  46 H46            0.3725    -2.3025     1.7074 H       
  47 H47            3.0837    -3.7038     1.6564 H       
  48 H48            1.7236    -4.1134     2.7291 H       
  49 H49            1.7833    -5.6133     0.7555 H       
  50 H50            0.3131    -4.6100     0.7511 H       
  51 H51            2.8697    -4.0281    -0.8117 H       
  52 H52            1.3571    -4.6687    -1.4973 H       
  53 H53            0.1585    -2.6268    -0.7607 H       
  54 H54            1.5186    -2.2173    -1.8334 H       
  55 H55           -4.8135     0.4635     0.6272 H       
  56 H56           -6.0988     2.9573    -0.1828 H       
  57 H57           -7.2142     0.3013     0.8222 H       
  58 H58           -8.2086     1.6721     0.2742 H       
  59 H59           -8.3490     2.0952    -2.3289 H       
  60 H60           -7.5681     0.7938    -4.3743 H       
  61 H61           -5.8375    -1.4221    -4.9493 H       
  62 H62           -4.3694    -3.0299    -3.8219 H       
  63 H63           -5.2721    -1.2730    -0.0342 H       
  64 H64           -3.0008    -2.8527    -1.1651 H       
  65 H65           -4.4716     2.1345     2.8127 H       
  66 H66           -8.4190     4.2108     3.8993 H       
  67 H67            3.9824     2.9239    -0.0264 H       
  68 H68            6.5186     2.1124    -0.4272 H       
  69 H69            6.4549    -0.4808    -0.7972 H       
@<TRIPOS>BOND
   1    1    2 ar
   2    1    7 1
   3    1    6 ar
   4    2    3 ar
   5    2    9 1
   6    3    4 ar
   7    3   41 1
   8    4    5 ar
   9    4   42 1
  10    5    6 ar
  11    5   16 1
  12    6   43 1
  13    7    8 2
  14    8    9 1
  15    8   32 1
  16    9   10 1
  17   10   11 1
  18   10   15 1
  19   10   44 1
  20   11   12 1
  21   11   45 1
  22   11   46 1
  23   12   13 1
  24   12   47 1
  25   12   48 1
  26   13   14 1
  27   13   49 1
  28   13   50 1
  29   14   15 1
  30   14   51 1
  31   14   52 1
  32   15   53 1
  33   15   54 1
  34   16   17 2
  35   16   18 am
  36   18   19 1
  37   18   55 1
  38   19   20 1
  39   19   21 1
  40   19   56 1
  41   20   22 1
  42   20   57 1
  43   20   58 1
  44   21   33 2
  45   21   36 1
  46   22   23 2
  47   22   26 1
  48   23   24 1
  49   23   59 1
  50   24   25 1
  51   24   60 1
  52   25   26 ar
  53   25   27 ar
  54   26   30 ar
  55   27   28 ar
  56   27   61 1
  57   28   29 ar
  58   28   62 1
  59   29   30 ar
  60   29   31 1
  61   30   63 1
  62   31   64 1
  63   32   37 2
  64   32   40 1
  65   33   34 1
  66   33   65 1
  67   34   35 1
  68   35   36 2
  69   35   66 1
  70   37   38 1
  71   37   67 1
  72   38   39 2
  73   38   68 1
  74   39   40 1
  75   39   69 1

#	End of record

