#	Name: ASD08070655
#	Creating user name:	WinNT
#	Creation time:	15. 06. 2019 21:15

#	Modifying user name:	WinNT
#	Modification time:	15. 06. 2019 21:15

#	Program:	/corina/corina34_cracker 3.40 0067  02.08.2006

@<TRIPOS>MOLECULE
ASD08070655
  50   50    0    0    0
SMALL
NO_CHARGES


@<TRIPOS>ATOM
   1 C1            -0.0179     1.4718     0.0101 C.2     
   2 C2             0.0021    -0.0041     0.0020 C.ar    
   3 C3             1.2205    -0.6880    -0.0133 C.ar    
   4 C4             1.2349    -2.0650    -0.0209 C.ar    
   5 C5             0.0396    -2.7744    -0.0138 C.ar    
   6 C6            -1.1744    -2.0978     0.0010 C.ar    
   7 C7            -1.1973    -0.7210     0.0154 C.ar    
   8 O8             1.0266     2.0940     0.0035 O.2     
   9 N9            -1.1942     2.1298     0.0193 N.am    
  10 C10            1.3653     4.4513    -1.2050 C.3     
  11 C11            0.2626     3.7309    -1.9835 C.3     
  12 C12           -1.1021     4.1141    -1.4074 C.3     
  13 C13           -1.2140     3.5946     0.0273 C.3     
  14 C14           -2.5253     4.0835     0.6459 C.3     
  15 C15           -2.5802     3.6698     2.1179 C.3     
  16 C16           -3.8915     4.1587     2.7364 C.3     
  17 C17            0.3275     4.1401    -3.4563 C.3     
  18 C18           -2.4673    -2.8719     0.0081 C.3     
  19 C19            2.5483    -2.8037    -0.0374 C.3     
  20 O20            0.0580    -4.1314    -0.0217 O.3     
  21 C21            0.0787    -4.7874     1.2476 C.3     
  22 H22            2.1496    -0.1375    -0.0195 H       
  23 H23           -2.1409    -0.1960     0.0317 H       
  24 H24           -2.0275     1.6334     0.0205 H       
  25 H25            1.3190     4.1598    -0.1557 H       
  26 H26            2.3375     4.1784    -1.6154 H       
  27 H27            1.2249     5.5289    -1.2892 H       
  28 H28            0.4030     2.6533    -1.8992 H       
  29 H29           -1.2059     5.1991    -1.4101 H       
  30 H30           -1.8906     3.6720    -2.0164 H       
  31 H31           -0.3744     3.9661     0.6148 H       
  32 H32           -2.5794     5.1696     0.5714 H       
  33 H33           -3.3661     3.6403     0.1123 H       
  34 H34           -2.5261     2.5837     2.1923 H       
  35 H35           -1.7394     4.1130     2.6514 H       
  36 H36           -3.9456     5.2448     2.6619 H       
  37 H37           -4.7323     3.7155     2.2028 H       
  38 H38           -3.9306     3.8640     3.7851 H       
  39 H39            1.2997     3.8671    -3.8667 H       
  40 H40           -0.4581     3.6269    -4.0109 H       
  41 H41            0.1871     5.2177    -3.5406 H       
  42 H42           -2.7698    -3.0645     1.0375 H       
  43 H43           -3.2408    -2.2921    -0.4955 H       
  44 H44           -2.3265    -3.8192    -0.5124 H       
  45 H45            2.8748    -2.9873     0.9862 H       
  46 H46            2.4238    -3.7547    -0.5552 H       
  47 H47            3.2964    -2.2033    -0.5551 H       
  48 H48            0.9698    -4.4856     1.7981 H       
  49 H49           -0.8099    -4.5098     1.8146 H       
  50 H50            0.0921    -5.8670     1.0985 H       
@<TRIPOS>BOND
   1    1    2 1
   2    1    8 2
   3    1    9 am
   4    2    3 ar
   5    2    7 ar
   6    3    4 ar
   7    3   22 1
   8    4    5 ar
   9    4   19 1
  10    5    6 ar
  11    5   20 1
  12    6    7 ar
  13    6   18 1
  14    7   23 1
  15    9   13 1
  16    9   24 1
  17   10   11 1
  18   10   25 1
  19   10   26 1
  20   10   27 1
  21   11   12 1
  22   11   17 1
  23   11   28 1
  24   12   13 1
  25   12   29 1
  26   12   30 1
  27   13   14 1
  28   13   31 1
  29   14   15 1
  30   14   32 1
  31   14   33 1
  32   15   16 1
  33   15   34 1
  34   15   35 1
  35   16   36 1
  36   16   37 1
  37   16   38 1
  38   17   39 1
  39   17   40 1
  40   17   41 1
  41   18   42 1
  42   18   43 1
  43   18   44 1
  44   19   45 1
  45   19   46 1
  46   19   47 1
  47   20   21 1
  48   21   48 1
  49   21   49 1
  50   21   50 1

#	End of record

