#	Name: ASD04590261
#	Creating user name:	WinNT
#	Creation time:	15. 06. 2019 20:50

#	Modifying user name:	WinNT
#	Modification time:	15. 06. 2019 20:50

#	Program:	/corina/corina34_cracker 3.40 0067  02.08.2006

@<TRIPOS>MOLECULE
ASD04590261
  51   55    0    0    0
SMALL
NO_CHARGES


@<TRIPOS>ATOM
   1 C1            -0.0157     1.3069     0.0092 C.2     
   2 N2             0.0021    -0.0041     0.0020 N.2     
   3 N3             1.2662     1.7875    -0.0004 N.pl3   
   4 C4             2.1120     0.6948    -0.0144 C.ar    
   5 C5             1.2849    -0.4421    -0.0126 C.ar    
   6 C6             3.4917     0.5448    -0.0284 C.ar    
   7 C7             4.0417    -0.7198    -0.0404 C.ar    
   8 C8             3.2255    -1.8420    -0.0386 C.ar    
   9 C9             1.8655    -1.7144    -0.0254 C.ar    
  10 C10            3.8457    -3.2154    -0.0524 C.3     
  11 N11            4.0608    -3.6694     1.3280 N.3     
  12 C12            4.4408    -5.0892     1.3625 C.3     
  13 C13            4.7128    -5.5041     2.8108 C.3     
  14 O14            3.5539    -5.2343     3.6043 O.3     
  15 C15            3.1561    -3.8606     3.5940 C.3     
  16 C16            2.8684    -3.4291     2.1536 C.3     
  17 C17           -1.2357     2.1403     0.0197 C.2     
  18 N18           -1.2741     3.4585     0.0262 N.2     
  19 C19           -2.5672     1.6647     0.0184 C.2     
  20 C20           -3.3906     2.7409     0.0298 C.2     
  21 N21           -2.6164     3.8580     0.0348 N.pl3   
  22 N22           -2.9654     0.3168     0.0067 N.am    
  23 C23           -4.2757     0.0013     0.0069 C.2     
  24 N24           -4.6576    -1.2912    -0.0044 N.am    
  25 O25           -5.1134     0.8827     0.0172 O.2     
  26 C26           -6.0819    -1.6342    -0.0042 C.3     
  27 C27           -6.4822    -2.9899    -0.5895 C.3     
  28 C28           -6.5365    -2.7635     0.9226 C.3     
  29 H29            1.5312     2.7206     0.0018 H       
  30 H30            4.1318     1.4147    -0.0302 H       
  31 H31            5.1152    -0.8376    -0.0516 H       
  32 H32            1.2397    -2.5946    -0.0238 H       
  33 H33            3.1790    -3.9099    -0.5636 H       
  34 H34            4.8012    -3.1773    -0.5755 H       
  35 H35            3.6290    -5.6931     0.9572 H       
  36 H36            5.3404    -5.2398     0.7657 H       
  37 H37            4.9392    -6.5696     2.8478 H       
  38 H38            5.5594    -4.9377     3.1988 H       
  39 H39            2.2567    -3.7376     4.1974 H       
  40 H40            3.9575    -3.2465     4.0047 H       
  41 H41            2.6201    -2.3679     2.1342 H       
  42 H42            2.0314    -4.0065     1.7609 H       
  43 H43           -4.4703     2.7154     0.0319 H       
  44 H44           -2.9378     4.7731     0.0434 H       
  45 H45           -2.2973    -0.3863    -0.0015 H       
  46 H46           -3.9895    -1.9943    -0.0126 H       
  47 H47           -6.7665    -0.7994    -0.1541 H       
  48 H48           -7.4303    -3.0471    -1.1243 H       
  49 H49           -5.6858    -3.6266    -0.9748 H       
  50 H50           -5.7758    -3.2512     1.5322 H       
  51 H51           -7.5203    -2.6717     1.3828 H       
@<TRIPOS>BOND
   1    1    2 2
   2    1    3 1
   3    1   17 1
   4    2    5 1
   5    3    4 1
   6    3   29 1
   7    4    5 ar
   8    4    6 ar
   9    5    9 ar
  10    6    7 ar
  11    6   30 1
  12    7    8 ar
  13    7   31 1
  14    8    9 ar
  15    8   10 1
  16    9   32 1
  17   10   11 1
  18   10   33 1
  19   10   34 1
  20   11   12 1
  21   11   16 1
  22   12   13 1
  23   12   35 1
  24   12   36 1
  25   13   14 1
  26   13   37 1
  27   13   38 1
  28   14   15 1
  29   15   16 1
  30   15   39 1
  31   15   40 1
  32   16   41 1
  33   16   42 1
  34   17   18 2
  35   17   19 1
  36   18   21 1
  37   19   20 2
  38   19   22 1
  39   20   21 1
  40   20   43 1
  41   21   44 1
  42   22   23 am
  43   22   45 1
  44   23   24 am
  45   23   25 2
  46   24   26 1
  47   24   46 1
  48   26   27 1
  49   26   28 1
  50   26   47 1
  51   27   28 1
  52   27   48 1
  53   27   49 1
  54   28   50 1
  55   28   51 1

#	End of record

