#	Name: ASD01150703
#	Creating user name:	WinNT
#	Creation time:	15. 06. 2019 19:04

#	Modifying user name:	WinNT
#	Modification time:	15. 06. 2019 19:04

#	Program:	/corina/corina34_cracker 3.40 0067  02.08.2006

@<TRIPOS>MOLECULE
ASD01150703
  49   53    0    0    0
SMALL
NO_CHARGES


@<TRIPOS>ATOM
   1 C1            -0.3573     1.2365    -0.2215 C.2     
   2 C2            -0.2242    -0.2341    -0.1979 C.ar    
   3 C3             1.0433    -0.8217    -0.2305 C.ar    
   4 C4             1.1672    -2.1923    -0.2080 C.ar    
   5 C5             0.0259    -2.9961    -0.1526 C.ar    
   6 C6            -1.2413    -2.4090    -0.1204 C.ar    
   7 C7            -1.3655    -1.0382    -0.1371 C.ar    
   8 O8             0.6350     1.9355    -0.2693 O.2     
   9 O9            -1.5796     1.8027    -0.1956 O.3     
  10 C10           -0.1016    -6.6056     0.9798 C.ar    
  11 C11           -0.2486    -5.2195     1.0044 C.ar    
  12 C12            0.1592    -4.4684    -0.1285 C.ar    
  13 C13            0.6942    -5.1653    -1.2295 C.ar    
  14 C14            0.8016    -6.5608    -1.1596 C.ar    
  15 N15            0.4144    -7.2158    -0.0941 N.ar    
  16 C16           -0.8311    -4.7339     2.2584 C.2     
  17 C17           -1.1074    -5.6934     3.1302 C.2     
  18 S18           -0.6850    -7.2817     2.4933 S.3     
  19 C19           -1.7091    -5.1024     4.4024 C.3     
  20 C20           -2.1689    -3.6868     4.0011 C.3     
  21 C21           -1.2121    -3.3703     2.8348 C.3     
  22 C22            1.3715    -7.3200    -2.3300 C.3     
  23 C23            1.1310    -4.4428    -2.4289 C.2     
  24 O24            2.2706    -4.0346    -2.5098 O.2     
  25 C25            0.1643    -4.2075    -3.5607 C.3     
  26 C26            0.4441    -3.0289    -4.4954 C.3     
  27 C27            0.6666    -4.4619    -4.9833 C.3     
  28 C28           -1.6347     3.2534    -0.2212 C.3     
  29 H29            1.9256    -0.2003    -0.2737 H       
  30 H30            2.1467    -2.6465    -0.2336 H       
  31 H31           -2.1235    -3.0306    -0.0783 H       
  32 H32           -2.3450    -0.5843    -0.1077 H       
  33 H33           -2.5601    -5.6985     4.7320 H       
  34 H34           -0.9559    -5.0480     5.1885 H       
  35 H35           -3.2058    -3.6933     3.6652 H       
  36 H36           -2.0302    -2.9835     4.8222 H       
  37 H37           -0.3257    -2.8526     3.2014 H       
  38 H38           -1.7193    -2.7683     2.0810 H       
  39 H39            2.4584    -7.3453    -2.2522 H       
  40 H40            0.9832    -8.3385    -2.3262 H       
  41 H41            1.0851    -6.8254    -3.2581 H       
  42 H42           -0.8781    -4.4424    -3.3452 H       
  43 H43           -0.4141    -2.4887    -4.8950 H       
  44 H44            1.3275    -2.4237    -4.2916 H       
  45 H45            1.6964    -4.7994    -5.1006 H       
  46 H46           -0.0452    -4.8644    -5.7040 H       
  47 H47           -1.1087     3.6524     0.6462 H       
  48 H48           -1.1618     3.6190    -1.1327 H       
  49 H49           -2.6749     3.5780    -0.1962 H       
@<TRIPOS>BOND
   1    1    2 1
   2    1    8 2
   3    1    9 1
   4    2    3 ar
   5    2    7 ar
   6    3    4 ar
   7    3   29 1
   8    4    5 ar
   9    4   30 1
  10    5    6 ar
  11    5   12 1
  12    6    7 ar
  13    6   31 1
  14    7   32 1
  15    9   28 1
  16   10   11 ar
  17   10   15 ar
  18   10   18 1
  19   11   12 ar
  20   11   16 1
  21   12   13 ar
  22   13   14 ar
  23   13   23 1
  24   14   15 ar
  25   14   22 1
  26   16   17 2
  27   16   21 1
  28   17   18 1
  29   17   19 1
  30   19   20 1
  31   19   33 1
  32   19   34 1
  33   20   21 1
  34   20   35 1
  35   20   36 1
  36   21   37 1
  37   21   38 1
  38   22   39 1
  39   22   40 1
  40   22   41 1
  41   23   24 2
  42   23   25 1
  43   25   26 1
  44   25   27 1
  45   25   42 1
  46   26   27 1
  47   26   43 1
  48   26   44 1
  49   27   45 1
  50   27   46 1
  51   28   47 1
  52   28   48 1
  53   28   49 1

#	End of record

