#	Name: ASD01910971
#	Creating user name:	WinNT
#	Creation time:	15. 06. 2019 19:56

#	Modifying user name:	WinNT
#	Modification time:	15. 06. 2019 19:56

#	Program:	/corina/corina34_cracker 3.40 0067  02.08.2006

@<TRIPOS>MOLECULE
ASD01910971
  53   56    0    0    0
SMALL
NO_CHARGES


@<TRIPOS>ATOM
   1 N1             0.1433     1.3733    -0.2010 N.3     
   2 C2             0.0815    -0.0924    -0.1242 C.3     
   3 C3            -1.3646    -0.5263     0.1382 C.3     
   4 N4            -2.2275     0.0796    -0.8872 N.am    
   5 C5            -2.1222     1.5283    -1.1179 C.3     
   6 C6            -0.6464     1.8814    -1.3308 C.3     
   7 C7            -3.0921    -0.6728    -1.5963 C.2     
   8 C8            -4.0356    -0.0291    -2.5319 C.ar    
   9 C9            -4.3103    -0.6236    -3.7675 C.ar    
  10 C10           -5.1900    -0.0272    -4.6447 C.ar    
  11 C11           -5.8098     1.1678    -4.3090 C.ar    
  12 C12           -5.5415     1.7747    -3.0709 C.ar    
  13 C13           -4.6572     1.1686    -2.1812 C.ar    
  14 C14           -6.1794     3.0083    -2.7219 C.1     
  15 O15           -3.0951    -1.8815    -1.4656 O.2     
  16 C16           -6.7023     4.0197    -2.4358 C.1     
  17 C17           -7.3402     5.2534    -2.0868 C.ar    
  18 N18           -7.0810     5.8217    -0.9129 N.ar    
  19 C19           -7.6477     6.9559    -0.5557 C.ar    
  20 C20           -8.5385     7.6004    -1.3940 C.ar    
  21 C21           -8.8386     7.0426    -2.6300 C.ar    
  22 C22           -8.2265     5.8547    -2.9849 C.ar    
  23 C23            1.4661     1.8153    -0.2760 C.ar    
  24 C24            1.7425     3.1743    -0.3559 C.ar    
  25 C25            3.0516     3.6079    -0.4294 C.ar    
  26 C26            4.0868     2.6909    -0.4234 C.ar    
  27 C27            3.8151     1.3374    -0.3439 C.ar    
  28 C28            2.5085     0.8972    -0.2649 C.ar    
  29 O29           -6.6743     1.7503    -5.1764 O.3     
  30 C30           -6.8997     1.0783    -6.4173 C.3     
  31 H31            0.4246    -0.5208    -1.0659 H       
  32 H32            0.7190    -0.4412     0.6883 H       
  33 H33           -1.4368    -1.6125     0.0824 H       
  34 H34           -1.6754    -0.1862     1.1260 H       
  35 H35           -2.6954     1.8006    -2.0041 H       
  36 H36           -2.5059     2.0660    -0.2508 H       
  37 H37           -0.5367     2.9640    -1.3934 H       
  38 H38           -0.2931     1.4255    -2.2557 H       
  39 H39           -3.8308    -1.5534    -4.0356 H       
  40 H40           -5.3976    -0.4917    -5.5973 H       
  41 H41           -4.4465     1.6298    -1.2276 H       
  42 H42           -7.4133     7.3885     0.4058 H       
  43 H43           -8.9975     8.5296    -1.0901 H       
  44 H44           -9.5315     7.5284    -3.3010 H       
  45 H45           -8.4367     5.3937    -3.9387 H       
  46 H46            0.9345     3.8909    -0.3610 H       
  47 H47            3.2672     4.6643    -0.4920 H       
  48 H48            5.1096     3.0327    -0.4814 H       
  49 H49            4.6259     0.6239    -0.3395 H       
  50 H50            2.2971    -0.1601    -0.2024 H       
  51 H51           -7.3036     0.0845    -6.2241 H       
  52 H52           -7.6096     1.6491    -7.0158 H       
  53 H53           -5.9577     0.9888    -6.9583 H       
@<TRIPOS>BOND
   1    1    2 1
   2    1   23 1
   3    1    6 1
   4    2    3 1
   5    2   31 1
   6    2   32 1
   7    3    4 1
   8    3   33 1
   9    3   34 1
  10    4    5 1
  11    4    7 am
  12    5    6 1
  13    5   35 1
  14    5   36 1
  15    6   37 1
  16    6   38 1
  17    7    8 1
  18    7   15 2
  19    8    9 ar
  20    8   13 ar
  21    9   10 ar
  22    9   39 1
  23   10   11 ar
  24   10   40 1
  25   11   12 ar
  26   11   29 1
  27   12   13 ar
  28   12   14 1
  29   13   41 1
  30   14   16 3
  31   16   17 1
  32   17   18 ar
  33   17   22 ar
  34   18   19 ar
  35   19   20 ar
  36   19   42 1
  37   20   21 ar
  38   20   43 1
  39   21   22 ar
  40   21   44 1
  41   22   45 1
  42   23   24 ar
  43   23   28 ar
  44   24   25 ar
  45   24   46 1
  46   25   26 ar
  47   25   47 1
  48   26   27 ar
  49   26   48 1
  50   27   28 ar
  51   27   49 1
  52   28   50 1
  53   29   30 1
  54   30   51 1
  55   30   52 1
  56   30   53 1

#	End of record

