#	Name: ASD03540516
#	Creating user name:	WinNT
#	Creation time:	15. 06. 2019 20:43

#	Modifying user name:	WinNT
#	Modification time:	15. 06. 2019 20:43

#	Program:	/corina/corina34_cracker 3.40 0067  02.08.2006

@<TRIPOS>MOLECULE
ASD03540516
  43   46    0    0    0
SMALL
NO_CHARGES


@<TRIPOS>ATOM
   1 C1            -0.0162     1.3403     0.0094 C.2     
   2 N2             0.0021    -0.0041     0.0020 N.am    
   3 C3             1.2002    -0.6918    -0.0126 C.ar    
   4 C4             2.4008     0.0415    -0.0201 C.ar    
   5 C5             2.3245     1.5138    -0.0120 C.2     
   6 N6             1.0997     2.0864     0.0028 N.am    
   7 C7             1.2593    -2.0835    -0.0197 C.ar    
   8 C8             3.6089    -0.6470    -0.0344 C.ar    
   9 C9             3.5757    -2.0412    -0.0407 C.ar    
  10 N10            2.4200    -2.6981    -0.0332 N.ar    
  11 C11            4.8452    -2.8002    -0.0564 C.2     
  12 O12            5.9070    -2.2086    -0.0637 O.2     
  13 N13            4.8246    -4.1478    -0.0625 N.am    
  14 C14            6.0820    -4.8996    -0.0781 C.3     
  15 O15            4.9696   -10.4031    -0.3544 O.3     
  16 C16            5.3374   -10.5933    -1.7334 C.3     
  17 O17            5.1744    -9.2859    -2.3144 O.3     
  18 C18            5.3627    -8.4052    -1.2887 C.ar    
  19 C19            5.2368    -9.0922    -0.0834 C.ar    
  20 C20            5.6362    -7.0474    -1.2824 C.ar    
  21 C21            5.7840    -6.3768    -0.0822 C.ar    
  22 C22            5.6595    -7.0585     1.1136 C.ar    
  23 C23            5.3861    -8.4140     1.1150 C.ar    
  24 O24            3.3327     2.1928    -0.0176 O.2     
  25 O25           -1.0922     1.9059     0.0175 O.2     
  26 C26            0.9884     3.5471     0.0112 C.3     
  27 C27           -1.2607    -0.7468     0.0100 C.3     
  28 H28            0.3461    -2.6601    -0.0137 H       
  29 H29            4.5491    -0.1156    -0.0409 H       
  30 H30            3.9773    -4.6200    -0.0567 H       
  31 H31            6.6490    -4.6408    -0.9723 H       
  32 H32            6.6659    -4.6492     0.8076 H       
  33 H33            6.3741   -10.9206    -1.8116 H       
  34 H34            4.6710   -11.3109    -2.2120 H       
  35 H35            5.7346    -6.5124    -2.2154 H       
  36 H36            5.7756    -6.5313     2.0490 H       
  37 H37            5.2887    -8.9440     2.0509 H       
  38 H38            0.9704     3.9042     1.0408 H       
  39 H39            1.8434     3.9796    -0.5085 H       
  40 H40            0.0687     3.8444    -0.4926 H       
  41 H41           -2.0948    -0.0452     0.0218 H       
  42 H42           -1.3219    -1.3691    -0.8827 H       
  43 H43           -1.3049    -1.3787     0.8971 H       
@<TRIPOS>BOND
   1    1    2 am
   2    1    6 am
   3    1   25 2
   4    2    3 1
   5    2   27 1
   6    3    4 ar
   7    3    7 ar
   8    4    5 1
   9    4    8 ar
  10    5    6 am
  11    5   24 2
  12    6   26 1
  13    7   10 ar
  14    7   28 1
  15    8    9 ar
  16    8   29 1
  17    9   10 ar
  18    9   11 1
  19   11   12 2
  20   11   13 am
  21   13   14 1
  22   13   30 1
  23   14   21 1
  24   14   31 1
  25   14   32 1
  26   15   16 1
  27   15   19 1
  28   16   17 1
  29   16   33 1
  30   16   34 1
  31   17   18 1
  32   18   19 ar
  33   18   20 ar
  34   19   23 ar
  35   20   21 ar
  36   20   35 1
  37   21   22 ar
  38   22   23 ar
  39   22   36 1
  40   23   37 1
  41   26   38 1
  42   26   39 1
  43   26   40 1
  44   27   41 1
  45   27   42 1
  46   27   43 1

#	End of record

