#	Name: ASD01190019
#	Creating user name:	WinNT
#	Creation time:	15. 06. 2019 19:07

#	Modifying user name:	WinNT
#	Modification time:	15. 06. 2019 19:07

#	Program:	/corina/corina34_cracker 3.40 0067  02.08.2006

@<TRIPOS>MOLECULE
ASD01190019
  56   60    0    0    0
SMALL
NO_CHARGES


@<TRIPOS>ATOM
   1 C1             0.5048     1.4073     0.2409 C.3     
   2 C2            -3.6225     0.0243     5.2475 C.ar    
   3 C3            -2.8088     0.0777     6.3696 C.ar    
   4 C4            -1.4332     0.0978     6.2226 C.ar    
   5 C5            -0.8533     0.0677     4.9608 C.ar    
   6 C6            -1.6748     0.0288     3.8465 C.ar    
   7 C7            -3.0496    -0.0018     3.9914 C.ar    
   8 C8             0.6522     0.0724     4.8937 C.3     
   9 C9             1.1650     0.2938     3.4638 C.3     
  10 C10            0.3167    -0.5984     2.5650 C.3     
  11 C11           -1.0693     0.0507     2.4724 C.3     
  12 C12            0.8472    -0.9233     1.2129 C.3     
  13 C13            0.1969    -0.0853     0.0928 C.3     
  14 C14           -1.2911    -0.3129     0.0072 C.3     
  15 C15           -1.8833    -0.6343     1.3930 C.3     
  16 C16            2.3437    -0.6942     0.9583 C.3     
  17 C17            2.4454    -0.7195    -0.5918 C.3     
  18 C18            0.9991    -0.5775    -1.1303 C.3     
  19 O19           -3.3622     0.1107     7.6109 O.3     
  20 O20            0.5036    -1.8409    -1.5648 O.3     
  21 C21           -3.4001     1.3057     8.2320 C.2     
  22 C22           -4.0533     1.4320     9.5508 C.ar    
  23 O23           -2.8972     2.2792     7.7075 O.2     
  24 C24           -4.0945     2.6690    10.1974 C.ar    
  25 C25           -4.7065     2.7800    11.4286 C.ar    
  26 C26           -5.2787     1.6692    12.0230 C.ar    
  27 C27           -5.2412     0.4404    11.3881 C.ar    
  28 C28           -4.6375     0.3163    10.1540 C.ar    
  29 H29            1.5693     1.5764     0.0791 H       
  30 H30           -0.0687     1.9713    -0.4948 H       
  31 H31            0.2328     1.7366     1.2437 H       
  32 H32           -4.6966     0.0050     5.3536 H       
  33 H33           -0.8019     0.1350     7.0983 H       
  34 H34           -3.6881    -0.0452     3.1218 H       
  35 H35            1.0352     0.8687     5.5301 H       
  36 H36            1.0263    -0.8858     5.2535 H       
  37 H37            1.0440     1.3376     3.1896 H       
  38 H38            2.2113     0.0012     3.4049 H       
  39 H39            0.1791    -1.5573     3.1099 H       
  40 H40           -0.9533     1.1023     2.2177 H       
  41 H41            0.6417    -1.9963     1.0075 H       
  42 H42           -1.7778     0.5842    -0.3964 H       
  43 H43           -1.5047    -1.1435    -0.6764 H       
  44 H44           -1.8726    -1.7166     1.5518 H       
  45 H45           -2.9199    -0.2880     1.4298 H       
  46 H46            2.6777     0.2576     1.3607 H       
  47 H47            2.9278    -1.5116     1.3891 H       
  48 H48            3.0605     0.1085    -0.9414 H       
  49 H49            2.8728    -1.6673    -0.9204 H       
  50 H50            0.9506     0.1611    -1.9225 H       
  51 H51            1.0108    -2.2348    -2.2878 H       
  52 H52           -3.6479     3.5367     9.7348 H       
  53 H53           -4.7387     3.7360    11.9300 H       
  54 H54           -5.7566     1.7617    12.9871 H       
  55 H55           -5.6891    -0.4227    11.8579 H       
  56 H56           -4.6088    -0.6434     9.6595 H       
@<TRIPOS>BOND
   1    1   13 1
   2    1   29 1
   3    1   30 1
   4    1   31 1
   5    2    3 ar
   6    2    7 ar
   7    2   32 1
   8    3    4 ar
   9    3   19 1
  10    4    5 ar
  11    4   33 1
  12    5    6 ar
  13    5    8 1
  14    6    7 ar
  15    6   11 1
  16    7   34 1
  17    8    9 1
  18    8   35 1
  19    8   36 1
  20    9   10 1
  21    9   37 1
  22    9   38 1
  23   10   11 1
  24   10   12 1
  25   10   39 1
  26   11   15 1
  27   11   40 1
  28   12   13 1
  29   12   16 1
  30   12   41 1
  31   13   14 1
  32   13   18 1
  33   14   15 1
  34   14   42 1
  35   14   43 1
  36   15   44 1
  37   15   45 1
  38   16   17 1
  39   16   46 1
  40   16   47 1
  41   17   18 1
  42   17   48 1
  43   17   49 1
  44   18   20 1
  45   18   50 1
  46   19   21 1
  47   20   51 1
  48   21   22 1
  49   21   23 2
  50   22   24 ar
  51   22   28 ar
  52   24   25 ar
  53   24   52 1
  54   25   26 ar
  55   25   53 1
  56   26   27 ar
  57   26   54 1
  58   27   28 ar
  59   27   55 1
  60   28   56 1

#	End of record

