#	Name: ASD07300270
#	Creating user name:	WinNT
#	Creation time:	15. 06. 2019 21:09

#	Modifying user name:	WinNT
#	Modification time:	15. 06. 2019 21:09

#	Program:	/corina/corina34_cracker 3.40 0067  02.08.2006

@<TRIPOS>MOLECULE
ASD07300270
  27   27    0    0    0
SMALL
NO_CHARGES


@<TRIPOS>ATOM
   1 C1            -0.0184     1.5028     0.0103 C.2     
   2 N2             1.3897    -0.4735    -0.0138 N.pl3   
   3 C3             0.0021    -0.0041     0.0020 C.3     
   4 O4             1.0197     2.1211     0.0037 O.2     
   5 O5            -1.1898     2.1580     0.0194 O.3     
   6 C6             1.6628    -1.8393    -0.0237 C.ar    
   7 C7             2.9885    -2.2812    -0.0387 C.ar    
   8 C8             3.2423    -3.6460    -0.0485 C.ar    
   9 C9             2.1626    -4.5196    -0.0429 C.ar    
  10 C10            0.8803    -4.0109    -0.0279 C.ar    
  11 N11            0.6657    -2.7077    -0.0134 N.ar    
  12 N12            4.0444    -1.3618    -0.0443 N.pl3   
  13 C13           -1.1335     3.6089     0.0270 C.3     
  14 C14           -2.5551     4.1744     0.0369 C.3     
  15 H15            2.1184     0.1668    -0.0173 H       
  16 H16           -0.4983    -0.3791     0.8948 H       
  17 H17           -0.5153    -0.3696    -0.8850 H       
  18 H18            4.2555    -4.0197    -0.0605 H       
  19 H19            2.3254    -5.5872    -0.0505 H       
  20 H20            0.0393    -4.6885    -0.0239 H       
  21 H21            3.8585    -0.4098    -0.0378 H       
  22 H22            4.9617    -1.6768    -0.0548 H       
  23 H23           -0.6017     3.9472     0.9164 H       
  24 H24           -0.6102     3.9569    -0.8636 H       
  25 H25           -2.5128     5.2636     0.0426 H       
  26 H26           -3.0869     3.8361    -0.8525 H       
  27 H27           -3.0784     3.8265     0.9275 H       
@<TRIPOS>BOND
   1    1    3 1
   2    1    4 2
   3    1    5 1
   4    2    3 1
   5    2    6 1
   6    2   15 1
   7    3   16 1
   8    3   17 1
   9    5   13 1
  10    6    7 ar
  11    6   11 ar
  12    7    8 ar
  13    7   12 1
  14    8    9 ar
  15    8   18 1
  16    9   10 ar
  17    9   19 1
  18   10   11 ar
  19   10   20 1
  20   12   21 1
  21   12   22 1
  22   13   14 1
  23   13   23 1
  24   13   24 1
  25   14   25 1
  26   14   26 1
  27   14   27 1

#	End of record

