#	Name: ASD01200279
#	Creating user name:	WinNT
#	Creation time:	15. 06. 2019 19:08

#	Modifying user name:	WinNT
#	Modification time:	15. 06. 2019 19:08

#	Program:	/corina/corina34_cracker 3.40 0067  02.08.2006

@<TRIPOS>MOLECULE
ASD01200279
  46   48    0    0    0
SMALL
NO_CHARGES


@<TRIPOS>ATOM
   1 C1             0.6581     1.2115     1.1399 C.2     
   2 C2             0.9013    -0.0123     1.6466 C.2     
   3 N3             2.2301    -0.1928     1.6757 N.2     
   4 C4             2.8195     0.8727     1.2063 C.2     
   5 N5             1.8746     1.7733     0.8604 N.pl3   
   6 C6            -0.1374    -1.0050     2.1013 C.3     
   7 F7            -0.5017    -1.8238     1.0270 F       
   8 F8             0.3895    -1.7928     3.1304 F       
   9 F9            -1.2641    -0.3199     2.5686 F       
  10 C10            2.1079     3.1030     0.2915 C.3     
  11 C11            2.8488     2.9680    -1.0139 C.2     
  12 C12            2.9414     3.9362     1.2672 C.3     
  13 C13            2.1614     4.1281     2.5693 C.3     
  14 C14            3.0492     4.8200     3.6185 C.3     
  15 C15            2.3511     6.1473     3.9803 C.3     
  16 C16            0.8633     5.9028     3.6258 C.3     
  17 C17            0.9548     5.0591     2.3302 C.3     
  18 N18            3.0521     4.0519    -1.7886 N.am    
  19 O19            3.2620     1.8840    -1.3672 O.2     
  20 C20            3.7646     3.9338    -2.9751 C.ar    
  21 C21            3.9057     2.6837    -3.5833 C.ar    
  22 N22            4.5804     2.5707    -4.7065 N.ar    
  23 C23            5.1294     3.6485    -5.2652 C.ar    
  24 C24            4.9881     4.8965    -4.6581 C.ar    
  25 N25            4.3063     5.0091    -3.5333 N.ar    
  26 C26            5.8881     3.5218    -6.5270 C.2     
  27 O27            6.3885     4.5047    -7.0361 O.2     
  28 O28            6.0247     2.3164    -7.1128 O.3     
  29 H29           -0.3107     1.6613     0.9804 H       
  30 H30            3.8863     1.0113     1.1106 H       
  31 H31            1.1517     3.5965     0.1172 H       
  32 H32            3.8781     3.4200     1.4775 H       
  33 H33            3.1543     4.9091     0.8243 H       
  34 H34            1.8209     3.1636     2.9459 H       
  35 H35            3.1389     4.1917     4.5046 H       
  36 H36            4.0358     5.0191     3.2000 H       
  37 H37            2.4602     6.3581     5.0441 H       
  38 H38            2.7556     6.9658     3.3848 H       
  39 H39            0.3647     5.3429     4.4170 H       
  40 H40            0.3511     6.8463     3.4371 H       
  41 H41            1.1338     5.7018     1.4682 H       
  42 H42            0.0448     4.4757     2.1898 H       
  43 H43            2.7010     4.9146    -1.5176 H       
  44 H44            3.4608     1.8099    -3.1307 H       
  45 H45            5.4328     5.7707    -5.1102 H       
  46 H46            6.5295     2.2834    -7.9369 H       
@<TRIPOS>BOND
   1    1    2 2
   2    1    5 1
   3    1   29 1
   4    2    3 1
   5    2    6 1
   6    3    4 2
   7    4    5 1
   8    4   30 1
   9    5   10 1
  10    6    7 1
  11    6    8 1
  12    6    9 1
  13   10   11 1
  14   10   12 1
  15   10   31 1
  16   11   18 am
  17   11   19 2
  18   12   13 1
  19   12   32 1
  20   12   33 1
  21   13   14 1
  22   13   17 1
  23   13   34 1
  24   14   15 1
  25   14   35 1
  26   14   36 1
  27   15   16 1
  28   15   37 1
  29   15   38 1
  30   16   17 1
  31   16   39 1
  32   16   40 1
  33   17   41 1
  34   17   42 1
  35   18   20 1
  36   18   43 1
  37   20   21 ar
  38   20   25 ar
  39   21   22 ar
  40   21   44 1
  41   22   23 ar
  42   23   24 ar
  43   23   26 1
  44   24   25 ar
  45   24   45 1
  46   26   27 2
  47   26   28 1
  48   28   46 1

#	End of record

