#	Name: ASD03092003
#	Creating user name:	WinNT
#	Creation time:	15. 06. 2019 20:31

#	Modifying user name:	WinNT
#	Modification time:	15. 06. 2019 20:31

#	Program:	/corina/corina34_cracker 3.40 0067  02.08.2006

@<TRIPOS>MOLECULE
ASD03092003
  46   48    0    0    0
SMALL
NO_CHARGES


@<TRIPOS>ATOM
   1 C1             1.3885    -1.1144     0.2653 C.ar    
   2 N2             0.2445    -0.5805    -0.1189 N.ar    
   3 C3             0.1460     0.6899    -0.4656 C.ar    
   4 C4             1.2498     1.5189    -0.4395 C.ar    
   5 C5             2.4830     0.9937    -0.0382 C.ar    
   6 C6             2.5402    -0.3579     0.3208 C.ar    
   7 Cl7           -1.3914     1.3258    -0.9611 Cl      
   8 C8             3.6931     1.8434     0.0050 C.2     
   9 C9             4.9875     1.4094    -0.0369 C.2     
  10 C10            5.8187     2.5347     0.0283 C.2     
  11 N11            5.0628     3.6055     0.1064 N.2     
  12 N12            3.7211     3.2040     0.0880 N.pl3   
  13 C13            2.5550     4.0882     0.1557 C.3     
  14 C14            2.2226     4.6021    -1.2465 C.3     
  15 C15            1.0908     5.5937    -1.1630 C.2     
  16 N16            0.6256     6.1813    -2.2831 N.am    
  17 C17           -0.4746     7.1452    -2.2019 C.3     
  18 C18            1.2202     5.8562    -3.5819 C.3     
  19 O19            0.5985     5.8628    -0.0877 O.2     
  20 N20            7.2187     2.5202     0.0133 N.pl3   
  21 C21            7.9298     3.7233    -0.0327 C.ar    
  22 C22            9.2181     3.7894     0.4814 C.ar    
  23 C23            9.9194     4.9807     0.4347 C.ar    
  24 C24            9.3358     6.1075    -0.1246 C.ar    
  25 C25            8.0516     6.0419    -0.6372 C.ar    
  26 C26            7.3506     4.8524    -0.5979 C.ar    
  27 F27           11.1728     5.0467     0.9344 F       
  28 F28           10.0213     7.2708    -0.1690 F       
  29 H29            1.4224    -2.1571     0.5445 H       
  30 H30            1.1628     2.5569    -0.7250 H       
  31 H31            3.4727    -0.8019     0.6367 H       
  32 H32            5.3120     0.3817    -0.1074 H       
  33 H33            1.7028     3.5361     0.5518 H       
  34 H34            2.7765     4.9323     0.8089 H       
  35 H35            3.1003     5.0877    -1.6731 H       
  36 H36            1.9266     3.7655    -1.8794 H       
  37 H37           -0.0699     8.1477    -2.0626 H       
  38 H38           -1.0551     7.1126    -3.1239 H       
  39 H39           -1.1175     6.8926    -1.3587 H       
  40 H40            2.0181     5.1265    -3.4439 H       
  41 H41            0.4557     5.4390    -4.2373 H       
  42 H42            1.6293     6.7613    -4.0310 H       
  43 H43            7.6953     1.6756     0.0348 H       
  44 H44            9.6719     2.9117     0.9175 H       
  45 H45            7.5989     6.9207    -1.0720 H       
  46 H46            6.3487     4.8025    -0.9981 H       
@<TRIPOS>BOND
   1    1    2 ar
   2    1    6 ar
   3    1   29 1
   4    2    3 ar
   5    3    4 ar
   6    3    7 1
   7    4    5 ar
   8    4   30 1
   9    5    6 ar
  10    5    8 1
  11    6   31 1
  12    8    9 2
  13    8   12 1
  14    9   10 1
  15    9   32 1
  16   10   11 2
  17   10   20 1
  18   11   12 1
  19   12   13 1
  20   13   14 1
  21   13   33 1
  22   13   34 1
  23   14   15 1
  24   14   35 1
  25   14   36 1
  26   15   16 am
  27   15   19 2
  28   16   17 1
  29   16   18 1
  30   17   37 1
  31   17   38 1
  32   17   39 1
  33   18   40 1
  34   18   41 1
  35   18   42 1
  36   20   21 1
  37   20   43 1
  38   21   22 ar
  39   21   26 ar
  40   22   23 ar
  41   22   44 1
  42   23   24 ar
  43   23   27 1
  44   24   25 ar
  45   24   28 1
  46   25   26 ar
  47   25   45 1
  48   26   46 1

#	End of record

