#	Name: ASD01885006
#	Creating user name:	WinNT
#	Creation time:	15. 06. 2019 19:49

#	Modifying user name:	WinNT
#	Modification time:	15. 06. 2019 19:49

#	Program:	/corina/corina34_cracker 3.40 0067  02.08.2006

@<TRIPOS>MOLECULE
ASD01885006
  50   53    0    0    0
SMALL
NO_CHARGES


@<TRIPOS>ATOM
   1 C1             0.9632     3.9153    -1.1530 C.2     
   2 C2             1.3707     2.4890    -1.4189 C.3     
   3 O3             1.8061     4.7861    -1.0940 O.2     
   4 C4            -0.4510     4.2514    -0.9716 C.ar    
   5 C5            -0.8353     5.5817    -0.7232 C.ar    
   6 C6            -2.1746     5.8861    -0.5542 C.ar    
   7 C7            -3.1282     4.8808    -0.6304 C.ar    
   8 C8            -2.7448     3.5649    -0.8760 C.ar    
   9 C9            -1.4284     3.2503    -1.0505 C.ar    
  10 C10           -2.5971     7.3078    -0.2871 C.3     
  11 F11           -1.6940     8.1851    -0.8971 F       
  12 F12           -3.8777     7.5196    -0.8089 F       
  13 F13           -2.6117     7.5386     1.0927 F       
  14 O14           -4.4407     5.1815    -0.4644 O.3     
  15 C15           -5.3705     4.1002    -0.5550 C.3     
  16 C16           -6.7690     4.6213    -0.3459 C.ar    
  17 C17           -7.5150     5.0493    -1.4271 C.ar    
  18 C18           -8.8025     5.5285    -1.2339 C.ar    
  19 C19           -9.3376     5.5766     0.0456 C.ar    
  20 C20           -8.5877     5.1475     1.1231 C.ar    
  21 C21           -7.3064     4.6653     0.9271 C.ar    
  22 O22           -9.5381     5.9506    -2.2957 O.3     
  23 C23          -10.0879     5.0097    -3.1041 C.ar    
  24 C24          -10.7542     5.4002    -4.2567 C.ar    
  25 C25          -11.3145     4.4203    -5.0783 C.ar    
  26 C26          -11.1772     3.0796    -4.6984 C.ar    
  27 C27          -10.4994     2.7772    -3.5368 C.ar    
  28 N28           -9.9778     3.7300    -2.7870 N.ar    
  29 N29          -12.6215     3.9428    -7.1978 N.pl3   
  30 N30          -13.1361     4.6670    -8.1332 N.2     
  31 N31          -12.9015     5.9070    -7.8816 N.2     
  32 N32          -12.2342     6.0074    -6.7842 N.2     
  33 C33          -12.0353     4.7891    -6.3182 C.2     
  34 O34            0.1011     6.5598    -0.6493 O.3     
  35 H35            2.4536     2.4352    -1.5301 H       
  36 H36            1.0594     1.8606    -0.5845 H       
  37 H37            0.8936     2.1396    -2.3346 H       
  38 H38           -3.4942     2.7893    -0.9333 H       
  39 H39           -1.1393     2.2281    -1.2451 H       
  40 H40           -5.2978     3.6401    -1.5405 H       
  41 H41           -5.1409     3.3585     0.2100 H       
  42 H42           -7.0961     5.0112    -2.4218 H       
  43 H43          -10.3395     5.9496     0.1987 H       
  44 H44           -9.0036     5.1850     2.1191 H       
  45 H45           -6.7231     4.3264     1.7705 H       
  46 H46          -10.8383     6.4457    -4.5141 H       
  47 H47          -11.5970     2.2927    -5.3074 H       
  48 H48          -10.3899     1.7451    -3.2380 H       
  49 H49          -12.6523     2.9754    -7.1344 H       
  50 H50            0.2952     6.9833    -1.4967 H       
@<TRIPOS>BOND
   1    1    2 1
   2    1    3 2
   3    1    4 1
   4    2   35 1
   5    2   36 1
   6    2   37 1
   7    4    5 ar
   8    4    9 ar
   9    5    6 ar
  10    5   34 1
  11    6    7 ar
  12    6   10 1
  13    7    8 ar
  14    7   14 1
  15    8    9 ar
  16    8   38 1
  17    9   39 1
  18   10   11 1
  19   10   12 1
  20   10   13 1
  21   14   15 1
  22   15   16 1
  23   15   40 1
  24   15   41 1
  25   16   17 ar
  26   16   21 ar
  27   17   18 ar
  28   17   42 1
  29   18   19 ar
  30   18   22 1
  31   19   20 ar
  32   19   43 1
  33   20   21 ar
  34   20   44 1
  35   21   45 1
  36   22   23 1
  37   23   24 ar
  38   23   28 ar
  39   24   25 ar
  40   24   46 1
  41   25   26 ar
  42   25   33 1
  43   26   27 ar
  44   26   47 1
  45   27   28 ar
  46   27   48 1
  47   29   30 1
  48   29   33 1
  49   29   49 1
  50   30   31 2
  51   31   32 1
  52   32   33 2
  53   34   50 1

#	End of record

