#	Name: ASD01911026
#	Creating user name:	WinNT
#	Creation time:	15. 06. 2019 19:57

#	Modifying user name:	WinNT
#	Modification time:	15. 06. 2019 19:57

#	Program:	/corina/corina34_cracker 3.40 0067  02.08.2006

@<TRIPOS>MOLECULE
ASD01911026
  58   61    0    0    0
SMALL
NO_CHARGES


@<TRIPOS>ATOM
   1 N1            -4.0011    -3.6616     1.1533 N.3     
   2 C2            -2.7531    -2.8876     1.1895 C.3     
   3 C3            -2.2997    -2.5885    -0.2434 C.3     
   4 N4            -3.4107    -1.9440    -0.9600 N.am    
   5 C5            -4.7303    -2.5925    -0.9258 C.3     
   6 C6            -5.0880    -2.8915     0.5340 C.3     
   7 C7            -3.2243    -0.7899    -1.6307 C.2     
   8 C8            -4.3194    -0.2227    -2.4425 C.ar    
   9 C9            -4.5493     1.1569    -2.4403 C.ar    
  10 C10           -5.5699     1.6920    -3.1959 C.ar    
  11 C11           -6.3772     0.8667    -3.9653 C.ar    
  12 C12           -6.1556    -0.5209    -3.9760 C.ar    
  13 C13           -5.1205    -1.0616    -3.2156 C.ar    
  14 C14           -6.9874    -1.3755    -4.7687 C.1     
  15 O15           -2.1544    -0.2159    -1.5673 O.2     
  16 C16           -7.6694    -2.0761    -5.4186 C.1     
  17 C17           -8.5012    -2.9307    -6.2113 C.ar    
  18 C18           -8.2778    -4.3132    -6.2198 C.ar    
  19 C19           -9.0700    -5.1279    -6.9749 C.ar    
  20 C20          -10.1075    -4.5810    -7.7420 C.ar    
  21 C21          -10.3306    -3.1975    -7.7332 C.ar    
  22 C22           -9.5414    -2.3843    -6.9733 C.ar    
  23 C23           -4.3579    -4.0917     2.4268 C.ar    
  24 O24           -7.3802     1.3989    -4.7065 O.3     
  25 C25           -5.1024    -5.2582     2.5776 C.ar    
  26 C26           -5.4500    -5.6744     3.8512 C.ar    
  27 C27           -5.0399    -4.9077     4.9337 C.ar    
  28 C28           -4.3034    -3.7616     4.7104 C.ar    
  29 N29           -3.9819    -3.3911     3.4854 N.ar    
  30 C30           -7.5484     2.8168    -4.6477 C.3     
  31 Cl31          -5.5887    -6.1778     1.1879 Cl      
  32 C32          -10.9600    -5.4571    -8.5551 C.2     
  33 O33          -10.8408    -6.6618    -8.4772 O.2     
  34 C34          -11.9832    -4.8599    -9.4865 C.3     
  35 H35           -2.9214    -1.9508     1.7208 H       
  36 H36           -1.9826    -3.4636     1.7021 H       
  37 H37           -1.4397    -1.9191    -0.2231 H       
  38 H38           -2.0315    -3.5187    -0.7443 H       
  39 H39           -5.4773    -1.9258    -1.3567 H       
  40 H40           -4.6957    -3.5231    -1.4922 H       
  41 H41           -6.0109    -3.4703     0.5711 H       
  42 H42           -5.2237    -1.9547     1.0744 H       
  43 H43           -3.9248     1.8053    -1.8437 H       
  44 H44           -5.7422     2.7582    -3.1889 H       
  45 H45           -4.9446    -2.1271    -3.2192 H       
  46 H46           -7.4780    -4.7345    -5.6288 H       
  47 H47           -8.8974    -6.1940    -6.9817 H       
  48 H48          -11.1300    -2.7755    -8.3242 H       
  49 H49           -9.7133    -1.3181    -6.9664 H       
  50 H50           -6.0273    -6.5750     3.9995 H       
  51 H51           -5.2949    -5.2047     5.9403 H       
  52 H52           -3.9828    -3.1623     5.5497 H       
  53 H53           -6.6375     3.3054    -4.9936 H       
  54 H54           -8.3826     3.1105    -5.2847 H       
  55 H55           -7.7532     3.1160    -3.6197 H       
  56 H56          -11.8855    -3.7743    -9.4856 H       
  57 H57          -11.8207    -5.2384   -10.4957 H       
  58 H58          -12.9834    -5.1349    -9.1519 H       
@<TRIPOS>BOND
   1    1    2 1
   2    1   23 1
   3    1    6 1
   4    2    3 1
   5    2   35 1
   6    2   36 1
   7    3    4 1
   8    3   37 1
   9    3   38 1
  10    4    5 1
  11    4    7 am
  12    5    6 1
  13    5   39 1
  14    5   40 1
  15    6   41 1
  16    6   42 1
  17    7    8 1
  18    7   15 2
  19    8    9 ar
  20    8   13 ar
  21    9   10 ar
  22    9   43 1
  23   10   11 ar
  24   10   44 1
  25   11   12 ar
  26   11   24 1
  27   12   13 ar
  28   12   14 1
  29   13   45 1
  30   14   16 3
  31   16   17 1
  32   17   18 ar
  33   17   22 ar
  34   18   19 ar
  35   18   46 1
  36   19   20 ar
  37   19   47 1
  38   20   21 ar
  39   20   32 1
  40   21   22 ar
  41   21   48 1
  42   22   49 1
  43   23   25 ar
  44   23   29 ar
  45   24   30 1
  46   25   26 ar
  47   25   31 1
  48   26   27 ar
  49   26   50 1
  50   27   28 ar
  51   27   51 1
  52   28   29 ar
  53   28   52 1
  54   30   53 1
  55   30   54 1
  56   30   55 1
  57   32   33 2
  58   32   34 1
  59   34   56 1
  60   34   57 1
  61   34   58 1

#	End of record

