#	Name: ASD03091267
#	Creating user name:	WinNT
#	Creation time:	15. 06. 2019 20:30

#	Modifying user name:	WinNT
#	Modification time:	15. 06. 2019 20:30

#	Program:	/corina/corina34_cracker 3.40 0067  02.08.2006

@<TRIPOS>MOLECULE
ASD03091267
  49   53    0    0    0
SMALL
NO_CHARGES


@<TRIPOS>ATOM
   1 N1             0.9854     1.0054    -0.7038 N.2     
   2 C2             1.4290    -0.1100    -1.2221 C.2     
   3 N3             2.7487    -0.3249    -1.5147 N.am    
   4 C4             3.6695     0.6368    -1.2713 C.2     
   5 C5             3.1931     1.9002    -0.6888 C.ar    
   6 C6             4.0625     2.9501    -0.4024 C.ar    
   7 C7             3.5593     4.1181     0.1454 C.ar    
   8 C8             2.1952     4.2439     0.4091 C.ar    
   9 C9             1.3311     3.2235     0.1342 C.ar    
  10 C10            1.8116     2.0327    -0.4196 C.ar    
  11 O11            4.8473     0.4623    -1.5245 O.2     
  12 C12            5.7981     4.6765     0.7533 C.3     
  13 N13            4.4234     5.1772     0.4364 N.3     
  14 C14            3.9704     5.9177     1.6386 C.3     
  15 C15            5.1721     5.8535     2.6314 C.3     
  16 N16            5.1992     4.4257     3.0802 N.3     
  17 C17            5.5697     3.6284     1.8861 C.3     
  18 C18            6.3623     5.8685     1.6065 C.3     
  19 C19            3.8898     4.0132     3.6031 C.3     
  20 C20            3.1672    -1.6037    -2.0943 C.3     
  21 C21            0.4598    -1.1898    -1.5050 C.ar    
  22 C22           -0.5563    -1.4723    -0.5942 C.ar    
  23 C23           -1.4657    -2.4920    -0.8687 C.ar    
  24 C24           -1.3531    -3.2237    -2.0541 C.ar    
  25 C25           -0.3440    -2.9382    -2.9517 C.ar    
  26 C26            0.5570    -1.9252    -2.6884 C.ar    
  27 C27           -2.5128    -2.7896     0.0617 C.1     
  28 N28           -3.3434    -3.0257     0.7998 N.1     
  29 H29            5.1189     2.8540    -0.6052 H       
  30 H30            1.8177     5.1610     0.8368 H       
  31 H31            0.2778     3.3355     0.3445 H       
  32 H32            6.3961     4.3455    -0.0958 H       
  33 H33            3.7455     6.9532     1.3829 H       
  34 H34            3.0946     5.4353     2.0726 H       
  35 H35            5.1856     6.6052     3.4206 H       
  36 H36            4.7594     2.9508     1.6171 H       
  37 H37            6.4858     3.0685     2.0741 H       
  38 H38            7.3162     5.6274     2.0755 H       
  39 H39            6.4093     6.7982     1.0395 H       
  40 H40            3.1772     3.9402     2.7816 H       
  41 H41            3.9827     3.0429     4.0909 H       
  42 H42            3.5382     4.7506     4.3248 H       
  43 H43            3.0746    -1.5584    -3.1795 H       
  44 H44            4.2050    -1.8018    -1.8263 H       
  45 H45            2.5334    -2.4022    -1.7086 H       
  46 H46           -0.6384    -0.9040     0.3205 H       
  47 H47           -2.0569    -4.0144    -2.2681 H       
  48 H48           -0.2614    -3.5066    -3.8663 H       
  49 H49            1.3414    -1.7042    -3.3971 H       
@<TRIPOS>BOND
   1    1    2 2
   2    1   10 1
   3    2    3 1
   4    2   21 1
   5    3    4 am
   6    3   20 1
   7    4    5 1
   8    4   11 2
   9    5    6 ar
  10    5   10 ar
  11    6    7 ar
  12    6   29 1
  13    7    8 ar
  14    7   13 1
  15    8    9 ar
  16    8   30 1
  17    9   10 ar
  18    9   31 1
  19   12   13 1
  20   12   17 1
  21   12   18 1
  22   12   32 1
  23   13   14 1
  24   14   15 1
  25   14   33 1
  26   14   34 1
  27   15   16 1
  28   15   18 1
  29   15   35 1
  30   16   17 1
  31   16   19 1
  32   17   36 1
  33   17   37 1
  34   18   38 1
  35   18   39 1
  36   19   40 1
  37   19   41 1
  38   19   42 1
  39   20   43 1
  40   20   44 1
  41   20   45 1
  42   21   22 ar
  43   21   26 ar
  44   22   23 ar
  45   22   46 1
  46   23   24 ar
  47   23   27 1
  48   24   25 ar
  49   24   47 1
  50   25   26 ar
  51   25   48 1
  52   26   49 1
  53   27   28 3

#	End of record

