#	Name: ASD05740192
#	Creating user name:	WinNT
#	Creation time:	15. 06. 2019 21:03

#	Modifying user name:	WinNT
#	Modification time:	15. 06. 2019 21:03

#	Program:	/corina/corina34_cracker 3.40 0067  02.08.2006

@<TRIPOS>MOLECULE
ASD05740192
  61   65    0    0    0
SMALL
NO_CHARGES


@<TRIPOS>ATOM
   1 C1             1.1190    -1.1191    -0.1324 C.3     
   2 N2             0.2312    -0.4335     0.8170 N.3     
   3 C3            -1.0880    -0.8806     0.6826 C.ar    
   4 C4            -2.0857    -0.3539     1.4925 C.ar    
   5 C5            -3.3872    -0.7951     1.3598 C.ar    
   6 C6            -3.6987    -1.7658     0.4169 C.ar    
   7 C7            -2.7010    -2.2928    -0.3927 C.ar    
   8 C8            -1.4006    -1.8469    -0.2647 C.ar    
   9 N9            -5.0191    -2.2137     0.2826 N.pl3   
  10 C10           -6.0686    -1.3354     0.4688 C.ar    
  11 N11           -5.7988    -0.0484     0.6590 N.ar    
  12 N12           -7.3064    -1.8073     0.4456 N.ar    
  13 C13           -8.3385    -0.9923     0.6208 C.ar    
  14 C14           -8.0898     0.3819     0.8315 C.ar    
  15 C15           -6.7652     0.8334     0.8419 C.ar    
  16 N16           -9.6306    -1.4506     0.6017 N.am    
  17 C17          -10.6651    -0.6101     0.7806 C.2     
  18 C18          -10.4731     0.7698     0.9941 C.2     
  19 C19           -9.2175     1.2882     1.0254 C.2     
  20 C20           -9.8879    -2.8761     0.3826 C.3     
  21 O21          -11.8000    -1.0539     0.7572 O.2     
  22 C22            0.7073    -0.6049     2.1967 C.3     
  23 C23            2.1214    -0.0327     2.3203 C.3     
  24 N24            3.0092    -0.7183     1.3709 N.3     
  25 C25            2.5331    -0.5469    -0.0088 C.3     
  26 C26           -9.8474    -3.6024     1.7024 C.ar    
  27 C27           -9.9403    -5.6447     2.9511 C.ar    
  28 C28           -9.6493    -3.5568     4.0889 C.ar    
  29 C29           -9.6862    -2.8919     2.8776 C.ar    
  30 C30            4.3941    -0.2489     1.5120 C.3     
  31 C31           -9.9771    -4.9776     1.7381 C.ar    
  32 C32          -10.1590    -5.7511     0.4576 C.3     
  33 C33           -9.7736    -4.9328     4.1266 C.ar    
  34 F34          -10.0620    -6.9898     2.9868 F       
  35 H35            1.1373    -2.1856     0.0920 H       
  36 H36            0.7526    -0.9670    -1.1477 H       
  37 H37           -1.8434     0.4005     2.2264 H       
  38 H38           -4.1631    -0.3856     1.9897 H       
  39 H39           -2.9432    -3.0482    -1.1256 H       
  40 H40           -0.6247    -2.2567    -0.8943 H       
  41 H41           -5.1964    -3.1408     0.0589 H       
  42 H42           -6.5382     1.8773     1.0005 H       
  43 H43          -11.3265     1.4170     1.1336 H       
  44 H44           -9.0580     2.3438     1.1886 H       
  45 H45          -10.8706    -3.0023    -0.0716 H       
  46 H46           -9.1258    -3.2851    -0.2807 H       
  47 H47            0.0408    -0.0779     2.8795 H       
  48 H48            0.7210    -1.6655     2.4476 H       
  49 H49            2.1031     1.0338     2.0959 H       
  50 H50            2.4878    -0.1847     3.3356 H       
  51 H51            3.1996    -1.0738    -0.6916 H       
  52 H52            2.5194     0.5138    -0.2597 H       
  53 H53           -9.5234    -3.0008     5.0062 H       
  54 H54           -9.5886    -1.8167     2.8490 H       
  55 H55            4.7441    -0.4490     2.5247 H       
  56 H56            5.0297    -0.7724     0.7979 H       
  57 H57            4.4360     0.8229     1.3182 H       
  58 H58           -9.1858    -6.0698     0.0842 H       
  59 H59          -10.7800    -6.6267     0.6471 H       
  60 H60          -10.6429    -5.1163    -0.2847 H       
  61 H61           -9.7407    -5.4525     5.0728 H       
@<TRIPOS>BOND
   1    1    2 1
   2    1   25 1
   3    1   35 1
   4    1   36 1
   5    2    3 1
   6    2   22 1
   7    3    4 ar
   8    3    8 ar
   9    4    5 ar
  10    4   37 1
  11    5    6 ar
  12    5   38 1
  13    6    7 ar
  14    6    9 1
  15    7    8 ar
  16    7   39 1
  17    8   40 1
  18    9   10 1
  19    9   41 1
  20   10   11 ar
  21   10   12 ar
  22   11   15 ar
  23   12   13 ar
  24   13   14 ar
  25   13   16 1
  26   14   15 ar
  27   14   19 1
  28   15   42 1
  29   16   17 am
  30   16   20 1
  31   17   18 1
  32   17   21 2
  33   18   19 2
  34   18   43 1
  35   19   44 1
  36   20   26 1
  37   20   45 1
  38   20   46 1
  39   22   23 1
  40   22   47 1
  41   22   48 1
  42   23   24 1
  43   23   49 1
  44   23   50 1
  45   24   25 1
  46   24   30 1
  47   25   51 1
  48   25   52 1
  49   26   29 ar
  50   26   31 ar
  51   27   33 ar
  52   27   34 1
  53   27   31 ar
  54   28   29 ar
  55   28   33 ar
  56   28   53 1
  57   29   54 1
  58   30   55 1
  59   30   56 1
  60   30   57 1
  61   31   32 1
  62   32   58 1
  63   32   59 1
  64   32   60 1
  65   33   61 1

#	End of record

