#	Name: ASD08170338
#	Creating user name:	WinNT
#	Creation time:	15. 06. 2019 21:17

#	Modifying user name:	WinNT
#	Modification time:	15. 06. 2019 21:17

#	Program:	/corina/corina34_cracker 3.40 0067  02.08.2006

@<TRIPOS>MOLECULE
ASD08170338
  68   71    0    0    0
SMALL
NO_CHARGES


@<TRIPOS>ATOM
   1 C1            -0.0167     1.3782     0.0096 C.ar    
   2 C2             0.0021    -0.0041     0.0020 C.ar    
   3 C3             1.2076    -0.6815    -0.0127 C.ar    
   4 C4             2.3963     0.0219    -0.0199 C.ar    
   5 C5             2.3802     1.4093    -0.0127 C.ar    
   6 C6             1.1697     2.0864     0.0021 C.ar    
   7 C7             1.2243    -2.1884    -0.0205 C.3     
   8 C8             1.2166    -2.6835    -1.4438 C.2     
   9 N9             1.2290    -4.0072    -1.6969 N.am    
  10 C10            1.2219    -4.4642    -3.0104 C.2     
  11 S11            1.2357    -6.1069    -3.4962 S.3     
  12 C12            1.2142    -5.5877    -5.1819 C.2     
  13 N13            1.1996    -4.2927    -5.1953 N.2     
  14 N14            1.1980    -3.7162    -4.0720 N.2     
  15 O15            1.1992    -1.8908    -2.3615 O.2     
  16 O16            3.5484     2.1036    -0.0193 O.3     
  17 C17            3.4557     3.5296    -0.0113 C.3     
  18 C18            1.2134    -6.4891    -6.3896 C.3     
  19 C19            2.6555    -6.7776    -6.8117 C.3     
  20 S20            2.6546    -7.8626    -8.2654 S.3     
  21 C21            4.4217    -8.0863    -8.6087 C.3     
  22 C22            4.5934    -8.9936    -9.8286 C.3     
  23 C23            6.0614    -9.1795   -10.1138 C.2     
  24 N24            6.8124   -10.1151    -9.6285 N.2     
  25 S25            7.0126    -8.1925   -11.1398 S.3     
  26 C26            8.3800    -9.1651   -10.7995 C.2     
  27 N27            8.0247   -10.1070    -9.9862 N.2     
  28 C28            9.7648    -8.9616   -11.3581 C.3     
  29 C29            9.9050    -9.7312   -12.6462 C.2     
  30 O30            8.9762   -10.3781   -13.0672 O.2     
  31 C31           11.2042    -9.6934   -13.4089 C.3     
  32 C32           11.0827   -10.5392   -14.6503 C.ar    
  33 C33           10.6402    -9.9732   -15.8305 C.ar    
  34 C34           11.4194   -11.8793   -14.6086 C.ar    
  35 C35           11.3090   -12.6581   -15.7460 C.ar    
  36 C36           10.8618   -12.0984   -16.9269 C.ar    
  37 C37           10.5286   -10.7523   -16.9728 C.ar    
  38 O38           10.0879   -10.1993   -18.1334 O.3     
  39 C39            9.9919   -11.0628   -19.2679 C.3     
  40 H40           -0.9595     1.9050     0.0170 H       
  41 H41           -0.9263    -0.5558     0.0080 H       
  42 H42            3.3375    -0.5076    -0.0307 H       
  43 H43            1.1545     3.1663     0.0073 H       
  44 H44            2.1231    -2.5443     0.4832 H       
  45 H45            0.3433    -2.5642     0.4998 H       
  46 H46            1.2430    -4.6412    -0.9629 H       
  47 H47            4.4575     3.9589    -0.0178 H       
  48 H48            2.9117     3.8632    -0.8950 H       
  49 H49            2.9270     3.8543     0.8849 H       
  50 H50            0.7126    -7.4255    -6.1438 H       
  51 H51            0.6863    -5.9992    -7.2083 H       
  52 H52            3.1563    -5.8412    -7.0575 H       
  53 H53            3.1826    -7.2675    -5.9929 H       
  54 H54            4.8784    -7.1172    -8.8096 H       
  55 H55            4.9046    -8.5435    -7.7450 H       
  56 H56            4.1368    -9.9628    -9.6277 H       
  57 H57            4.1105    -8.5365   -10.6923 H       
  58 H58            9.9273    -7.9009   -11.5491 H       
  59 H59           10.5025    -9.3186   -10.6395 H       
  60 H60           11.4303    -8.6650   -13.6907 H       
  61 H61           12.0056   -10.0828   -12.7810 H       
  62 H62           10.3811    -8.9253   -15.8636 H       
  63 H63           11.7696   -12.3187   -13.6863 H       
  64 H64           11.5730   -13.7048   -15.7109 H       
  65 H65           10.7758   -12.7071   -17.8149 H       
  66 H66           10.9750   -11.4753   -19.4948 H       
  67 H67            9.2988   -11.8750   -19.0488 H       
  68 H68            9.6287   -10.4967   -20.1257 H       
@<TRIPOS>BOND
   1    1    2 ar
   2    1    6 ar
   3    1   40 1
   4    2    3 ar
   5    2   41 1
   6    3    4 ar
   7    3    7 1
   8    4    5 ar
   9    4   42 1
  10    5    6 ar
  11    5   16 1
  12    6   43 1
  13    7    8 1
  14    7   44 1
  15    7   45 1
  16    8    9 am
  17    8   15 2
  18    9   10 1
  19    9   46 1
  20   10   11 1
  21   10   14 2
  22   11   12 1
  23   12   13 2
  24   12   18 1
  25   13   14 1
  26   16   17 1
  27   17   47 1
  28   17   48 1
  29   17   49 1
  30   18   19 1
  31   18   50 1
  32   18   51 1
  33   19   20 1
  34   19   52 1
  35   19   53 1
  36   20   21 1
  37   21   22 1
  38   21   54 1
  39   21   55 1
  40   22   23 1
  41   22   56 1
  42   22   57 1
  43   23   24 2
  44   23   25 1
  45   24   27 1
  46   25   26 1
  47   26   27 2
  48   26   28 1
  49   28   29 1
  50   28   58 1
  51   28   59 1
  52   29   30 2
  53   29   31 1
  54   31   32 1
  55   31   60 1
  56   31   61 1
  57   32   33 ar
  58   32   34 ar
  59   33   37 ar
  60   33   62 1
  61   34   35 ar
  62   34   63 1
  63   35   36 ar
  64   35   64 1
  65   36   37 ar
  66   36   65 1
  67   37   38 1
  68   38   39 1
  69   39   66 1
  70   39   67 1
  71   39   68 1

#	End of record

