#	Name: ASD03082108
#	Creating user name:	WinNT
#	Creation time:	15. 06. 2019 20:27

#	Modifying user name:	WinNT
#	Modification time:	15. 06. 2019 20:27

#	Program:	/corina/corina34_cracker 3.40 0067  02.08.2006

@<TRIPOS>MOLECULE
ASD03082108
  42   45    0    0    0
SMALL
NO_CHARGES


@<TRIPOS>ATOM
   1 C1            -0.0168     1.3886     0.0097 C.ar    
   2 C2             0.0021    -0.0041     0.0020 C.ar    
   3 C3            -1.1584    -0.7659    -0.0128 C.ar    
   4 C4            -2.3849    -0.1481    -0.0009 C.ar    
   5 C5            -2.4136     1.2278     0.0701 C.ar    
   6 C6            -1.2618     2.0196     0.0308 C.ar    
   7 C7            -3.7229    -0.8527    -0.1354 C.3     
   8 N8            -4.3057    -0.3860    -1.4116 N.3     
   9 C9            -5.0689     0.8377    -1.3207 C.3     
  10 C10           -4.2819     2.1365    -1.2043 C.3     
  11 C11           -3.5901     2.1426     0.1654 C.3     
  12 C12           -5.0908    -1.4498    -2.0519 C.3     
  13 O13           -1.5945     3.3384    -0.0632 O.3     
  14 C14           -4.5805     1.9716     1.2685 C.2     
  15 C15           -5.3080     3.0568     1.5033 C.2     
  16 C16           -5.1976     4.3223     0.7157 C.3     
  17 C17           -3.8153     4.5993     0.1161 C.3     
  18 C18           -2.8860     3.4823     0.4764 C.3     
  19 O19           -6.1483     4.2729    -0.3501 O.3     
  20 O20            1.1371     2.1084     0.0025 O.3     
  21 C21            2.3613     1.3714    -0.0131 C.3     
  22 H22            0.9559    -0.5106     0.0074 H       
  23 H23           -1.0967    -1.8439    -0.0340 H       
  24 H24           -3.5770    -1.9325    -0.1626 H       
  25 H25           -4.3744    -0.5819     0.6954 H       
  26 H26           -5.7006     0.9061    -2.2064 H       
  27 H27           -5.7225     0.7621    -0.4516 H       
  28 H28           -3.5344     2.1876    -1.9959 H       
  29 H29           -4.9595     2.9870    -1.2797 H       
  30 H30           -5.8567    -1.8021    -1.3610 H       
  31 H31           -5.5654    -1.0593    -2.9522 H       
  32 H32           -4.4329    -2.2772    -2.3177 H       
  33 H33           -4.6944     1.0520     1.8234 H       
  34 H34           -6.0231     3.0231     2.3119 H       
  35 H35           -5.4621     5.1555     1.3668 H       
  36 H36           -3.8968     4.6691    -0.9687 H       
  37 H37           -3.4279     5.5375     0.5133 H       
  38 H38           -2.7596     3.5118     1.5587 H       
  39 H39           -7.0653     4.1871    -0.0555 H       
  40 H40            2.4160     0.7390     0.8730 H       
  41 H41            2.3990     0.7486    -0.9069 H       
  42 H42            3.2025     2.0644    -0.0174 H       
@<TRIPOS>BOND
   1    1    2 ar
   2    1   20 1
   3    1    6 ar
   4    2    3 ar
   5    2   22 1
   6    3    4 ar
   7    3   23 1
   8    4    5 ar
   9    4    7 1
  10    5    6 ar
  11    5   11 1
  12    6   13 1
  13    7    8 1
  14    7   24 1
  15    7   25 1
  16    8    9 1
  17    8   12 1
  18    9   10 1
  19    9   26 1
  20    9   27 1
  21   10   11 1
  22   10   28 1
  23   10   29 1
  24   11   14 1
  25   11   18 1
  26   12   30 1
  27   12   31 1
  28   12   32 1
  29   13   18 1
  30   14   15 2
  31   14   33 1
  32   15   16 1
  33   15   34 1
  34   16   17 1
  35   16   19 1
  36   16   35 1
  37   17   18 1
  38   17   36 1
  39   17   37 1
  40   18   38 1
  41   19   39 1
  42   20   21 1
  43   21   40 1
  44   21   41 1
  45   21   42 1

#	End of record

