#	Name: ASD02398029
#	Creating user name:	WinNT
#	Creation time:	15. 06. 2019 20:20

#	Modifying user name:	WinNT
#	Modification time:	15. 06. 2019 20:20

#	Program:	/corina/corina34_cracker 3.40 0067  02.08.2006

@<TRIPOS>MOLECULE
ASD02398029
  77   82    0    0    0
SMALL
NO_CHARGES


@<TRIPOS>ATOM
   1 C1            -0.2367     1.3667    -0.0536 C.ar    
   2 C2             0.0579     0.0018    -0.1288 C.ar    
   3 C3            -0.9750    -0.9309    -0.0779 C.ar    
   4 C4            -2.2822    -0.5049     0.0462 C.ar    
   5 C5            -2.5707     0.8461     0.1203 C.ar    
   6 C6            -1.5526     1.7801     0.0761 C.ar    
   7 C7            -3.3991    -1.5152     0.1006 C.3     
   8 C8            -3.5842    -1.9834     1.5210 C.2     
   9 O9            -2.8217    -1.6148     2.3828 O.2     
  10 O10           -4.5960    -2.8100     1.8288 O.3     
  11 C11            1.4642    -0.4506    -0.2625 C.ar    
  12 C12            2.3602    -0.2700     0.7898 C.ar    
  13 C13            1.8930    -1.0628    -1.4386 C.ar    
  14 C14            3.2027    -1.4822    -1.5573 C.ar    
  15 C15            4.0888    -1.2957    -0.5119 C.ar    
  16 C16            3.6672    -0.6932     0.6600 C.ar    
  17 C17            1.9026     0.3866     2.0667 C.3     
  18 N18            2.9775     0.3246     3.0601 N.am    
  19 C19            3.9925     1.1932     3.1653 C.2     
  20 O20            4.8429     0.9138     4.1594 O.3     
  21 C21            4.4003    -0.2880     4.8540 C.3     
  22 C22            3.1152    -0.6976     4.1089 C.3     
  23 O23            4.1283     2.1471     2.4250 O.2     
  24 C24            3.2765    -2.0835     3.4810 C.3     
  25 C25            5.4431    -1.3712     4.7525 C.ar    
  26 C26            5.5994    -2.2789     5.7833 C.ar    
  27 C27            6.2395    -1.4606     3.6262 C.ar    
  28 C28            7.1961    -2.4541     3.5331 C.ar    
  29 C29            7.3565    -3.3581     4.5665 C.ar    
  30 C30            6.5560    -3.2724     5.6903 C.ar    
  31 O31            0.7643     2.2838    -0.1019 O.3     
  32 C32            0.3879     3.6599    -0.0196 C.3     
  33 C33            1.6401     4.5362    -0.0902 C.3     
  34 C34            1.4397     6.0523    -0.1359 C.3     
  35 C35            1.9752     5.3894     1.1348 C.3     
  36 C36           -4.7821    -3.1299     3.2328 C.3     
  37 C37           -5.8984    -4.1664     3.3761 C.3     
  38 C38           -6.1693    -4.7240     4.7749 C.3     
  39 C39           -7.1584    -3.7471     4.1360 C.3     
  40 C40            5.5173    -1.7562    -0.6474 C.3     
  41 F41            5.7030    -2.3353    -1.9073 F       
  42 F42            6.3758    -0.6606    -0.5066 F       
  43 F43            5.7992    -2.7002     0.3459 F       
  44 H44           -0.7536    -1.9864    -0.1359 H       
  45 H45           -3.5956     1.1724     0.2173 H       
  46 H46           -1.7840     2.8334     0.1344 H       
  47 H47           -4.3220    -1.0559    -0.2537 H       
  48 H48           -3.1503    -2.3664    -0.5331 H       
  49 H49            1.2018    -1.2092    -2.2554 H       
  50 H50            3.5361    -1.9571    -2.4682 H       
  51 H51            4.3633    -0.5501     1.4732 H       
  52 H52            1.6499     1.4284     1.8693 H       
  53 H53            1.0245    -0.1342     2.4486 H       
  54 H54            4.1786    -0.0663     5.8979 H       
  55 H55            2.2591    -0.6789     4.7833 H       
  56 H56            3.5091    -2.8101     4.2594 H       
  57 H57            2.3487    -2.3675     2.9843 H       
  58 H58            4.0865    -2.0600     2.7520 H       
  59 H59            4.9745    -2.2116     6.6616 H       
  60 H60            6.1141    -0.7543     2.8187 H       
  61 H61            7.8178    -2.5244     2.6528 H       
  62 H62            8.1036    -4.1346     4.4936 H       
  63 H63            6.6814    -3.9787     6.4977 H       
  64 H64           -0.2747     3.9056    -0.8495 H       
  65 H65           -0.1286     3.8395     0.9232 H       
  66 H66            2.4729     4.1213    -0.6580 H       
  67 H67            2.1409     6.6349    -0.7335 H       
  68 H68            0.4157     6.4255    -0.1158 H       
  69 H69            1.3035     5.3265     1.9910 H       
  70 H70            3.0286     5.5359     1.3733 H       
  71 H71           -3.8555    -3.5353     3.6391 H       
  72 H72           -5.0533    -2.2261     3.7785 H       
  73 H73           -6.0218    -4.8442     2.5315 H       
  74 H74           -6.4713    -5.7686     4.8505 H       
  75 H75           -5.5523    -4.3524     5.5930 H       
  76 H76           -7.1921    -2.7328     4.5338 H       
  77 H77           -8.1111    -4.1490     3.7913 H       
@<TRIPOS>BOND
   1    1    2 ar
   2    1   31 1
   3    1    6 ar
   4    2    3 ar
   5    2   11 1
   6    3    4 ar
   7    3   44 1
   8    4    5 ar
   9    4    7 1
  10    5    6 ar
  11    5   45 1
  12    6   46 1
  13    7    8 1
  14    7   47 1
  15    7   48 1
  16    8    9 2
  17    8   10 1
  18   10   36 1
  19   11   12 ar
  20   11   13 ar
  21   12   17 1
  22   12   16 ar
  23   13   14 ar
  24   13   49 1
  25   14   15 ar
  26   14   50 1
  27   15   16 ar
  28   15   40 1
  29   16   51 1
  30   17   18 1
  31   17   52 1
  32   17   53 1
  33   18   19 am
  34   18   22 1
  35   19   20 1
  36   19   23 2
  37   20   21 1
  38   21   22 1
  39   21   25 1
  40   21   54 1
  41   22   24 1
  42   22   55 1
  43   24   56 1
  44   24   57 1
  45   24   58 1
  46   25   26 ar
  47   25   27 ar
  48   26   30 ar
  49   26   59 1
  50   27   28 ar
  51   27   60 1
  52   28   29 ar
  53   28   61 1
  54   29   30 ar
  55   29   62 1
  56   30   63 1
  57   31   32 1
  58   32   33 1
  59   32   64 1
  60   32   65 1
  61   33   34 1
  62   33   35 1
  63   33   66 1
  64   34   35 1
  65   34   67 1
  66   34   68 1
  67   35   69 1
  68   35   70 1
  69   36   37 1
  70   36   71 1
  71   36   72 1
  72   37   38 1
  73   37   39 1
  74   37   73 1
  75   38   39 1
  76   38   74 1
  77   38   75 1
  78   39   76 1
  79   39   77 1
  80   40   41 1
  81   40   42 1
  82   40   43 1

#	End of record

