#	Name: ASD02500234
#	Creating user name:	WinNT
#	Creation time:	15. 06. 2019 20:22

#	Modifying user name:	WinNT
#	Modification time:	15. 06. 2019 20:22

#	Program:	/corina/corina34_cracker 3.40 0067  02.08.2006

@<TRIPOS>MOLECULE
ASD02500234
  66   70    0    0    0
SMALL
NO_CHARGES


@<TRIPOS>ATOM
   1 N1            -3.4414     4.9744     0.6527 N.ar    
   2 C2            -4.6716     5.3813     0.8508 C.ar    
   3 C3            -5.4407     4.9027     1.9095 C.ar    
   4 C4            -4.9151     3.9846     2.7734 C.ar    
   5 C5            -3.5938     3.5496     2.5572 C.ar    
   6 C6            -2.9862     2.6085     3.4034 C.ar    
   7 C7            -1.7058     2.2134     3.1610 C.ar    
   8 C8            -0.9897     2.7311     2.0839 C.ar    
   9 C9            -1.5478     3.6449     1.2437 C.ar    
  10 C10           -2.8673     4.0777     1.4610 C.ar    
  11 S11           -0.6192     4.2839    -0.1106 S.o2    
  12 O12           -0.6948     5.6998    -0.0164 O.2     
  13 O13            0.6096     3.5705    -0.1267 O.2     
  14 N14           -1.4219     3.8640    -1.4968 N.am    
  15 C15           -1.6610     2.5243    -1.7832 C.ar    
  16 C16           -2.8858     2.1375    -2.3137 C.ar    
  17 C17           -3.1235     0.8048    -2.5991 C.ar    
  18 C18           -2.1230    -0.1483    -2.3498 C.ar    
  19 C19           -0.8956     0.2570    -1.8156 C.ar    
  20 C20           -0.6694     1.5753    -1.5426 C.ar    
  21 C21           -2.3652    -1.5692    -2.6492 C.2     
  22 O22           -3.3314    -2.1348    -2.1738 O.2     
  23 N23           -1.5164    -2.2434    -3.4502 N.am    
  24 C24           -1.7814    -3.6430    -3.8116 C.3     
  25 C25           -1.7899    -3.7611    -5.3408 C.3     
  26 N26           -0.5830    -3.1096    -5.8688 N.am    
  27 C27           -0.3179    -1.7099    -5.5073 C.3     
  28 C28           -0.3124    -1.5901    -3.9827 C.3     
  29 C29            1.3567    -3.0630    -7.3669 C.ar    
  30 C30            2.3280    -3.7828    -8.0591 C.ar    
  31 C31            3.3389    -3.0945    -8.7111 C.ar    
  32 C32            3.3432    -1.7097    -8.6480 C.ar    
  33 C33            2.3450    -1.0589    -7.9409 C.ar    
  34 N34            1.3972    -1.7370    -7.3312 N.ar    
  35 C35            0.2658    -3.7837    -6.6697 C.2     
  36 O36            0.1365    -4.9826    -6.8201 O.2     
  37 C37            2.3454     0.4464    -7.8695 C.3     
  38 O38           -4.3172     0.4207    -3.1167 O.3     
  39 C39           -5.2864     1.4462    -3.3429 C.3     
  40 H40           -5.1004     6.1071     0.1757 H       
  41 H41           -6.4513     5.2576     2.0472 H       
  42 H42           -5.4969     3.6032     3.5995 H       
  43 H43           -3.5309     2.2006     4.2420 H       
  44 H44           -1.2391     1.4893     3.8125 H       
  45 H45            0.0248     2.4023     1.9131 H       
  46 H46           -1.7254     4.5525    -2.1091 H       
  47 H47           -3.6509     2.8759    -2.5026 H       
  48 H48           -0.1240    -0.4736    -1.6227 H       
  49 H49            0.2816     1.8838    -1.1343 H       
  50 H50           -0.9999    -4.2815    -3.3997 H       
  51 H51           -2.7509    -3.9457    -3.4160 H       
  52 H52           -1.7924    -4.8130    -5.6264 H       
  53 H53           -2.6762    -3.2687    -5.7408 H       
  54 H54            0.6516    -1.4072    -5.9029 H       
  55 H55           -1.0995    -1.0715    -5.9192 H       
  56 H56           -0.3120    -0.5374    -3.7000 H       
  57 H57            0.5761    -2.0791    -3.5832 H       
  58 H58            2.2940    -4.8619    -8.0870 H       
  59 H59            4.1061    -3.6250    -9.2556 H       
  60 H60            4.1171    -1.1436    -9.1449 H       
  61 H61            1.6980     0.8473    -8.6494 H       
  62 H62            1.9780     0.7639    -6.8936 H       
  63 H63            3.3603     0.8167    -8.0137 H       
  64 H64           -6.1926     1.0047    -3.7576 H       
  65 H65           -5.5211     1.9388    -2.3993 H       
  66 H66           -4.8847     2.1775    -4.0443 H       
@<TRIPOS>BOND
   1    1    2 ar
   2    1   10 ar
   3    2    3 ar
   4    2   40 1
   5    3    4 ar
   6    3   41 1
   7    4    5 ar
   8    4   42 1
   9    5    6 ar
  10    5   10 ar
  11    6    7 ar
  12    6   43 1
  13    7    8 ar
  14    7   44 1
  15    8    9 ar
  16    8   45 1
  17    9   10 ar
  18    9   11 1
  19   11   12 2
  20   11   13 2
  21   11   14 am
  22   14   15 1
  23   14   46 1
  24   15   16 ar
  25   15   20 ar
  26   16   17 ar
  27   16   47 1
  28   17   18 ar
  29   17   38 1
  30   18   19 ar
  31   18   21 1
  32   19   20 ar
  33   19   48 1
  34   20   49 1
  35   21   22 2
  36   21   23 am
  37   23   24 1
  38   23   28 1
  39   24   25 1
  40   24   50 1
  41   24   51 1
  42   25   26 1
  43   25   52 1
  44   25   53 1
  45   26   27 1
  46   26   35 am
  47   27   28 1
  48   27   54 1
  49   27   55 1
  50   28   56 1
  51   28   57 1
  52   29   30 ar
  53   29   34 ar
  54   29   35 1
  55   30   31 ar
  56   30   58 1
  57   31   32 ar
  58   31   59 1
  59   32   33 ar
  60   32   60 1
  61   33   34 ar
  62   33   37 1
  63   35   36 2
  64   37   61 1
  65   37   62 1
  66   37   63 1
  67   38   39 1
  68   39   64 1
  69   39   65 1
  70   39   66 1

#	End of record

