#	Name: ASD09890057
#	Creating user name:	WinNT
#	Creation time:	15. 06. 2019 21:24

#	Modifying user name:	WinNT
#	Modification time:	15. 06. 2019 21:24

#	Program:	/corina/corina34_cracker 3.40 0067  02.08.2006

@<TRIPOS>MOLECULE
ASD09890057
  45   49    0    0    0
SMALL
NO_CHARGES


@<TRIPOS>ATOM
   1 C1            -0.0166     1.3756     0.0096 C.2     
   2 N2             0.0021    -0.0041     0.0020 N.pl3   
   3 C3            -1.3108    -0.3894     0.0125 C.2     
   4 N4            -2.0386     0.7058     0.0253 N.2     
   5 N5            -1.2797     1.7426     0.0294 N.2     
   6 S6            -1.9140    -2.0449     0.0093 S.3     
   7 C7            -3.6963    -1.7301     0.0280 C.3     
   8 C8             1.1296    -0.8364    -0.0136 C.ar    
   9 C9             1.3984    -1.6639     1.0683 C.ar    
  10 C10            2.5101    -2.4833     1.0498 C.ar    
  11 C11            3.3549    -2.4802    -0.0449 C.ar    
  12 C12            3.0898    -1.6571    -1.1240 C.ar    
  13 C13            1.9768    -0.8393    -1.1135 C.ar    
  14 C14           -4.4671    -3.0559    -0.0977 C.3     
  15 C15           -5.3210    -3.1921     1.1798 C.3     
  16 C16           -5.4914    -1.7360     1.6798 C.3     
  17 C17           -4.1087    -1.1068     1.3776 C.3     
  18 C18            1.1534     2.2665     0.0032 C.2     
  19 O19            2.4187     1.8873     0.2741 O.3     
  20 C20            1.1231     3.5940    -0.2821 C.2     
  21 C21            2.5043     4.0650    -0.1669 C.ar    
  22 C22            3.2638     2.9347     0.1859 C.ar    
  23 C23            3.1270     5.3037    -0.3319 C.ar    
  24 C24            4.4768     5.4136    -0.1453 C.ar    
  25 C25            5.2301     4.3028     0.2067 C.ar    
  26 C26            4.6338     3.0699     0.3694 C.ar    
  27 H27           -3.9658    -1.0624    -0.7903 H       
  28 H28            0.7391    -1.6665     1.9237 H       
  29 H29            2.7199    -3.1270     1.8913 H       
  30 H30            4.2238    -3.1216    -0.0569 H       
  31 H31            3.7515    -1.6568    -1.9775 H       
  32 H32            1.7703    -0.1967    -1.9566 H       
  33 H33           -5.1114    -3.0313    -0.9766 H       
  34 H34           -3.7678    -3.8889    -0.1700 H       
  35 H35           -6.2909    -3.6309     0.9454 H       
  36 H36           -4.7995    -3.7928     1.9250 H       
  37 H37           -6.2778    -1.2261     1.1234 H       
  38 H38           -5.6990    -1.7168     2.7497 H       
  39 H39           -3.3914    -1.3708     2.1547 H       
  40 H40           -4.1938    -0.0239     1.2876 H       
  41 H41            0.2557     4.1828    -0.5415 H       
  42 H42            2.5449     6.1711    -0.6062 H       
  43 H43            4.9599     6.3711    -0.2730 H       
  44 H44            6.2956     4.4040     0.3510 H       
  45 H45            5.2303     2.2123     0.6435 H       
@<TRIPOS>BOND
   1    1    2 1
   2    1   18 1
   3    1    5 2
   4    2    3 1
   5    2    8 1
   6    3    4 2
   7    3    6 1
   8    4    5 1
   9    6    7 1
  10    7   14 1
  11    7   17 1
  12    7   27 1
  13    8    9 ar
  14    8   13 ar
  15    9   10 ar
  16    9   28 1
  17   10   11 ar
  18   10   29 1
  19   11   12 ar
  20   11   30 1
  21   12   13 ar
  22   12   31 1
  23   13   32 1
  24   14   15 1
  25   14   33 1
  26   14   34 1
  27   15   16 1
  28   15   35 1
  29   15   36 1
  30   16   17 1
  31   16   37 1
  32   16   38 1
  33   17   39 1
  34   17   40 1
  35   18   19 1
  36   18   20 2
  37   19   22 1
  38   20   21 1
  39   20   41 1
  40   21   22 ar
  41   21   23 ar
  42   22   26 ar
  43   23   24 ar
  44   23   42 1
  45   24   25 ar
  46   24   43 1
  47   25   26 ar
  48   25   44 1
  49   26   45 1

#	End of record

