#	Name: ASD03240063
#	Creating user name:	WinNT
#	Creation time:	15. 06. 2019 20:34

#	Modifying user name:	WinNT
#	Modification time:	15. 06. 2019 20:34

#	Program:	/corina/corina34_cracker 3.40 0067  02.08.2006

@<TRIPOS>MOLECULE
ASD03240063
  71   77    0    0    0
SMALL
NO_CHARGES


@<TRIPOS>ATOM
   1 C1            -0.0172     1.4137     0.0098 C.ar    
   2 C2             0.0021    -0.0041     0.0020 C.ar    
   3 C3             1.1964     2.1235     0.0020 C.ar    
   4 C4             2.3762     1.3975    -0.0132 C.ar    
   5 C5             2.3198    -0.0149    -0.0203 C.ar    
   6 N6             1.1684    -0.6559    -0.0122 N.ar    
   7 C7             3.5816    -0.7909    -0.0366 C.ar    
   8 C8             3.6843     2.0948    -0.0224 C.ar    
   9 C9             3.9283     3.1126    -0.9433 C.ar    
  10 C10            5.1480     3.7581    -0.9472 C.ar    
  11 C11            6.1276     3.3970    -0.0397 C.ar    
  12 C12            5.8914     2.3875     0.8762 C.ar    
  13 C13            4.6733     1.7391     0.8936 C.ar    
  14 C14            3.6670    -2.0030     0.6479 C.ar    
  15 C15            4.8450    -2.7212     0.6290 C.ar    
  16 C16            5.9400    -2.2412    -0.0670 C.ar    
  17 C17            5.8614    -1.0395    -0.7479 C.ar    
  18 C18            4.6870    -0.3150    -0.7412 C.ar    
  19 C19            7.2238    -3.0303    -0.0831 C.3     
  20 N20            7.2142    -3.9577    -1.2224 N.3     
  21 C21            8.5346    -4.5715    -1.4123 C.3     
  22 C22            8.5274    -5.4156    -2.6888 C.3     
  23 C23            7.4520    -6.4994    -2.5722 C.3     
  24 C24            6.0942    -5.8356    -2.3265 C.3     
  25 C25            6.1720    -4.9794    -1.0605 C.3     
  26 C26            7.3992    -7.2961    -3.8502 C.2     
  27 C27            6.6761    -6.9546    -4.9932 C.2     
  28 C28            6.8874    -7.9276    -5.9288 C.2     
  29 N29            7.7235    -8.8497    -5.3736 N.pl3   
  30 N30            8.0287    -8.4215    -4.0753 N.2     
  31 N31           -1.1534    -0.6784     0.0095 N.ar    
  32 C32           -2.3084    -0.0577     0.0238 C.ar    
  33 C33           -2.3951     1.3320     0.0321 C.ar    
  34 C34           -1.2538     2.0841     0.0310 C.ar    
  35 C35            6.3141    -7.9723    -7.2923 C.ar    
  36 C36            6.6182    -9.0332    -8.1455 C.ar    
  37 C37            6.0801    -9.0694    -9.4155 C.ar    
  38 C38            5.2407    -8.0563    -9.8434 C.ar    
  39 C39            4.9357    -7.0012    -9.0021 C.ar    
  40 C40            5.4628    -6.9565    -7.7278 C.ar    
  41 H41            1.2085     3.2034     0.0074 H       
  42 H42            3.1644     3.3951    -1.6526 H       
  43 H43            5.3383     4.5464    -1.6604 H       
  44 H44            7.0807     3.9049    -0.0464 H       
  45 H45            6.6601     2.1093     1.5819 H       
  46 H46            4.4899     0.9512     1.6090 H       
  47 H47            2.8129    -2.3785     1.1919 H       
  48 H48            4.9125    -3.6598     1.1590 H       
  49 H49            6.7196    -0.6698    -1.2895 H       
  50 H50            4.6268     0.6230    -1.2731 H       
  51 H51            8.0685    -2.3479    -0.1772 H       
  52 H52            7.3147    -3.5953     0.8445 H       
  53 H53            9.2896    -3.7900    -1.4980 H       
  54 H54            8.7658    -5.2074    -0.5577 H       
  55 H55            8.3099    -4.7779    -3.5456 H       
  56 H56            9.5028    -5.8837    -2.8212 H       
  57 H57            7.6902    -7.1607    -1.7391 H       
  58 H58            5.8384    -5.2045    -3.1776 H       
  59 H59            5.3312    -6.6037    -2.2000 H       
  60 H60            6.4142    -5.6133    -0.2076 H       
  61 H61            5.2109    -4.4940    -0.8907 H       
  62 H62            6.0587    -6.0771    -5.1165 H       
  63 H63            8.0514    -9.6558    -5.8020 H       
  64 H64           -3.2176    -0.6405     0.0290 H       
  65 H65           -3.3614     1.8143     0.0435 H       
  66 H66           -1.3001     3.1631     0.0377 H       
  67 H67            7.2736    -9.8245    -7.8128 H       
  68 H68            6.3150    -9.8900   -10.0771 H       
  69 H69            4.8221    -8.0891   -10.8384 H       
  70 H70            4.2804    -6.2130    -9.3422 H       
  71 H71            5.2240    -6.1323    -7.0720 H       
@<TRIPOS>BOND
   1    1    2 ar
   2    1    3 ar
   3    1   34 ar
   4    2   31 ar
   5    2    6 ar
   6    3    4 ar
   7    3   41 1
   8    4    5 ar
   9    4    8 1
  10    5    6 ar
  11    5    7 1
  12    7   14 ar
  13    7   18 ar
  14    8    9 ar
  15    8   13 ar
  16    9   10 ar
  17    9   42 1
  18   10   11 ar
  19   10   43 1
  20   11   12 ar
  21   11   44 1
  22   12   13 ar
  23   12   45 1
  24   13   46 1
  25   14   15 ar
  26   14   47 1
  27   15   16 ar
  28   15   48 1
  29   16   17 ar
  30   16   19 1
  31   17   18 ar
  32   17   49 1
  33   18   50 1
  34   19   20 1
  35   19   51 1
  36   19   52 1
  37   20   21 1
  38   20   25 1
  39   21   22 1
  40   21   53 1
  41   21   54 1
  42   22   23 1
  43   22   55 1
  44   22   56 1
  45   23   24 1
  46   23   26 1
  47   23   57 1
  48   24   25 1
  49   24   58 1
  50   24   59 1
  51   25   60 1
  52   25   61 1
  53   26   27 1
  54   26   30 2
  55   27   28 2
  56   27   62 1
  57   28   29 1
  58   28   35 1
  59   29   30 1
  60   29   63 1
  61   31   32 ar
  62   32   33 ar
  63   32   64 1
  64   33   34 ar
  65   33   65 1
  66   34   66 1
  67   35   36 ar
  68   35   40 ar
  69   36   37 ar
  70   36   67 1
  71   37   38 ar
  72   37   68 1
  73   38   39 ar
  74   38   69 1
  75   39   40 ar
  76   39   70 1
  77   40   71 1

#	End of record

