#	Name: ASD02508492
#	Creating user name:	WinNT
#	Creation time:	15. 06. 2019 20:24

#	Modifying user name:	WinNT
#	Modification time:	15. 06. 2019 20:24

#	Program:	/corina/corina34_cracker 3.40 0067  02.08.2006

@<TRIPOS>MOLECULE
ASD02508492
  30   32    0    0    0
SMALL
NO_CHARGES


@<TRIPOS>ATOM
   1 N1             1.1479     1.7840     0.1063 N.2     
   2 C2             2.0050     0.7672     0.2822 C.2     
   3 C3             1.3433    -0.3843     0.0608 C.2     
   4 N4             0.0524    -0.0457    -0.2568 N.pl3   
   5 C5            -0.0246     1.3109    -0.2167 C.2     
   6 C6            -0.9843    -0.9263    -0.5632 C.2     
   7 S7             2.0079    -2.0131     0.1592 S.o2    
   8 N8             2.1134    -2.5938    -1.3881 N.am    
   9 C9             2.9808    -1.9903    -2.3036 C.ar    
  10 C10            3.0370    -0.6059    -2.3997 C.ar    
  11 O11            3.3423    -1.8744     0.6276 O.2     
  12 O12            1.0309    -2.8060     0.8196 O.2     
  13 C13            3.7914    -2.7741    -3.1141 C.ar    
  14 C14            4.6479    -2.1762    -4.0183 C.ar    
  15 C15            4.6989    -0.7966    -4.1172 C.ar    
  16 C16            3.8951    -0.0116    -3.3055 C.ar    
  17 Cl17           3.9611     1.7185    -3.4317 Cl      
  18 N18           -2.2240    -0.5859    -0.7238 N.2     
  19 C19           -3.0765    -1.5503    -1.0117 C.2     
  20 C20           -2.5307    -2.7657    -1.0989 C.2     
  21 S21           -0.8032    -2.6113    -0.7890 S.3     
  22 F22            5.5372    -0.2142    -5.0021 F       
  23 H23            3.0464     0.8567     0.5541 H       
  24 H24           -0.9080     1.8986    -0.4183 H       
  25 H25            1.5734    -3.3526    -1.6592 H       
  26 H26            2.4104     0.0057    -1.7675 H       
  27 H27            3.7525    -3.8506    -3.0373 H       
  28 H28            5.2786    -2.7859    -4.6484 H       
  29 H29           -4.1306    -1.3715    -1.1640 H       
  30 H30           -3.0556    -3.6824    -1.3237 H       
@<TRIPOS>BOND
   1    1    2 1
   2    1    5 2
   3    2    3 2
   4    2   23 1
   5    3    4 1
   6    3    7 1
   7    4    5 1
   8    4    6 1
   9    5   24 1
  10    6   18 2
  11    6   21 1
  12    7    8 am
  13    7   11 2
  14    7   12 2
  15    8    9 1
  16    8   25 1
  17    9   13 ar
  18    9   10 ar
  19   10   16 ar
  20   10   26 1
  21   13   14 ar
  22   13   27 1
  23   14   15 ar
  24   14   28 1
  25   15   16 ar
  26   15   22 1
  27   16   17 1
  28   18   19 1
  29   19   20 2
  30   19   29 1
  31   20   21 1
  32   20   30 1

#	End of record

