#	Name: ASD05430313
#	Creating user name:	WinNT
#	Creation time:	15. 06. 2019 21:00

#	Modifying user name:	WinNT
#	Modification time:	15. 06. 2019 21:00

#	Program:	/corina/corina34_cracker 3.40 0067  02.08.2006

@<TRIPOS>MOLECULE
ASD05430313
  58   62    0    0    0
SMALL
NO_CHARGES


@<TRIPOS>ATOM
   1 C1            -0.0397     1.5925     0.0909 C.3     
   2 C2            -0.1012     0.0827     0.1488 C.3     
   3 C3             0.4267    -0.4394    -1.1994 C.3     
   4 C4             1.8321     0.0729    -1.4967 C.3     
   5 C5             1.9100     1.6091    -1.4028 C.3     
   6 C6             1.4670     1.9760    -0.0013 C.3     
   7 O7             1.3751     3.3478     0.3590 O.3     
   8 N8             0.3783     3.3858     1.3857 N.2     
   9 C9            -0.4605     2.3780     1.2925 C.2     
  10 C10            2.2684     1.2070     1.0173 C.ar    
  11 C11            3.5659     0.8256     0.7304 C.ar    
  12 C12            1.7075     0.8885     2.2400 C.ar    
  13 C13            2.4418     0.1842     3.1752 C.ar    
  14 C14            3.7395    -0.2029     2.8870 C.ar    
  15 C15            4.3019     0.1208     1.6639 C.ar    
  16 F16            4.4582    -0.8915     3.8005 F       
  17 C17           -1.5816     2.0841     2.1845 C.2     
  18 C18           -1.8379     2.8912     3.2334 C.2     
  19 C19           -2.9659     2.5954     4.1309 C.ar    
  20 C20           -3.7733     1.4771     3.8973 C.ar    
  21 C21           -3.2299     3.4283     5.2228 C.ar    
  22 C22           -4.2905     3.1459     6.0624 C.ar    
  23 C23           -5.0946     2.0326     5.8199 C.ar    
  24 C24           -4.8290     1.2019     4.7387 C.ar    
  25 N25           -6.1697     1.7478     6.6725 N.pl3   
  26 C26           -6.1292     1.6813     8.0286 C.2     
  27 N27           -7.3246     1.3931     8.4665 N.2     
  28 C28           -8.1607     1.2664     7.4254 C.2     
  29 C29           -7.4623     1.4895     6.2957 C.2     
  30 O30           -4.5499     3.9531     7.1252 O.3     
  31 C31           -3.6854     5.0753     7.3137 C.3     
  32 C32           -9.6292     0.9377     7.5061 C.3     
  33 H33           -0.5674     1.9504    -0.7932 H       
  34 H34            0.5258    -0.2844     0.9613 H       
  35 H35           -1.1311    -0.2424     0.2962 H       
  36 H36            0.4438    -1.5290    -1.1758 H       
  37 H37           -0.2451    -0.1137    -1.9936 H       
  38 H38            2.5283    -0.3628    -0.7801 H       
  39 H39            2.1182    -0.2368    -2.5018 H       
  40 H40            2.9342     1.9423    -1.5703 H       
  41 H41            1.2435     2.0627    -2.1363 H       
  42 H42            4.0043     1.0782    -0.2237 H       
  43 H43            0.6952     1.1906     2.4646 H       
  44 H44            2.0036    -0.0639     4.1307 H       
  45 H45            5.3140    -0.1809     1.4379 H       
  46 H46           -2.2041     1.2204     2.0029 H       
  47 H47           -1.2154     3.7548     3.4150 H       
  48 H48           -3.5694     0.8298     3.0572 H       
  49 H49           -2.6061     4.2900     5.4097 H       
  50 H50           -5.4545     0.3410     4.5543 H       
  51 H51           -5.2545     1.8403     8.6417 H       
  52 H52           -7.8455     1.4630     5.2863 H       
  53 H53           -3.7321     5.7212     6.4369 H       
  54 H54           -4.0024     5.6343     8.1941 H       
  55 H55           -2.6623     4.7263     7.4537 H       
  56 H56          -10.2045     1.8605     7.5809 H       
  57 H57           -9.9295     0.3938     6.6105 H       
  58 H58           -9.8156     0.3210     8.3854 H       
@<TRIPOS>BOND
   1    1    2 1
   2    1    6 1
   3    1    9 1
   4    1   33 1
   5    2    3 1
   6    2   34 1
   7    2   35 1
   8    3    4 1
   9    3   36 1
  10    3   37 1
  11    4    5 1
  12    4   38 1
  13    4   39 1
  14    5    6 1
  15    5   40 1
  16    5   41 1
  17    6    7 1
  18    6   10 1
  19    7    8 1
  20    8    9 2
  21    9   17 1
  22   10   11 ar
  23   10   12 ar
  24   11   15 ar
  25   11   42 1
  26   12   13 ar
  27   12   43 1
  28   13   14 ar
  29   13   44 1
  30   14   15 ar
  31   14   16 1
  32   15   45 1
  33   17   18 2
  34   17   46 1
  35   18   19 1
  36   18   47 1
  37   19   20 ar
  38   19   21 ar
  39   20   24 ar
  40   20   48 1
  41   21   22 ar
  42   21   49 1
  43   22   23 ar
  44   22   30 1
  45   23   24 ar
  46   23   25 1
  47   24   50 1
  48   25   26 1
  49   25   29 1
  50   26   27 2
  51   26   51 1
  52   27   28 1
  53   28   29 2
  54   28   32 1
  55   29   52 1
  56   30   31 1
  57   31   53 1
  58   31   54 1
  59   31   55 1
  60   32   56 1
  61   32   57 1
  62   32   58 1

#	End of record

