#	Name: ASD01915263
#	Creating user name:	WinNT
#	Creation time:	15. 06. 2019 20:05

#	Modifying user name:	WinNT
#	Modification time:	15. 06. 2019 20:05

#	Program:	/corina/corina34_cracker 3.40 0067  02.08.2006

@<TRIPOS>MOLECULE
ASD01915263
  45   47    0    0    0
SMALL
NO_CHARGES


@<TRIPOS>ATOM
   1 C1            -0.0167     1.3823     0.0096 C.ar    
   2 C2             0.0021    -0.0041     0.0020 C.ar    
   3 C3            -1.1955    -0.6939     0.0102 C.ar    
   4 N4            -2.3455    -0.0487     0.0247 N.ar    
   5 C5            -2.4014     1.2688     0.0323 C.ar    
   6 C6            -1.2448     2.0255     0.0307 C.ar    
   7 C7             1.2672     2.1712     0.0016 C.3     
   8 O8             1.6602     2.4279    -1.3481 O.3     
   9 C9             2.8728     3.1742    -1.4685 C.3     
  10 C10            3.1900     3.3855    -2.9265 C.2     
  11 N11            4.2955     4.0687    -3.2836 N.am    
  12 O12            2.4504     2.9407    -3.7786 O.2     
  13 C13            4.6180     4.2828    -4.7009 C.3     
  14 C14            6.0461     3.7932    -4.9610 C.3     
  15 C15            7.0034     4.4842    -3.9872 C.3     
  16 C16            6.6223     4.1207    -2.5503 C.3     
  17 C17            5.1978     4.6189    -2.2628 C.3     
  18 C18            8.4138     4.0305    -4.2627 C.ar    
  19 C19            8.7414     2.6919    -4.1599 C.ar    
  20 C20           10.0350     2.2749    -4.4124 C.ar    
  21 C21           11.0025     3.1976    -4.7678 C.ar    
  22 C22           10.6751     4.5379    -4.8709 C.ar    
  23 C23            9.3793     4.9537    -4.6240 C.ar    
  24 Cl24          12.6272     2.6740    -5.0837 Cl      
  25 Cl25           8.9674     6.6351    -4.7537 Cl      
  26 H26            0.9407    -0.5382    -0.0105 H       
  27 H27           -1.1894    -1.7738     0.0044 H       
  28 H28           -3.3620     1.7622     0.0438 H       
  29 H29           -1.2971     3.1042     0.0372 H       
  30 H30            1.1158     3.1170     0.5220 H       
  31 H31            2.0476     1.6004     0.5050 H       
  32 H32            2.7547     4.1408    -0.9786 H       
  33 H33            3.6865     2.6243    -0.9957 H       
  34 H34            3.9205     3.7222    -5.3232 H       
  35 H35            4.5476     5.3450    -4.9353 H       
  36 H36            6.0933     2.7143    -4.8135 H       
  37 H37            6.3324     4.0338    -5.9849 H       
  38 H38            6.9374     5.5643    -4.1182 H       
  39 H39            6.6641     3.0387    -2.4255 H       
  40 H40            7.3186     4.5944    -1.8583 H       
  41 H41            5.1775     5.7081    -2.2983 H       
  42 H42            4.8833     4.2774    -1.2766 H       
  43 H43            7.9866     1.9713    -3.8818 H       
  44 H44           10.2905     1.2287    -4.3319 H       
  45 H45           11.4301     5.2587    -5.1482 H       
@<TRIPOS>BOND
   1    1    2 ar
   2    1    7 1
   3    1    6 ar
   4    2    3 ar
   5    2   26 1
   6    3    4 ar
   7    3   27 1
   8    4    5 ar
   9    5    6 ar
  10    5   28 1
  11    6   29 1
  12    7    8 1
  13    7   30 1
  14    7   31 1
  15    8    9 1
  16    9   10 1
  17    9   32 1
  18    9   33 1
  19   10   11 am
  20   10   12 2
  21   11   13 1
  22   11   17 1
  23   13   14 1
  24   13   34 1
  25   13   35 1
  26   14   15 1
  27   14   36 1
  28   14   37 1
  29   15   16 1
  30   15   18 1
  31   15   38 1
  32   16   17 1
  33   16   39 1
  34   16   40 1
  35   17   41 1
  36   17   42 1
  37   18   19 ar
  38   18   23 ar
  39   19   20 ar
  40   19   43 1
  41   20   21 ar
  42   20   44 1
  43   21   22 ar
  44   21   24 1
  45   22   23 ar
  46   22   45 1
  47   23   25 1

#	End of record

