#	Name: ASD07930421
#	Creating user name:	WinNT
#	Creation time:	15. 06. 2019 21:12

#	Modifying user name:	WinNT
#	Modification time:	15. 06. 2019 21:12

#	Program:	/corina/corina34_cracker 3.40 0067  02.08.2006

@<TRIPOS>MOLECULE
ASD07930421
  44   46    0    0    0
SMALL
NO_CHARGES


@<TRIPOS>ATOM
   1 N1            -0.0130     1.3007    -0.0268 N.2     
   2 N2             1.1950    -0.6998    -0.0381 N.pl3   
   3 C3             1.4417    -1.7358     0.9704 C.3     
   4 C4             0.3487    -2.8090     0.8712 C.3     
   5 S5            -1.2691    -1.9956     1.0589 S.o2    
   6 N6            -1.1743    -0.7352    -0.0269 N.am    
   7 C7             0.0042    -0.0026    -0.0306 C.2     
   8 C8            -2.2804    -0.4164    -0.9331 C.3     
   9 C9             1.4157    -1.1075     2.3652 C.3     
  10 C10            2.7888    -2.3654     0.7260 C.ar    
  11 C11            3.9244    -1.5808     0.7621 C.ar    
  12 C12            5.1628    -2.1664     0.5362 C.ar    
  13 C13            5.2137    -3.5252     0.2812 C.ar    
  14 C14            4.0297    -4.2542     0.2599 C.ar    
  15 N15            2.8685    -3.6602     0.4855 N.ar    
  16 O16           -2.3104    -2.8222     0.5571 O.2     
  17 O17           -1.3730    -1.3665     2.3288 O.2     
  18 N18            4.0664    -5.6232     0.0038 N.am    
  19 C19            2.9371    -6.3543     0.0843 C.2     
  20 O20            1.9056    -5.8394     0.4713 O.2     
  21 C21            2.9523    -7.7780    -0.2966 C.2     
  22 C22            1.8947    -8.6345    -0.2667 C.2     
  23 O23            2.3442    -9.8261    -0.6916 O.3     
  24 C24            3.6485    -9.7051    -0.9763 C.2     
  25 N25            4.0247    -8.4822    -0.7500 N.2     
  26 C26            4.5368   -10.8114    -1.4844 C.3     
  27 H27            0.8205     1.7968    -0.0295 H       
  28 H28            1.8694    -0.5023    -0.7067 H       
  29 H29            0.4028    -3.2997    -0.1006 H       
  30 H30            0.4839    -3.5454     1.6633 H       
  31 H31           -2.9484     0.2990    -0.4535 H       
  32 H32           -1.8842     0.0159    -1.8519 H       
  33 H33           -2.8315    -1.3270    -1.1681 H       
  34 H34            0.4402    -0.6543     2.5415 H       
  35 H35            1.5991    -1.8780     3.1142 H       
  36 H36            2.1894    -0.3428     2.4337 H       
  37 H37            3.8500    -0.5224     0.9637 H       
  38 H38            6.0659    -1.5746     0.5587 H       
  39 H39            6.1602    -4.0132     0.1007 H       
  40 H40            4.9048    -6.0501    -0.2324 H       
  41 H41            0.8863    -8.4001     0.0406 H       
  42 H42            3.9547   -11.7273    -1.5856 H       
  43 H43            4.9461   -10.5318    -2.4552 H       
  44 H44            5.3523   -10.9751    -0.7798 H       
@<TRIPOS>BOND
   1    1    7 2
   2    1   27 1
   3    2    3 1
   4    2    7 1
   5    2   28 1
   6    3    4 1
   7    3    9 1
   8    3   10 1
   9    4    5 1
  10    4   29 1
  11    4   30 1
  12    5    6 am
  13    5   16 2
  14    5   17 2
  15    6    7 1
  16    6    8 1
  17    8   31 1
  18    8   32 1
  19    8   33 1
  20    9   34 1
  21    9   35 1
  22    9   36 1
  23   10   11 ar
  24   10   15 ar
  25   11   12 ar
  26   11   37 1
  27   12   13 ar
  28   12   38 1
  29   13   14 ar
  30   13   39 1
  31   14   15 ar
  32   14   18 1
  33   18   19 am
  34   18   40 1
  35   19   20 2
  36   19   21 1
  37   21   22 2
  38   21   25 1
  39   22   23 1
  40   22   41 1
  41   23   24 1
  42   24   25 2
  43   24   26 1
  44   26   42 1
  45   26   43 1
  46   26   44 1

#	End of record

