#	Name: ASD03090744
#	Creating user name:	WinNT
#	Creation time:	15. 06. 2019 20:29

#	Modifying user name:	WinNT
#	Modification time:	15. 06. 2019 20:29

#	Program:	/corina/corina34_cracker 3.40 0067  02.08.2006

@<TRIPOS>MOLECULE
ASD03090744
  56   59    0    0    0
SMALL
NO_CHARGES


@<TRIPOS>ATOM
   1 C1             2.5834    -0.2617     1.1111 C.3     
   2 C2             1.7623    -1.4615     0.6343 C.3     
   3 O3             1.8341    -1.5520    -0.7900 O.3     
   4 C4             1.1539    -2.5716    -1.3788 C.ar    
   5 C5             0.4336    -3.4649    -0.6031 C.ar    
   6 C6            -0.2580    -4.5011    -1.2034 C.ar    
   7 C7            -0.2330    -4.6490    -2.5776 C.ar    
   8 C8             0.4839    -3.7620    -3.3588 C.ar    
   9 C9             1.1752    -2.7171    -2.7644 C.ar    
  10 N10            1.9026    -1.8167    -3.5541 N.am    
  11 C11            2.2658    -2.1594    -4.8060 C.2     
  12 O12            2.0486    -3.2804    -5.2150 O.2     
  13 C13            2.9416    -1.1497    -5.6975 C.3     
  14 C14            4.4077    -0.8212    -5.4082 C.3     
  15 C15            4.0388    -1.6576    -6.6351 C.3     
  16 C16            4.3609    -3.1293    -6.5964 C.ar    
  17 C17            5.1033    -3.6471    -5.5516 C.ar    
  18 C18            5.3988    -4.9970    -5.5161 C.ar    
  19 C19            4.9515    -5.8292    -6.5252 C.ar    
  20 C20            4.2084    -5.3116    -7.5695 C.ar    
  21 C21            3.9092    -3.9624    -7.6028 C.ar    
  22 C22            5.2745    -7.3007    -6.4870 C.3     
  23 C23            4.1583    -1.0012    -7.9863 C.ar    
  24 C24            5.0774    -1.4727    -8.9050 C.ar    
  25 C25            5.1871    -0.8705   -10.1444 C.ar    
  26 C26            4.3774     0.2029   -10.4654 C.ar    
  27 C27            3.4577     0.6739    -9.5471 C.ar    
  28 C28            3.3450     0.0689    -8.3092 C.ar    
  29 C29            4.4977     0.8601   -11.8162 C.3     
  30 H30            3.6224    -0.3886     0.8071 H       
  31 H31            2.1841     0.6508     0.6685 H       
  32 H32            2.5286    -0.1927     2.1976 H       
  33 H33            2.1615    -2.3740     1.0770 H       
  34 H34            0.7232    -1.3346     0.9384 H       
  35 H35            0.4123    -3.3524     0.4708 H       
  36 H36           -0.8188    -5.1969    -0.5970 H       
  37 H37           -0.7747    -5.4598    -3.0420 H       
  38 H38            0.5019    -3.8802    -4.4322 H       
  39 H39            2.1447    -0.9468    -3.1998 H       
  40 H40            2.3062    -0.3406    -6.0576 H       
  41 H41            4.7368     0.2039    -5.5784 H       
  42 H42            4.8833    -1.3354    -4.5731 H       
  43 H43            5.4527    -2.9969    -4.7632 H       
  44 H44            5.9794    -5.4015    -4.7001 H       
  45 H45            3.8592    -5.9617    -8.3581 H       
  46 H46            3.3286    -3.5580    -8.4187 H       
  47 H47            4.4885    -7.8314    -5.9498 H       
  48 H48            5.3417    -7.6845    -7.5050 H       
  49 H49            6.2270    -7.4506    -5.9786 H       
  50 H50            5.7100    -2.3113    -8.6542 H       
  51 H51            5.9056    -1.2384   -10.8618 H       
  52 H52            2.8253     1.5127    -9.7977 H       
  53 H53            2.6265     0.4368    -7.5918 H       
  54 H54            3.8208     0.3735   -12.5185 H       
  55 H55            4.2366     1.9149   -11.7316 H       
  56 H56            5.5225     0.7670   -12.1756 H       
@<TRIPOS>BOND
   1    1    2 1
   2    1   30 1
   3    1   31 1
   4    1   32 1
   5    2    3 1
   6    2   33 1
   7    2   34 1
   8    3    4 1
   9    4    5 ar
  10    4    9 ar
  11    5    6 ar
  12    5   35 1
  13    6    7 ar
  14    6   36 1
  15    7    8 ar
  16    7   37 1
  17    8    9 ar
  18    8   38 1
  19    9   10 1
  20   10   11 am
  21   10   39 1
  22   11   12 2
  23   11   13 1
  24   13   14 1
  25   13   15 1
  26   13   40 1
  27   14   15 1
  28   14   41 1
  29   14   42 1
  30   15   16 1
  31   15   23 1
  32   16   17 ar
  33   16   21 ar
  34   17   18 ar
  35   17   43 1
  36   18   19 ar
  37   18   44 1
  38   19   20 ar
  39   19   22 1
  40   20   21 ar
  41   20   45 1
  42   21   46 1
  43   22   47 1
  44   22   48 1
  45   22   49 1
  46   23   24 ar
  47   23   28 ar
  48   24   25 ar
  49   24   50 1
  50   25   26 ar
  51   25   51 1
  52   26   27 ar
  53   26   29 1
  54   27   28 ar
  55   27   52 1
  56   28   53 1
  57   29   54 1
  58   29   55 1
  59   29   56 1

#	End of record

