#	Name: ASD02508220
#	Creating user name:	WinNT
#	Creation time:	15. 06. 2019 20:24

#	Modifying user name:	WinNT
#	Modification time:	15. 06. 2019 20:24

#	Program:	/corina/corina34_cracker 3.40 0067  02.08.2006

@<TRIPOS>MOLECULE
ASD02508220
  51   54    0    0    0
SMALL
NO_CHARGES


@<TRIPOS>ATOM
   1 C1            -0.0168     1.3904     0.0097 C.ar    
   2 C2             0.0021    -0.0041     0.0020 C.ar    
   3 C3            -1.1922    -0.7077     0.0096 C.ar    
   4 C4            -2.3933    -0.0260     0.0248 C.ar    
   5 C5            -2.4110     1.3580     0.0319 C.ar    
   6 C6            -1.2261     2.0677     0.0299 C.ar    
   7 S7            -3.9102    -0.9224     0.0344 S.o2    
   8 N8            -4.6586    -0.6040     1.4770 N.am    
   9 C9            -5.5849     0.5297     1.6048 C.3     
  10 N10            1.3140     1.8071    -0.0008 N.am    
  11 C11            2.0846     0.7014    -0.0141 C.2     
  12 O12            1.3018    -0.3890    -0.0125 O.3     
  13 O13           -4.7245    -0.3441    -0.9763 O.2     
  14 O14           -3.5621    -2.2999     0.0585 O.2     
  15 C15            1.7879     3.1933     0.0021 C.3     
  16 O16            3.3005     0.6929    -0.0257 O.2     
  17 C17           -6.9290     0.0079     2.1276 C.3     
  18 N18           -6.6791    -0.8386     3.3028 N.am    
  19 C19           -5.7527    -1.9723     3.1750 C.3     
  20 C20           -4.4130    -1.4538     2.6506 C.3     
  21 S21           -7.4275    -0.5201     4.7453 S.o2    
  22 C22           -8.9447    -1.4160     4.7547 C.ar    
  23 C23           -8.9841    -2.7063     5.2544 C.ar    
  24 C24          -10.0992    -0.8281     4.2675 C.ar    
  25 C25          -11.2910    -1.5331     4.2753 C.ar    
  26 C26          -11.3280    -2.8234     4.7693 C.ar    
  27 C27          -10.1770    -3.4094     5.2612 C.ar    
  28 F28           -7.8591    -3.2795     5.7349 F       
  29 F29          -10.0635     0.4333     3.7850 F       
  30 O30           -6.6135    -1.0990     5.7560 O.2     
  31 O31           -7.7751     0.8575     4.7215 O.2     
  32 C32           -3.7268     2.0925     0.0474 C.3     
  33 H33           -1.1834    -1.7877     0.0034 H       
  34 H34           -1.2417     3.1476     0.0359 H       
  35 H35           -5.1774     1.2579     2.3061 H       
  36 H36           -5.7279     0.9969     0.6304 H       
  37 H37            1.9152     3.5316     1.0305 H       
  38 H38            2.7426     3.2521    -0.5205 H       
  39 H39            1.0584     3.8277    -0.5014 H       
  40 H40           -7.5628     0.8484     2.4103 H       
  41 H41           -7.4203    -0.5793     1.3517 H       
  42 H42           -5.6097    -2.4395     4.1493 H       
  43 H43           -6.1603    -2.7004     2.4736 H       
  44 H44           -3.7802    -2.2952     2.3684 H       
  45 H45           -3.9201    -0.8657     3.4247 H       
  46 H46          -12.1921    -1.0745     3.8956 H       
  47 H47          -12.2580    -3.3724     4.7753 H       
  48 H48          -10.2071    -4.4177     5.6469 H       
  49 H49           -4.0348     2.2644     1.0788 H       
  50 H50           -3.6149     3.0493    -0.4626 H       
  51 H51           -4.4825     1.4951    -0.4627 H       
@<TRIPOS>BOND
   1    1    2 ar
   2    1   10 1
   3    1    6 ar
   4    2    3 ar
   5    2   12 1
   6    3    4 ar
   7    3   33 1
   8    4    5 ar
   9    4    7 1
  10    5    6 ar
  11    5   32 1
  12    6   34 1
  13    7    8 am
  14    7   13 2
  15    7   14 2
  16    8    9 1
  17    8   20 1
  18    9   17 1
  19    9   35 1
  20    9   36 1
  21   10   11 am
  22   10   15 1
  23   11   12 1
  24   11   16 2
  25   15   37 1
  26   15   38 1
  27   15   39 1
  28   17   18 1
  29   17   40 1
  30   17   41 1
  31   18   19 1
  32   18   21 am
  33   19   20 1
  34   19   42 1
  35   19   43 1
  36   20   44 1
  37   20   45 1
  38   21   22 1
  39   21   30 2
  40   21   31 2
  41   22   23 ar
  42   22   24 ar
  43   23   28 1
  44   23   27 ar
  45   24   25 ar
  46   24   29 1
  47   25   26 ar
  48   25   46 1
  49   26   27 ar
  50   26   47 1
  51   27   48 1
  52   32   49 1
  53   32   50 1
  54   32   51 1

#	End of record

