#	Name: ASD01811285
#	Creating user name:	WinNT
#	Creation time:	15. 06. 2019 19:26

#	Modifying user name:	WinNT
#	Modification time:	15. 06. 2019 19:26

#	Program:	/corina/corina34_cracker 3.40 0067  02.08.2006

@<TRIPOS>MOLECULE
ASD01811285
  65   69    0    0    0
SMALL
NO_CHARGES


@<TRIPOS>ATOM
   1 C1             4.4853     6.0915    -3.4064 C.ar    
   2 C2             3.3943     5.3790    -2.9047 C.ar    
   3 C3             3.5981     4.1803    -2.2532 C.ar    
   4 C4             4.8800     3.6837    -2.0962 C.ar    
   5 C5             5.9656     4.3846    -2.5909 C.ar    
   6 C6             5.7763     5.5845    -3.2445 C.ar    
   7 N7             6.6884     0.2743    -0.3569 N.am    
   8 C8             5.9618     0.0424    -1.6127 C.3     
   9 C9             5.7764     1.3834    -2.3298 C.3     
  10 C10            5.0948     2.3738    -1.3829 C.3     
  11 C11            5.9805     2.6008    -0.1556 C.3     
  12 C12            6.1682     1.2736     0.5862 C.3     
  13 C13            7.8077    -0.4206    -0.0728 C.2     
  14 C14            8.5795    -0.1116     1.1500 C.ar    
  15 C15            9.9364     0.2076     1.0594 C.ar    
  16 C16           10.6582     0.4969     2.2001 C.ar    
  17 C17           10.0453     0.4725     3.4374 C.ar    
  18 C18            8.6895     0.1550     3.5423 C.ar    
  19 C19            7.9537    -0.1324     2.3944 C.ar    
  20 O20            8.1828    -1.3014    -0.8218 O.2     
  21 C21            8.0350     0.1290     4.8680 C.2     
  22 N22            8.6032     0.3822     6.0237 N.2     
  23 C23           10.8415     0.7887     4.6772 C.3     
  24 C24            4.2808     7.3336    -4.0890 C.1     
  25 N25            4.1185     8.3190    -4.6305 N.1     
  26 N26            7.7412     0.2684     6.9700 N.2     
  27 C27            6.5703    -0.0643     6.4760 C.2     
  28 N28            6.7143    -0.1593     5.1222 N.pl3   
  29 N29            5.4060    -0.2747     7.1943 N.pl3   
  30 C30            4.1716    -0.6436     6.4969 C.3     
  31 C31            3.2230    -1.4111     7.4448 C.3     
  32 C32            3.3719     0.6193     6.1073 C.3     
  33 O33            1.9878     0.2526     6.2964 O.3     
  34 C34            1.9624    -0.5210     7.5157 C.3     
  35 C35           10.6139     0.2357    -0.2864 C.3     
  36 H36            2.3932     5.7656    -3.0262 H       
  37 H37            2.7552     3.6283    -1.8643 H       
  38 H38            6.9635     3.9913    -2.4649 H       
  39 H39            6.6245     6.1304    -3.6304 H       
  40 H40            6.5344    -0.6348    -2.2464 H       
  41 H41            4.9868    -0.3937    -1.3955 H       
  42 H42            6.7494     1.7747    -2.6267 H       
  43 H43            5.1560     1.2401    -3.2145 H       
  44 H44            4.1328     1.9705    -1.0667 H       
  45 H45            6.9516     2.9807    -0.4730 H       
  46 H46            5.5053     3.3240     0.5072 H       
  47 H47            5.2099     0.9379     0.9826 H       
  48 H48            6.8769     1.4088     1.4032 H       
  49 H49           11.7071     0.7430     2.1245 H       
  50 H50            6.9039    -0.3744     2.4696 H       
  51 H51           10.7934     1.8591     4.8767 H       
  52 H52           10.4271     0.2421     5.5243 H       
  53 H53           11.8800     0.4934     4.5272 H       
  54 H54            6.0293    -0.3881     4.4746 H       
  55 H55            5.4075    -0.1779     8.1594 H       
  56 H56            4.3969    -1.2428     5.6147 H       
  57 H57            2.9774    -2.3887     7.0301 H       
  58 H58            3.6725    -1.5160     8.4323 H       
  59 H59            3.6363     1.4520     6.7591 H       
  60 H60            3.5567     0.8788     5.0649 H       
  61 H61            1.0643    -1.1375     7.5552 H       
  62 H62            2.0106     0.1368     8.3835 H       
  63 H63           10.4585     1.2093    -0.7512 H       
  64 H64           11.6822     0.0603    -0.1591 H       
  65 H65           10.1912    -0.5421    -0.9223 H       
@<TRIPOS>BOND
   1    1    2 ar
   2    1    6 ar
   3    1   24 1
   4    2    3 ar
   5    2   36 1
   6    3    4 ar
   7    3   37 1
   8    4    5 ar
   9    4   10 1
  10    5    6 ar
  11    5   38 1
  12    6   39 1
  13    7    8 1
  14    7   12 1
  15    7   13 am
  16    8    9 1
  17    8   40 1
  18    8   41 1
  19    9   10 1
  20    9   42 1
  21    9   43 1
  22   10   11 1
  23   10   44 1
  24   11   12 1
  25   11   45 1
  26   11   46 1
  27   12   47 1
  28   12   48 1
  29   13   14 1
  30   13   20 2
  31   14   15 ar
  32   14   19 ar
  33   15   16 ar
  34   15   35 1
  35   16   17 ar
  36   16   49 1
  37   17   18 ar
  38   17   23 1
  39   18   19 ar
  40   18   21 1
  41   19   50 1
  42   21   22 2
  43   21   28 1
  44   22   26 1
  45   23   51 1
  46   23   52 1
  47   23   53 1
  48   24   25 3
  49   26   27 2
  50   27   28 1
  51   27   29 1
  52   28   54 1
  53   29   30 1
  54   29   55 1
  55   30   31 1
  56   30   32 1
  57   30   56 1
  58   31   34 1
  59   31   57 1
  60   31   58 1
  61   32   33 1
  62   32   59 1
  63   32   60 1
  64   33   34 1
  65   34   61 1
  66   34   62 1
  67   35   63 1
  68   35   64 1
  69   35   65 1

#	End of record

