#	Name: ASD08170793
#	Creating user name:	WinNT
#	Creation time:	15. 06. 2019 21:17

#	Modifying user name:	WinNT
#	Modification time:	15. 06. 2019 21:17

#	Program:	/corina/corina34_cracker 3.40 0067  02.08.2006

@<TRIPOS>MOLECULE
ASD08170793
  87   92    0    0    0
SMALL
NO_CHARGES


@<TRIPOS>ATOM
   1 C1             1.3220     2.6096     0.1224 C.2     
   2 N2             0.9581     1.3210     0.2765 N.am    
   3 C3             1.9147     0.3145     0.2006 C.2     
   4 S4             1.6148    -1.3633     0.3738 S.3     
   5 C5             3.3329    -1.6758     0.1248 C.2     
   6 C6             3.9988    -3.0277     0.1200 C.3     
   7 C7             6.4059    -6.5940     3.4382 C.3     
   8 C8             6.7850    -6.7904     4.8835 C.2     
   9 S9             8.3050    -6.3052     5.6356 S.3     
  10 C10            7.7438    -6.9310     7.1283 C.2     
  11 N11            3.1828     0.4902    -0.0189 N.2     
  12 N12            3.9192    -0.5348    -0.0536 N.2     
  13 N13            6.0509    -7.3406     5.7978 N.2     
  14 N14            6.5516    -7.4165     6.9543 N.2     
  15 O15            2.4837     2.8913    -0.0825 O.2     
  16 C16            0.2844     3.6998     0.1984 C.3     
  17 N17            8.4480    -6.9213     8.3275 N.am    
  18 C18            7.8947    -7.4472     9.4382 C.2     
  19 C19            8.6578    -7.4367    10.7376 C.3     
  20 O20            6.7826    -7.9289     9.3919 O.2     
  21 C21            4.4494    -3.3793     1.5393 C.3     
  22 C22            5.7072    -5.2429     3.2732 C.3     
  23 N23            0.9420     4.9828     0.4802 N.3     
  24 C24            8.3856    -6.1479    11.4696 C.ar    
  25 N25            8.2286    -8.5708    11.5668 N.3     
  26 C26            8.9691    -8.6056    12.8356 C.3     
  27 C27            8.4386    -9.7506    13.7016 C.3     
  28 N28            8.5849   -11.0194    12.9748 N.3     
  29 C29            7.8443   -10.9847    11.7060 C.3     
  30 C30            8.3749    -9.8397    10.8400 C.3     
  31 C31            9.3565    -5.1653    11.5238 C.ar    
  32 C32            9.1068    -3.9831    12.1953 C.ar    
  33 C33            7.8860    -3.7833    12.8123 C.ar    
  34 C34            6.9148    -4.7654    12.7574 C.ar    
  35 C35            7.1629    -5.9458    12.0822 C.ar    
  36 C36           -0.4481     3.7887    -1.1156 C.ar    
  37 C37           -1.6927     3.2033    -1.2541 C.ar    
  38 C38            0.1221     4.4606    -2.1807 C.ar    
  39 C39           -0.5497     4.5421    -3.3860 C.ar    
  40 C40           -1.7916     3.9514    -3.5264 C.ar    
  41 C41           -2.3645     3.2848    -2.4595 C.ar    
  42 C42            1.5680     4.9729     1.8098 C.3     
  43 C43            2.3078     6.2942     2.0322 C.3     
  44 N44            1.3599     7.4103     1.9079 N.3     
  45 C45            0.7339     7.4202     0.5784 C.3     
  46 C46           -0.0059     6.0990     0.3559 C.3     
  47 S47            5.2510    -5.0066     1.5335 S.3     
  48 H48            0.0289     1.0957     0.4403 H       
  49 H49            3.2930    -3.7792    -0.2338 H       
  50 H50            4.8654    -3.0035    -0.5408 H       
  51 H51            7.3040    -6.6165     2.8208 H       
  52 H52            5.7316    -7.3921     3.1278 H       
  53 H53           -0.4243     3.4721     0.9947 H       
  54 H54            9.3375    -6.5360     8.3645 H       
  55 H55            9.7252    -7.5198    10.5328 H       
  56 H56            5.1552    -2.6279     1.8930 H       
  57 H57            3.5828    -3.4035     2.2000 H       
  58 H58            4.8092    -5.2205     3.8906 H       
  59 H59            6.3816    -4.4448     3.5836 H       
  60 H60           10.0287    -8.7629    12.6341 H       
  61 H61            8.8350    -7.6600    13.3610 H       
  62 H62            9.0059    -9.7965    14.6312 H       
  63 H63            7.3857    -9.5792    13.9258 H       
  64 H64            9.5578   -11.2373    12.8198 H       
  65 H65            7.9784   -11.9302    11.1806 H       
  66 H66            6.7847   -10.8273    11.9075 H       
  67 H67            7.8076    -9.7938     9.9104 H       
  68 H68            9.4277   -10.0110    10.6157 H       
  69 H69           10.3102    -5.3215    11.0417 H       
  70 H70            9.8656    -3.2158    12.2381 H       
  71 H71            7.6912    -2.8599    13.3375 H       
  72 H72            5.9612    -4.6094    13.2397 H       
  73 H73            6.4041    -6.7132    12.0393 H       
  74 H74           -2.1400     2.6819    -0.4208 H       
  75 H75            1.0924     4.9220    -2.0710 H       
  76 H76           -0.1045     5.0676    -4.2179 H       
  77 H77           -2.3167     4.0154    -4.4680 H       
  78 H78           -3.3348     2.8233    -2.5692 H       
  79 H79            0.7989     4.8538     2.5729 H       
  80 H80            2.2746     4.1454     1.8728 H       
  81 H81            2.7486     6.3008     3.0291 H       
  82 H82            3.0947     6.4005     1.2856 H       
  83 H83            0.6621     7.3749     2.6358 H       
  84 H84            0.0273     8.2477     0.5153 H       
  85 H85            1.5030     7.5393    -0.1848 H       
  86 H86           -0.4467     6.0924    -0.6410 H       
  87 H87           -0.7929     5.9926     1.1026 H       
@<TRIPOS>BOND
   1    1    2 am
   2    1   15 2
   3    1   16 1
   4    2    3 1
   5    2   48 1
   6    3    4 1
   7    3   11 2
   8    4    5 1
   9    5    6 1
  10    5   12 2
  11    6   21 1
  12    6   49 1
  13    6   50 1
  14    7    8 1
  15    7   22 1
  16    7   51 1
  17    7   52 1
  18    8    9 1
  19    8   13 2
  20    9   10 1
  21   10   17 1
  22   10   14 2
  23   11   12 1
  24   13   14 1
  25   16   23 1
  26   16   36 1
  27   16   53 1
  28   17   18 am
  29   17   54 1
  30   18   19 1
  31   18   20 2
  32   19   24 1
  33   19   25 1
  34   19   55 1
  35   21   47 1
  36   21   56 1
  37   21   57 1
  38   22   47 1
  39   22   58 1
  40   22   59 1
  41   23   42 1
  42   23   46 1
  43   24   31 ar
  44   24   35 ar
  45   25   26 1
  46   25   30 1
  47   26   27 1
  48   26   60 1
  49   26   61 1
  50   27   28 1
  51   27   62 1
  52   27   63 1
  53   28   29 1
  54   28   64 1
  55   29   30 1
  56   29   65 1
  57   29   66 1
  58   30   67 1
  59   30   68 1
  60   31   32 ar
  61   31   69 1
  62   32   33 ar
  63   32   70 1
  64   33   34 ar
  65   33   71 1
  66   34   35 ar
  67   34   72 1
  68   35   73 1
  69   36   37 ar
  70   36   38 ar
  71   37   41 ar
  72   37   74 1
  73   38   39 ar
  74   38   75 1
  75   39   40 ar
  76   39   76 1
  77   40   41 ar
  78   40   77 1
  79   41   78 1
  80   42   43 1
  81   42   79 1
  82   42   80 1
  83   43   44 1
  84   43   81 1
  85   43   82 1
  86   44   45 1
  87   44   83 1
  88   45   46 1
  89   45   84 1
  90   45   85 1
  91   46   86 1
  92   46   87 1

#	End of record

