#	Name: ASD01001105
#	Creating user name:	WinNT
#	Creation time:	15. 06. 2019 18:55

#	Modifying user name:	WinNT
#	Modification time:	15. 06. 2019 18:55

#	Program:	/corina/corina34_cracker 3.40 0067  02.08.2006

@<TRIPOS>MOLECULE
ASD01001105
  65   68    0    0    0
SMALL
NO_CHARGES


@<TRIPOS>ATOM
   1 C1            -1.7704     1.7515     0.5243 C.2     
   2 N2            -2.2848     1.3070     1.7270 N.pl3   
   3 N3            -2.9861     0.0951     1.7552 N.2     
   4 C4            -3.1580    -0.6066     0.6856 C.2     
   5 N5            -2.6731    -0.2213    -0.5388 N.am    
   6 C6            -1.9877     0.9360    -0.6714 C.2     
   7 C7            -1.1323     2.9496     0.7564 C.2     
   8 C8            -1.2689     3.2230     2.1199 C.2     
   9 C9            -1.9735     2.2065     2.6805 C.2     
  10 O10           -1.5541     1.2856    -1.7543 O.2     
  11 C11           -2.9051    -1.0676    -1.7119 C.3     
  12 C12           -4.1076    -0.5617    -2.4663 C.ar    
  13 C13           -3.9759     0.4939    -3.3491 C.ar    
  14 C14           -5.0789     0.9579    -4.0410 C.ar    
  15 C15           -6.3136     0.3661    -3.8506 C.ar    
  16 C16           -6.4451    -0.6901    -2.9685 C.ar    
  17 C17           -5.3412    -1.1570    -2.2798 C.ar    
  18 C18           -3.9220    -1.9017     0.7856 C.3     
  19 N19           -2.9832    -3.0260     0.7566 N.am    
  20 C20           -4.7100    -1.9290     2.0968 C.3     
  21 C21           -1.8966    -3.0984     1.7365 C.3     
  22 C22           -3.1191    -3.9936    -0.1717 C.2     
  23 C23           -2.3740    -5.2622    -0.0312 C.ar    
  24 O24           -3.8545    -3.8229    -1.1244 O.2     
  25 C25           -0.6328    -2.4719     1.1440 C.3     
  26 H26           -2.2420     2.1314     3.7239 H       
  27 C27           -2.8321    -6.4180    -0.6664 C.ar    
  28 C28           -2.1326    -7.5987    -0.5317 C.ar    
  29 C29           -0.9778    -7.6395     0.2320 C.ar    
  30 C30           -0.5184    -6.4961     0.8645 C.ar    
  31 C31           -1.2062    -5.3082     0.7325 C.ar    
  32 Cl32          -0.1029    -9.1298     0.3975 Cl      
  33 C33           -5.5283    -3.2195     2.1732 C.3     
  34 N34           -0.5716    -2.7606    -0.2951 N.3     
  35 C35           -0.6651    -0.9575     1.3594 C.3     
  36 C36            0.5996    -3.0592     1.8348 C.3     
  37 H37           -0.6234     3.5602     0.0252 H       
  38 H38           -0.8821     4.0890     2.6364 H       
  39 H39           -2.0298    -1.0370    -2.3608 H       
  40 H40           -3.0832    -2.0937    -1.3902 H       
  41 H41           -3.0113     0.9563    -3.4978 H       
  42 H42           -4.9762     1.7831    -4.7302 H       
  43 H43           -7.1755     0.7291    -4.3907 H       
  44 H44           -7.4098    -1.1523    -2.8195 H       
  45 H45           -5.4439    -1.9822    -1.5907 H       
  46 H46           -4.6117    -1.9825    -0.0545 H       
  47 H47           -4.0177    -1.8874     2.9377 H       
  48 H48           -5.3807    -1.0707     2.1356 H       
  49 H49           -2.1830    -2.5557     2.6374 H       
  50 H50           -1.7021    -4.1413     1.9870 H       
  51 H51           -3.7326    -6.3875    -1.2618 H       
  52 H52           -2.4862    -8.4935    -1.0223 H       
  53 H53            0.3825    -6.5340     1.4590 H       
  54 H54           -0.8469    -4.4172     1.2259 H       
  55 H55           -6.2206    -3.2611     1.3323 H       
  56 H56           -4.8576    -4.0779     2.1345 H       
  57 H57           -6.0897    -3.2390     3.1073 H       
  58 H58            0.2265    -2.3129    -0.7201 H       
  59 H59           -0.5608    -3.7553    -0.4642 H       
  60 H60           -1.0860    -0.7390     2.3408 H       
  61 H61            0.3485    -0.5607     1.3022 H       
  62 H62           -1.2807    -0.4939     0.5886 H       
  63 H63            0.6226    -4.1381     1.6813 H       
  64 H64            1.5000    -2.6129     1.4126 H       
  65 H65            0.5543    -2.8449     2.9025 H       
@<TRIPOS>BOND
   1    1    2 1
   2    1    7 2
   3    1    6 1
   4    2    3 1
   5    2    9 1
   6    3    4 2
   7    4    5 1
   8    4   18 1
   9    5    6 am
  10    5   11 1
  11    6   10 2
  12    7    8 1
  13    7   37 1
  14    8    9 2
  15    8   38 1
  16    9   26 1
  17   11   12 1
  18   11   39 1
  19   11   40 1
  20   12   13 ar
  21   12   17 ar
  22   13   14 ar
  23   13   41 1
  24   14   15 ar
  25   14   42 1
  26   15   16 ar
  27   15   43 1
  28   16   17 ar
  29   16   44 1
  30   17   45 1
  31   18   19 1
  32   18   20 1
  33   18   46 1
  34   19   21 1
  35   19   22 am
  36   20   33 1
  37   20   47 1
  38   20   48 1
  39   21   25 1
  40   21   49 1
  41   21   50 1
  42   22   23 1
  43   22   24 2
  44   23   27 ar
  45   23   31 ar
  46   25   34 1
  47   25   35 1
  48   25   36 1
  49   27   28 ar
  50   27   51 1
  51   28   29 ar
  52   28   52 1
  53   29   30 ar
  54   29   32 1
  55   30   31 ar
  56   30   53 1
  57   31   54 1
  58   33   55 1
  59   33   56 1
  60   33   57 1
  61   34   58 1
  62   34   59 1
  63   35   60 1
  64   35   61 1
  65   35   62 1
  66   36   63 1
  67   36   64 1
  68   36   65 1

#	End of record

