#	Name: ASD06770006
#	Creating user name:	WinNT
#	Creation time:	15. 06. 2019 21:08

#	Modifying user name:	WinNT
#	Modification time:	15. 06. 2019 21:08

#	Program:	/corina/corina34_cracker 3.40 0067  02.08.2006

@<TRIPOS>MOLECULE
ASD06770006
  40   40    0    0    0
SMALL
NO_CHARGES


@<TRIPOS>ATOM
   1 C1            -0.0187     1.5258     0.0104 C.3     
   2 C2             0.0021    -0.0041     0.0020 C.3     
   3 C3             0.7421    -0.5109     1.2415 C.3     
   4 C4             2.1775     0.0187     1.2307 C.3     
   5 C5             2.1567     1.5485     1.2391 C.3     
   6 C6             1.4167     2.0553    -0.0004 C.3     
   7 C7            -0.7475     2.0250    -1.2105 C.2     
   8 O8            -1.2036     1.2379    -2.0057 O.2     
   9 O9            -0.8901     3.3440    -1.4144 O.3     
  10 O10            2.8463    -0.4422     0.0550 O.3     
  11 Si11           4.4541    -0.6425     0.2419 Si      
  12 C12            4.7719    -1.8966     1.5824 C.3     
  13 C13            5.1953    -1.2428    -1.3584 C.3     
  14 C14            5.2316     0.9829     0.7152 C.3     
  15 C15           -1.6033     3.7526    -2.6114 C.3     
  16 C16           -1.6647     5.2802    -2.6719 C.3     
  17 H17           -0.5289     1.8773     0.9072 H       
  18 H18           -1.0205    -0.3814     0.0098 H       
  19 H19            0.5123    -0.3556    -0.8948 H       
  20 H20            0.2319    -0.1594     2.1383 H       
  21 H21            0.7568    -1.6008     1.2356 H       
  22 H22            2.7046    -0.3424     2.1137 H       
  23 H23            1.6465     1.9000     2.1359 H       
  24 H24            3.1793     1.9258     1.2314 H       
  25 H25            1.9269     1.7038    -0.8972 H       
  26 H26            1.4019     3.1452     0.0056 H       
  27 H27            4.3170    -2.8477     1.3055 H       
  28 H28            5.8464    -2.0306     1.7074 H       
  29 H29            4.3383    -1.5454     2.5187 H       
  30 H30            5.0094    -0.5091    -2.1427 H       
  31 H31            6.2698    -1.3767    -1.2335 H       
  32 H32            4.7404    -2.1939    -1.6354 H       
  33 H33            4.7980     1.3342     1.6515 H       
  34 H34            6.3061     0.8490     0.8402 H       
  35 H35            5.0457     1.7167    -0.0691 H       
  36 H36           -1.0827     3.3748    -3.4913 H       
  37 H37           -2.6155     3.3490    -2.5868 H       
  38 H38           -2.1853     5.6581    -1.7920 H       
  39 H39           -0.6525     5.6838    -2.6965 H       
  40 H40           -2.2001     5.5870    -3.5705 H       
@<TRIPOS>BOND
   1    1    2 1
   2    1    6 1
   3    1    7 1
   4    1   17 1
   5    2    3 1
   6    2   18 1
   7    2   19 1
   8    3    4 1
   9    3   20 1
  10    3   21 1
  11    4    5 1
  12    4   10 1
  13    4   22 1
  14    5    6 1
  15    5   23 1
  16    5   24 1
  17    6   25 1
  18    6   26 1
  19    7    8 2
  20    7    9 1
  21    9   15 1
  22   10   11 1
  23   11   12 1
  24   11   13 1
  25   11   14 1
  26   12   27 1
  27   12   28 1
  28   12   29 1
  29   13   30 1
  30   13   31 1
  31   13   32 1
  32   14   33 1
  33   14   34 1
  34   14   35 1
  35   15   16 1
  36   15   36 1
  37   15   37 1
  38   16   38 1
  39   16   39 1
  40   16   40 1

#	End of record

