#	Name: ASD07300524
#	Creating user name:	WinNT
#	Creation time:	15. 06. 2019 21:09

#	Modifying user name:	WinNT
#	Modification time:	15. 06. 2019 21:09

#	Program:	/corina/corina34_cracker 3.40 0067  02.08.2006

@<TRIPOS>MOLECULE
ASD07300524
  39   43    0    0    0
SMALL
NO_CHARGES


@<TRIPOS>ATOM
   1 C1            -0.4120     1.2425    -0.7393 C.ar    
   2 C2            -0.4840    -0.1241    -1.0267 C.ar    
   3 C3             0.6786    -0.8801    -1.0308 C.ar    
   4 C4             1.8773    -0.2420    -0.7464 C.ar    
   5 C5             1.8748     1.1125    -0.4711 C.ar    
   6 N6             0.7540     1.8080    -0.4743 N.ar    
   7 C7            -2.5369     0.7131    -1.1110 C.2     
   8 N8            -1.7122     1.7307    -0.8012 N.am    
   9 N9            -1.8239    -0.4198    -1.2591 N.am    
  10 O10           -3.7432     0.8038    -1.2416 O.2     
  11 C11           -2.0996     3.0605    -0.5779 C.ar    
  12 C12           -3.4378     3.4186    -0.6712 C.ar    
  13 C13           -3.8192     4.7271    -0.4520 C.ar    
  14 C14           -2.8642     5.6854    -0.1376 C.ar    
  15 C15           -1.5257     5.3268    -0.0439 C.ar    
  16 C16           -1.1454     4.0171    -0.2582 C.ar    
  17 N17           -3.2507     7.0124     0.0843 N.pl3   
  18 O18           -5.0107     8.5222     0.7564 O.3     
  19 C19           -4.4950     7.2893     0.6062 C.2     
  20 N20           -5.3480     6.3910     1.0282 N.2     
  21 C21           -6.4660     7.0263     1.4743 C.ar    
  22 C22           -6.2447     8.4007     1.2974 C.ar    
  23 C23           -7.6713     6.5853     2.0217 C.ar    
  24 C24           -8.6337     7.5028     2.3838 C.ar    
  25 C25           -8.4110     8.8594     2.2073 C.ar    
  26 C26           -7.2228     9.3091     1.6667 C.ar    
  27 H27            0.6516    -1.9375    -1.2491 H       
  28 H28            2.8031    -0.7981    -0.7399 H       
  29 H29            2.8072     1.6103    -0.2492 H       
  30 H30           -2.1831    -1.2925    -1.4832 H       
  31 H31           -4.1804     2.6734    -0.9156 H       
  32 H32           -4.8601     5.0057    -0.5252 H       
  33 H33           -0.7828     6.0718     0.2001 H       
  34 H34           -0.1051     3.7374    -0.1814 H       
  35 H35           -2.6422     7.7369    -0.1294 H       
  36 H36           -7.8494     5.5292     2.1607 H       
  37 H37           -9.5672     7.1627     2.8073 H       
  38 H38           -9.1723     9.5696     2.4943 H       
  39 H39           -7.0563    10.3677     1.5321 H       
@<TRIPOS>BOND
   1    1    2 ar
   2    1    6 ar
   3    1    8 1
   4    2    3 ar
   5    2    9 1
   6    3    4 ar
   7    3   27 1
   8    4    5 ar
   9    4   28 1
  10    5    6 ar
  11    5   29 1
  12    7    8 am
  13    7    9 am
  14    7   10 2
  15    8   11 1
  16    9   30 1
  17   11   12 ar
  18   11   16 ar
  19   12   13 ar
  20   12   31 1
  21   13   14 ar
  22   13   32 1
  23   14   15 ar
  24   14   17 1
  25   15   16 ar
  26   15   33 1
  27   16   34 1
  28   17   19 1
  29   17   35 1
  30   18   19 1
  31   18   22 1
  32   19   20 2
  33   20   21 1
  34   21   22 ar
  35   21   23 ar
  36   22   26 ar
  37   23   24 ar
  38   23   36 1
  39   24   25 ar
  40   24   37 1
  41   25   26 ar
  42   25   38 1
  43   26   39 1

#	End of record

