#	Name: ASD01410825
#	Creating user name:	WinNT
#	Creation time:	15. 06. 2019 19:18

#	Modifying user name:	WinNT
#	Modification time:	15. 06. 2019 19:18

#	Program:	/corina/corina34_cracker 3.40 0067  02.08.2006

@<TRIPOS>MOLECULE
ASD01410825
  56   57    0    0    0
SMALL
NO_CHARGES


@<TRIPOS>ATOM
   1 C1             0.9595     1.0952     2.5484 C.3     
   2 C2             0.6994    -0.2664     1.8633 C.3     
   3 N3             0.1550    -1.1220     2.9378 N.am    
   4 C4            -0.5003    -0.2610     3.9300 C.3     
   5 C5            -0.2703     1.2015     3.4910 C.3     
   6 O6             2.1778     1.0700     3.2949 O.3     
   7 C7            -1.9773    -0.5578     3.9703 C.2     
   8 O8            -2.4435    -1.4039     3.2446 O.2     
   9 O9            -2.7748     0.1178     4.8125 O.3     
  10 C10           -4.1868    -0.2205     4.7974 C.3     
  11 C11            2.0290    -0.8802     1.4109 C.3     
  12 C12            1.1679    -3.1963     2.0236 C.3     
  13 C13            0.2879    -2.4580     2.9926 C.2     
  14 O14           -0.3140    -3.0806     3.8418 O.2     
  15 C15            0.3273    -4.2294     1.2706 C.3     
  16 C16           -0.3356    -3.5647     0.0624 C.3     
  17 C17            1.2282    -5.3706     0.7943 C.3     
  18 C18           -0.7514    -4.7860     2.2021 C.3     
  19 N19            1.7800    -2.2842     1.0600 N.am    
  20 O20            2.4811    -1.8666    -1.1258 O.3     
  21 C21            2.8338    -2.4241    -2.4193 C.3     
  22 C22            1.6383    -3.1919    -2.9869 C.3     
  23 C23            3.2139    -1.2923    -3.3760 C.3     
  24 C24            4.0210    -3.3757    -2.2579 C.3     
  25 C25            2.1195    -2.7361    -0.1635 C.2     
  26 O26            2.0993    -3.9281    -0.3981 O.2     
  27 H27            0.9662     1.9055     1.8194 H       
  28 H28           -0.0057    -0.1673     1.0380 H       
  29 H29           -0.0598    -0.4266     4.9131 H       
  30 H30           -0.0431     1.8309     4.3514 H       
  31 H31           -1.1373     1.5828     2.9516 H       
  32 H32            2.3824     1.9026     3.7420 H       
  33 H33           -4.5928    -0.0409     3.8019 H       
  34 H34           -4.3112    -1.2720     5.0563 H       
  35 H35           -4.7162     0.3974     5.5227 H       
  36 H36            2.4059    -0.3435     0.5403 H       
  37 H37            2.7554    -0.8257     2.2218 H       
  38 H38            1.9541    -3.7107     2.5762 H       
  39 H39            0.4329    -3.1682    -0.6012 H       
  40 H40           -0.9345    -4.3007    -0.4740 H       
  41 H41           -0.9774    -2.7517     0.4017 H       
  42 H42            2.2207    -5.2561     1.2301 H       
  43 H43            0.8022    -6.3242     1.1062 H       
  44 H44            1.3035    -5.3446    -0.2928 H       
  45 H45           -1.3932    -3.9729     2.5414 H       
  46 H46           -1.3503    -5.5219     1.6656 H       
  47 H47           -0.2791    -5.2595     3.0628 H       
  48 H48            0.7926    -2.5139    -3.1019 H       
  49 H49            1.9031    -3.6104    -3.9579 H       
  50 H50            1.3675    -3.9982    -2.3054 H       
  51 H51            4.0656    -0.7453    -2.9716 H       
  52 H52            3.4787    -1.7108    -4.3470 H       
  53 H53            2.3682    -0.6143    -3.4910 H       
  54 H54            3.7502    -4.1821    -1.5763 H       
  55 H55            4.2858    -3.7943    -3.2289 H       
  56 H56            4.8727    -2.8288    -1.8535 H       
@<TRIPOS>BOND
   1    1    2 1
   2    1    6 1
   3    1    5 1
   4    1   27 1
   5    2    3 1
   6    2   11 1
   7    2   28 1
   8    3    4 1
   9    3   13 am
  10    4    5 1
  11    4    7 1
  12    4   29 1
  13    5   30 1
  14    5   31 1
  15    6   32 1
  16    7    8 2
  17    7    9 1
  18    9   10 1
  19   10   33 1
  20   10   34 1
  21   10   35 1
  22   11   19 1
  23   11   36 1
  24   11   37 1
  25   12   13 1
  26   12   15 1
  27   12   19 1
  28   12   38 1
  29   13   14 2
  30   15   16 1
  31   15   17 1
  32   15   18 1
  33   16   39 1
  34   16   40 1
  35   16   41 1
  36   17   42 1
  37   17   43 1
  38   17   44 1
  39   18   45 1
  40   18   46 1
  41   18   47 1
  42   19   25 am
  43   20   21 1
  44   20   25 1
  45   21   22 1
  46   21   23 1
  47   21   24 1
  48   22   48 1
  49   22   49 1
  50   22   50 1
  51   23   51 1
  52   23   52 1
  53   23   53 1
  54   24   54 1
  55   24   55 1
  56   24   56 1
  57   25   26 2

#	End of record

