#	Name: ASD01910406
#	Creating user name:	WinNT
#	Creation time:	15. 06. 2019 19:55

#	Modifying user name:	WinNT
#	Modification time:	15. 06. 2019 19:55

#	Program:	/corina/corina34_cracker 3.40 0067  02.08.2006

@<TRIPOS>MOLECULE
ASD01910406
  40   42    0    0    0
SMALL
NO_CHARGES


@<TRIPOS>ATOM
   1 C1             0.0274     1.4277     0.0727 C.ar    
   2 C2             0.0391    -0.0042     0.0540 C.1     
   3 C3             0.0486    -1.1780     0.0386 C.1     
   4 C4             0.0603    -2.6099     0.0199 C.ar    
   5 C5            -1.1423    -3.3184    -0.0799 C.ar    
   6 C6            -1.1304    -4.6839    -0.0982 C.ar    
   7 C7             0.0829    -5.3739    -0.0173 C.ar    
   8 C8             1.2847    -4.6667     0.0828 C.ar    
   9 C9             1.2747    -3.3010     0.0954 C.ar    
  10 C10            0.0949    -6.8500    -0.0371 C.2     
  11 O11           -0.7599    -7.4730     0.5624 O.2     
  12 C12            1.2267     2.1385     0.1722 C.ar    
  13 C13            1.2076     3.5174     0.1892 C.ar    
  14 C14            0.0049     4.1972     0.1080 C.ar    
  15 C15           -1.1866     3.5002     0.0097 C.ar    
  16 C16           -1.1829     2.1213    -0.0143 C.ar    
  17 N17            1.0535    -7.5070    -0.7197 N.am    
  18 C18            1.1577    -8.9726    -0.6534 C.3     
  19 C19            1.2136    -9.5218    -2.0828 C.3     
  20 N20            2.2963    -8.8548    -2.8183 N.3     
  21 C21            2.0450    -7.4130    -2.9449 C.3     
  22 C22            2.0194    -6.7778    -1.5556 C.3     
  23 H23           -2.0796    -2.7855    -0.1420 H       
  24 H24           -2.0585    -5.2309    -0.1748 H       
  25 H25            2.2215    -5.2003     0.1460 H       
  26 H26            2.2032    -2.7548     0.1724 H       
  27 H27            2.1660     1.6093     0.2360 H       
  28 H28            2.1334     4.0680     0.2664 H       
  29 H29           -0.0038     5.2770     0.1217 H       
  30 H30           -2.1213     4.0375    -0.0529 H       
  31 H31           -2.1135     1.5787    -0.0913 H       
  32 H32            2.0655    -9.2513    -0.1182 H       
  33 H33            0.2868    -9.3787    -0.1389 H       
  34 H34            1.4016   -10.5951    -2.0530 H       
  35 H35            0.2638    -9.3323    -2.5827 H       
  36 H36            3.1899    -9.0293    -2.3833 H       
  37 H37            2.8359    -6.9569    -3.5403 H       
  38 H38            1.0836    -7.2529    -3.4328 H       
  39 H39            1.7205    -5.7327    -1.6363 H       
  40 H40            3.0092    -6.8447    -1.1041 H       
@<TRIPOS>BOND
   1    1    2 1
   2    1   12 ar
   3    1   16 ar
   4    2    3 3
   5    3    4 1
   6    4    5 ar
   7    4    9 ar
   8    5    6 ar
   9    5   23 1
  10    6    7 ar
  11    6   24 1
  12    7    8 ar
  13    7   10 1
  14    8    9 ar
  15    8   25 1
  16    9   26 1
  17   10   11 2
  18   10   17 am
  19   12   13 ar
  20   12   27 1
  21   13   14 ar
  22   13   28 1
  23   14   15 ar
  24   14   29 1
  25   15   16 ar
  26   15   30 1
  27   16   31 1
  28   17   18 1
  29   17   22 1
  30   18   19 1
  31   18   32 1
  32   18   33 1
  33   19   20 1
  34   19   34 1
  35   19   35 1
  36   20   21 1
  37   20   36 1
  38   21   22 1
  39   21   37 1
  40   21   38 1
  41   22   39 1
  42   22   40 1

#	End of record

