#	Name: ASD01812511
#	Creating user name:	WinNT
#	Creation time:	15. 06. 2019 19:28

#	Modifying user name:	WinNT
#	Modification time:	15. 06. 2019 19:28

#	Program:	/corina/corina34_cracker 3.40 0067  02.08.2006

@<TRIPOS>MOLECULE
ASD01812511
  49   53    0    0    0
SMALL
NO_CHARGES


@<TRIPOS>ATOM
   1 C1            -0.0177     1.4559     0.0100 C.ar    
   2 C2             0.0021    -0.0041     0.0020 C.ar    
   3 C3            -1.2308    -0.7010     0.0105 C.ar    
   4 C4            -2.4445     0.0179     0.0269 C.ar    
   5 C5            -2.4564     1.3721     0.0343 C.ar    
   6 C6            -1.2628     2.1110     0.0315 C.ar    
   7 C7            -1.2223    -2.1043     0.0029 C.ar    
   8 C8            -0.0349    -2.7735    -0.0125 C.ar    
   9 C9             1.1743    -2.0857    -0.0203 C.ar    
  10 C10            1.2024    -0.7215    -0.0133 C.ar    
  11 N11            1.1113     2.1837     0.0032 N.2     
  12 C12            1.0868     3.4848     0.0109 C.2     
  13 N13           -0.0647     4.2045     0.0262 N.am    
  14 C14           -1.2647     3.5791     0.0393 C.2     
  15 C15           -3.7504    -0.7341     0.0359 C.3     
  16 C16           -4.1096    -1.1001     1.4529 C.ar    
  17 C17           -3.6800    -2.2951     1.9953 C.ar    
  18 C18           -4.8710    -0.2372     2.2287 C.ar    
  19 C19           -5.1784    -0.6122     3.5252 C.ar    
  20 C20           -4.7173    -1.8320     4.0031 C.ar    
  21 N21           -3.9894    -2.6253     3.2346 N.ar    
  22 O22           -2.3064     4.2100     0.0573 O.2     
  23 O23           -5.0114    -2.2109     5.2722 O.3     
  24 C24           -4.5082    -3.4766     5.7045 C.3     
  25 C25           -0.0099     5.6056     0.0342 C.2     
  26 N26           -1.0359     6.4166     0.1419 N.2     
  27 N27           -0.5577     7.7328     0.1078 N.pl3   
  28 C28            0.7849     7.6865    -0.0236 C.2     
  29 C29            1.1531     6.3861    -0.0657 C.2     
  30 C30            1.7101     8.8735    -0.1025 C.3     
  31 H31           -3.4021     1.8934     0.0465 H       
  32 H32           -2.1530    -2.6520     0.0096 H       
  33 H33           -0.0328    -3.8535    -0.0183 H       
  34 H34            2.1022    -2.6382    -0.0318 H       
  35 H35            2.1472    -0.1983    -0.0195 H       
  36 H36            2.0264     4.0172     0.0051 H       
  37 H37           -4.5344    -0.1058    -0.3870 H       
  38 H38           -3.6513    -1.6415    -0.5598 H       
  39 H39           -3.0836    -2.9682     1.3973 H       
  40 H40           -5.2154     0.7056     1.8301 H       
  41 H41           -5.7685     0.0352     4.1568 H       
  42 H42           -4.8147    -3.6567     6.7349 H       
  43 H43           -4.9063    -4.2637     5.0642 H       
  44 H44           -3.4199    -3.4747     5.6442 H       
  45 H45           -1.0973     8.5368     0.1643 H       
  46 H46            2.1623     6.0138    -0.1617 H       
  47 H47            2.0332     9.1497     0.9012 H       
  48 H48            2.5803     8.6164    -0.7065 H       
  49 H49            1.1859     9.7129    -0.5594 H       
@<TRIPOS>BOND
   1    1    2 ar
   2    1   11 1
   3    1    6 ar
   4    2   10 ar
   5    2    3 ar
   6    3    4 ar
   7    3    7 ar
   8    4    5 ar
   9    4   15 1
  10    5    6 ar
  11    5   31 1
  12    6   14 1
  13    7    8 ar
  14    7   32 1
  15    8    9 ar
  16    8   33 1
  17    9   10 ar
  18    9   34 1
  19   10   35 1
  20   11   12 2
  21   12   13 1
  22   12   36 1
  23   13   14 am
  24   13   25 1
  25   14   22 2
  26   15   16 1
  27   15   37 1
  28   15   38 1
  29   16   18 ar
  30   16   17 ar
  31   17   21 ar
  32   17   39 1
  33   18   19 ar
  34   18   40 1
  35   19   20 ar
  36   19   41 1
  37   20   21 ar
  38   20   23 1
  39   23   24 1
  40   24   42 1
  41   24   43 1
  42   24   44 1
  43   25   26 2
  44   25   29 1
  45   26   27 1
  46   27   28 1
  47   27   45 1
  48   28   29 2
  49   28   30 1
  50   29   46 1
  51   30   47 1
  52   30   48 1
  53   30   49 1

#	End of record

