#	Name: ASD01900790
#	Creating user name:	WinNT
#	Creation time:	15. 06. 2019 19:52

#	Modifying user name:	WinNT
#	Modification time:	15. 06. 2019 19:52

#	Program:	/corina/corina34_cracker 3.40 0067  02.08.2006

@<TRIPOS>MOLECULE
ASD01900790
  25   27    0    0    0
SMALL
NO_CHARGES


@<TRIPOS>ATOM
   1 C1            -0.0162     1.3869     0.0160 C.ar    
   2 N2             0.0021    -0.0041     0.0020 N.pl3   
   3 C3             1.2144    -0.6848    -0.1186 C.2     
   4 C4            -1.2336     2.0604     0.0245 C.ar    
   5 N5             1.1252     2.0580     0.0264 N.ar    
   6 C6             1.1520     3.3772     0.0398 C.ar    
   7 C7            -0.0183     4.1092     0.0433 C.ar    
   8 C8            -1.2371     3.4433     0.0384 C.ar    
   9 N9             1.2701    -1.9953    -0.0309 N.2     
  10 C10            2.4603    -2.5488    -0.1576 C.2     
  11 S11            3.5435    -1.2323    -0.4055 S.3     
  12 N12            2.3335    -0.0417    -0.3280 N.2     
  13 C13            2.7934    -3.9884    -0.0991 C.2     
  14 C14            4.0385    -4.5367    -0.2339 C.2     
  15 C15            1.8854    -5.0471     0.1121 C.2     
  16 N16            2.5582    -6.1664     0.0973 N.2     
  17 N17            3.9098    -5.8722    -0.1181 N.pl3   
  18 H18           -0.8278    -0.5008     0.0761 H       
  19 H19           -2.1632     1.5107     0.0201 H       
  20 H20            2.1020     3.8909     0.0484 H       
  21 H21            0.0135     5.1887     0.0546 H       
  22 H22           -2.1667     3.9932     0.0410 H       
  23 H23            4.9584    -3.9968    -0.4029 H       
  24 H24            0.8202    -4.9491     0.2608 H       
  25 H25            4.6301    -6.5194    -0.1746 H       
@<TRIPOS>BOND
   1    1    2 1
   2    1    4 ar
   3    1    5 ar
   4    2    3 1
   5    2   18 1
   6    3    9 1
   7    3   12 2
   8    4    8 ar
   9    4   19 1
  10    5    6 ar
  11    6    7 ar
  12    6   20 1
  13    7    8 ar
  14    7   21 1
  15    8   22 1
  16    9   10 2
  17   10   11 1
  18   10   13 1
  19   11   12 1
  20   13   14 2
  21   13   15 1
  22   14   17 1
  23   14   23 1
  24   15   16 2
  25   15   24 1
  26   16   17 1
  27   17   25 1

#	End of record

