#	Name: ASD01820184
#	Creating user name:	WinNT
#	Creation time:	15. 06. 2019 19:36

#	Modifying user name:	WinNT
#	Modification time:	15. 06. 2019 19:36

#	Program:	/corina/corina34_cracker 3.40 0067  02.08.2006

@<TRIPOS>MOLECULE
ASD01820184
  93   96    0    0    0
SMALL
NO_CHARGES


@<TRIPOS>ATOM
   1 C1             0.3526     6.0319     2.2452 C.ar    
   2 C2             0.9966     4.8860     2.7537 C.ar    
   3 C3            -0.0339     3.8271     2.7938 C.2     
   4 N4            -1.1915     4.3380     2.3369 N.am    
   5 C5            -1.0489     5.6321     1.9984 C.2     
   6 C6            -2.4436     3.5855     2.2272 C.3     
   7 C7            -3.2348     3.7191     3.5299 C.3     
   8 C8            -4.5425     2.9332     3.4153 C.3     
   9 N9            -5.3021     3.0615     4.6661 N.4     
  10 C10           -6.5577     2.3070     4.5561 C.3     
  11 C11           -7.3488     2.4406     5.8589 C.3     
  12 C12           -8.6566     1.6547     5.7443 C.3     
  13 C13           -9.4477     1.7884     7.0470 C.3     
  14 C14          -10.7555     1.0025     6.9324 C.3     
  15 C15          -11.5466     1.1361     8.2352 C.3     
  16 N16          -12.8022     0.3816     8.1251 N.4     
  17 C17          -13.5618     0.5099     9.3759 C.3     
  18 C18          -15.0475     0.2737     9.0969 C.3     
  19 N19          -17.2357    -0.0037    10.1534 N.am    
  20 O20           -1.9236     6.3499     1.5572 O.2     
  21 O21            0.1361     2.6865     3.1747 O.2     
  22 C22          -15.8131     0.2224    10.4205 C.3     
  23 C23          -17.8104    -1.2170    10.0672 C.2     
  24 C24          -19.2509    -1.0371     9.7887 C.ar    
  25 C25          -19.4598     0.3556     9.7218 C.ar    
  26 C26          -18.1402     0.9746     9.9676 C.2     
  27 C27          -20.3159    -1.9031     9.6026 C.ar    
  28 C28          -21.5807    -1.3933     9.3516 C.ar    
  29 C29          -21.7854    -0.0283     9.2860 C.ar    
  30 C30          -20.7288     0.8505     9.4699 C.ar    
  31 O31          -17.2410    -2.2819    10.1963 O.2     
  32 O32          -17.9096     2.1667     9.9902 O.2     
  33 C33          -13.5983     0.9153     7.0119 C.3     
  34 C34          -12.5021    -1.0350     7.8776 C.3     
  35 C35           -4.5060     2.5278     5.7794 C.3     
  36 C36           -5.6022     4.4781     4.9137 C.3     
  37 C37            1.0652     7.2096     2.0864 C.ar    
  38 C38            2.4076     7.2520     2.4293 C.ar    
  39 C39            3.0394     6.1280     2.9276 C.ar    
  40 C40            2.3392     4.9431     3.0918 C.ar    
  41 C41            3.1838     8.5322     2.2571 C.3     
  42 C42          -15.5925     1.4152     8.2363 C.3     
  43 C43          -15.2224    -1.0529     8.3549 C.3     
  44 H44           -3.0343     3.9815     1.4011 H       
  45 H45           -2.2210     2.5344     2.0435 H       
  46 H46           -2.6441     3.3231     4.3560 H       
  47 H47           -3.4574     4.7702     3.7136 H       
  48 H48           -5.1332     3.3293     2.5893 H       
  49 H49           -4.3199     1.8821     3.2316 H       
  50 H50           -7.1484     2.7030     3.7301 H       
  51 H51           -6.3351     1.2559     4.3724 H       
  52 H52           -6.7582     2.0446     6.6849 H       
  53 H53           -7.5715     3.4917     6.0425 H       
  54 H54           -9.2473     2.0508     4.9182 H       
  55 H55           -8.4339     0.6037     5.5606 H       
  56 H56           -8.8570     1.3923     7.8731 H       
  57 H57           -9.6704     2.8395     7.2307 H       
  58 H58          -11.3461     1.3985     6.1064 H       
  59 H59          -10.5328    -0.0486     6.7487 H       
  60 H60          -10.9559     0.7401     9.0612 H       
  61 H61          -11.7692     2.1872     8.4189 H       
  62 H62          -13.2053    -0.2279    10.0948 H       
  63 H63          -13.4234     1.5111     9.7840 H       
  64 H64          -15.4248    -0.5908    11.0337 H       
  65 H65          -15.6885     1.1675    10.9492 H       
  66 H66          -20.1617    -2.9709     9.6524 H       
  67 H67          -22.4116    -2.0678     9.2061 H       
  68 H68          -22.7752     0.3567     9.0899 H       
  69 H69          -20.8947     1.9164     9.4175 H       
  70 H70          -12.9850     0.9520     6.1115 H       
  71 H71          -14.4594     0.2699     6.8388 H       
  72 H72          -13.9411     1.9200     7.2592 H       
  73 H73          -12.0154    -1.4619     8.7544 H       
  74 H74          -13.4288    -1.5732     7.6783 H       
  75 H75          -11.8396    -1.1209     7.0163 H       
  76 H76           -3.5744     3.0877     5.8610 H       
  77 H77           -5.0697     2.6230     6.7075 H       
  78 H78           -4.2834     1.4767     5.5957 H       
  79 H79           -6.1929     4.8741     4.0877 H       
  80 H80           -6.1658     4.5733     5.8418 H       
  81 H81           -4.6705     5.0380     4.9953 H       
  82 H82            0.5769     8.0906     1.6969 H       
  83 H83            4.0858     6.1734     3.1908 H       
  84 H84            2.8378     4.0681     3.4820 H       
  85 H85            3.1180     9.1226     3.1710 H       
  86 H86            4.2281     8.2988     2.0497 H       
  87 H87            2.7666     9.1010     1.4262 H       
  88 H88          -15.4120     1.1951     7.1841 H       
  89 H89          -16.6640     1.5193     8.4070 H       
  90 H90          -15.0899     2.3444     8.5046 H       
  91 H91          -14.5233    -1.7876     8.7543 H       
  92 H92          -16.2428    -1.4121     8.4885 H       
  93 H93          -15.0257    -0.9040     7.2932 H       
@<TRIPOS>BOND
   1    1    2 ar
   2    1   37 ar
   3    1    5 1
   4    2    3 1
   5    2   40 ar
   6    3    4 am
   7    3   21 2
   8    4    5 am
   9    4    6 1
  10    5   20 2
  11    6    7 1
  12    6   44 1
  13    6   45 1
  14    7    8 1
  15    7   46 1
  16    7   47 1
  17    8    9 1
  18    8   48 1
  19    8   49 1
  20    9   10 1
  21    9   35 1
  22    9   36 1
  23   10   11 1
  24   10   50 1
  25   10   51 1
  26   11   12 1
  27   11   52 1
  28   11   53 1
  29   12   13 1
  30   12   54 1
  31   12   55 1
  32   13   14 1
  33   13   56 1
  34   13   57 1
  35   14   15 1
  36   14   58 1
  37   14   59 1
  38   15   16 1
  39   15   60 1
  40   15   61 1
  41   16   17 1
  42   16   33 1
  43   16   34 1
  44   17   18 1
  45   17   62 1
  46   17   63 1
  47   18   22 1
  48   18   42 1
  49   18   43 1
  50   19   23 am
  51   19   22 1
  52   19   26 am
  53   22   64 1
  54   22   65 1
  55   23   24 1
  56   23   31 2
  57   24   25 ar
  58   24   27 ar
  59   25   26 1
  60   25   30 ar
  61   26   32 2
  62   27   28 ar
  63   27   66 1
  64   28   29 ar
  65   28   67 1
  66   29   30 ar
  67   29   68 1
  68   30   69 1
  69   33   70 1
  70   33   71 1
  71   33   72 1
  72   34   73 1
  73   34   74 1
  74   34   75 1
  75   35   76 1
  76   35   77 1
  77   35   78 1
  78   36   79 1
  79   36   80 1
  80   36   81 1
  81   37   38 ar
  82   37   82 1
  83   38   39 ar
  84   38   41 1
  85   39   40 ar
  86   39   83 1
  87   40   84 1
  88   41   85 1
  89   41   86 1
  90   41   87 1
  91   42   88 1
  92   42   89 1
  93   42   90 1
  94   43   91 1
  95   43   92 1
  96   43   93 1

#	End of record

