#	Name: ASD01883453
#	Creating user name:	WinNT
#	Creation time:	15. 06. 2019 19:46

#	Modifying user name:	WinNT
#	Modification time:	15. 06. 2019 19:46

#	Program:	/corina/corina34_cracker 3.40 0067  02.08.2006

@<TRIPOS>MOLECULE
ASD01883453
  66   67    0    0    0
SMALL
NO_CHARGES


@<TRIPOS>ATOM
   1 N1            -0.0080     1.3271     0.0354 N.am    
   2 C2            -0.3623     0.6471    -1.0708 C.2     
   3 C3            -1.5938    -0.0487    -1.1070 C.2     
   4 C4            -2.4239    -0.0108     0.0261 C.2     
   5 C5            -1.9981     0.7175     1.1524 C.2     
   6 C6            -0.8092     1.3586     1.1319 C.2     
   7 O7             0.3768     0.6309    -2.0406 O.2     
   8 C8            -1.9868    -0.7769    -2.2757 C.1     
   9 N9            -3.6308    -0.6731     0.0341 N.pl3   
  10 C10           -4.8918     0.0702     0.1608 C.3     
  11 C11           -5.6944    -0.5154     1.3268 C.3     
  12 C12           -5.8707    -2.0207     1.1144 C.3     
  13 C13           -4.4985    -2.6976     1.0843 C.3     
  14 C14           -3.6827    -2.1362    -0.0901 C.3     
  15 C15            1.2701     2.0427     0.0594 C.3     
  16 C16            1.0645     3.4711    -0.4488 C.3     
  17 C17            2.3993     4.2185    -0.4237 C.3     
  18 C18            3.3655     3.5704    -1.4174 C.3     
  19 C19            2.1725     5.6808    -0.8126 C.3     
  20 C20           -6.7015    -2.6033     2.2596 C.3     
  21 N21           -6.9723    -4.0227     1.9953 N.3     
  22 C22           -7.5591    -4.6749     3.1735 C.3     
  23 C23           -7.5956    -6.1657     2.9564 C.ar    
  24 C24           -7.8374    -4.1835     0.8190 C.3     
  25 C25           -6.5233    -6.9468     3.3452 C.ar    
  26 C26           -6.5558    -8.3141     3.1470 C.ar    
  27 C27           -7.6630    -8.9017     2.5587 C.ar    
  28 C28           -8.7364    -8.1184     2.1698 C.ar    
  29 C29           -8.7038    -6.7519     2.3738 C.ar    
  30 F30           -7.6957   -10.2382     2.3641 F       
  31 N31           -2.2985    -1.3546    -3.2029 N.1     
  32 H32           -2.6200     0.7607     2.0343 H       
  33 H33           -0.4929     1.9141     2.0024 H       
  34 H34           -4.6785     1.1212     0.3555 H       
  35 H35           -5.4655    -0.0236    -0.7613 H       
  36 H36           -5.1602    -0.3399     2.2606 H       
  37 H37           -6.6729    -0.0372     1.3715 H       
  38 H38           -6.3831    -2.1964     0.1685 H       
  39 H39           -3.9756    -2.5016     2.0204 H       
  40 H40           -4.6258    -3.7726     0.9564 H       
  41 H41           -4.1593    -2.4118    -1.0309 H       
  42 H42           -2.6709    -2.5405    -0.0585 H       
  43 H43            1.6512     2.0716     1.0802 H       
  44 H44            1.9865     1.5287    -0.5814 H       
  45 H45            0.6835     3.4422    -1.4696 H       
  46 H46            0.3482     3.9852     0.1920 H       
  47 H47            2.8236     4.1709     0.5793 H       
  48 H48            4.3164     4.1029    -1.3995 H       
  49 H49            3.5271     2.5287    -1.1403 H       
  50 H50            2.9412     3.6181    -2.4203 H       
  51 H51            1.4842     6.1424    -0.1046 H       
  52 H52            3.1235     6.2132    -0.7946 H       
  53 H53            1.7483     5.7284    -1.8155 H       
  54 H54           -6.1496    -2.5066     3.1945 H       
  55 H55           -7.6443    -2.0617     2.3366 H       
  56 H56           -6.9543    -4.4504     4.0521 H       
  57 H57           -8.5730    -4.3051     3.3263 H       
  58 H58           -7.3473    -3.7527    -0.0541 H       
  59 H59           -8.0220    -5.2437     0.6460 H       
  60 H60           -8.7849    -3.6733     0.9924 H       
  61 H61           -5.6596    -6.4882     3.8037 H       
  62 H62           -5.7178    -8.9240     3.4505 H       
  63 H63           -9.6005    -8.5756     1.7108 H       
  64 H64           -9.5410    -6.1408     2.0704 H       
  65 Cl65           9.3164    11.2132     9.0521 Cl      
  66 H66            9.3164    12.5832     9.0521 H       
@<TRIPOS>BOND
   1    1    2 am
   2    1   15 1
   3    1    6 1
   4    2    3 1
   5    2    7 2
   6    3    4 2
   7    3    8 1
   8    4    5 1
   9    4    9 1
  10    5    6 2
  11    5   32 1
  12    6   33 1
  13    8   31 3
  14    9   10 1
  15    9   14 1
  16   10   11 1
  17   10   34 1
  18   10   35 1
  19   11   12 1
  20   11   36 1
  21   11   37 1
  22   12   13 1
  23   12   20 1
  24   12   38 1
  25   13   14 1
  26   13   39 1
  27   13   40 1
  28   14   41 1
  29   14   42 1
  30   15   16 1
  31   15   43 1
  32   15   44 1
  33   16   17 1
  34   16   45 1
  35   16   46 1
  36   17   18 1
  37   17   19 1
  38   17   47 1
  39   18   48 1
  40   18   49 1
  41   18   50 1
  42   19   51 1
  43   19   52 1
  44   19   53 1
  45   20   21 1
  46   20   54 1
  47   20   55 1
  48   21   22 1
  49   21   24 1
  50   22   23 1
  51   22   56 1
  52   22   57 1
  53   23   25 ar
  54   23   29 ar
  55   24   58 1
  56   24   59 1
  57   24   60 1
  58   25   26 ar
  59   25   61 1
  60   26   27 ar
  61   26   62 1
  62   27   28 ar
  63   27   30 1
  64   28   29 ar
  65   28   63 1
  66   29   64 1
  67   65   66 1

#	End of record

