#	Name: ASD01810672
#	Creating user name:	WinNT
#	Creation time:	15. 06. 2019 19:25

#	Modifying user name:	WinNT
#	Modification time:	15. 06. 2019 19:25

#	Program:	/corina/corina34_cracker 3.40 0067  02.08.2006

@<TRIPOS>MOLECULE
ASD01810672
  62   66    0    0    0
SMALL
NO_CHARGES


@<TRIPOS>ATOM
   1 C1            -0.1769     1.9875     0.5183 C.ar    
   2 C2             0.0705     0.6135     0.5325 C.ar    
   3 C3            -0.9732    -0.2807     0.3970 C.ar    
   4 C4            -2.2670     0.1766     0.2463 C.ar    
   5 C5            -2.5284     1.5487     0.2299 C.ar    
   6 C6            -1.4807     2.4559     0.3724 C.ar    
   7 C7            -3.9145     2.0371     0.0675 C.2     
   8 N8            -4.4469     2.8710     0.9827 N.am    
   9 O9            -4.5739     1.6865    -0.8916 O.2     
  10 C10           -5.8490     3.2979     0.8806 C.3     
  11 C11           -3.6378     3.3655     2.1050 C.3     
  12 C12           -4.3727     3.0615     3.4143 C.3     
  13 C13           -5.7845     3.6487     3.3505 C.3     
  14 C14           -6.5546     2.9947     2.2061 C.3     
  15 C15           -6.4989     3.3810     4.6501 C.ar    
  16 C16           -6.9553     4.4393     5.4157 C.ar    
  17 C17           -7.6104     4.2014     6.6062 C.ar    
  18 C18           -7.8125     2.8890     7.0380 C.ar    
  19 C19           -7.3493     1.8258     6.2604 C.ar    
  20 C20           -6.7004     2.0779     5.0694 C.ar    
  21 C21            0.9423     2.9438     0.6641 C.2     
  22 N22            2.1853     2.6156     0.9151 N.2     
  23 C23            2.9456     3.7364     0.9831 C.ar    
  24 C24            2.0916     4.8325     0.7544 C.ar    
  25 N25            0.8351     4.3041     0.5511 N.pl3   
  26 C26            4.3025     3.9599     1.2190 C.ar    
  27 C27            4.7918     5.2627     1.2248 C.ar    
  28 C28            3.9266     6.3418     0.9956 C.ar    
  29 C29            2.5992     6.1272     0.7645 C.ar    
  30 C30            1.4798     0.1051     0.6955 C.3     
  31 C31           -3.3996    -0.8064     0.0986 C.3     
  32 C32           -8.4913     2.6346     8.2729 C.1     
  33 N33           -9.0298     2.4328     9.2526 N.1     
  34 C34            6.2252     5.5091     1.4733 C.2     
  35 O35            6.9764     4.5753     1.6725 O.2     
  36 O36            6.7009     6.7697     1.4793 O.3     
  37 H37           -0.7763    -1.3426     0.4086 H       
  38 H38           -1.6774     3.5178     0.3608 H       
  39 H39           -5.8914     4.3686     0.6806 H       
  40 H40           -6.3388     2.7537     0.0731 H       
  41 H41           -2.6691     2.8659     2.1052 H       
  42 H42           -3.4961     4.4418     2.0070 H       
  43 H43           -4.4336     1.9823     3.5552 H       
  44 H44           -3.8305     3.5076     4.2480 H       
  45 H45           -5.7233     4.7243     3.1848 H       
  46 H46           -7.5679     3.3950     2.1739 H       
  47 H47           -6.5935     1.9168     2.3630 H       
  48 H48           -6.7980     5.4539     5.0807 H       
  49 H49           -7.9658     5.0284     7.2030 H       
  50 H50           -7.5019     0.8083     6.5887 H       
  51 H51           -6.3416     1.2565     4.4669 H       
  52 H52            0.0242     4.8037     0.3671 H       
  53 H53            4.9681     3.1280     1.3962 H       
  54 H54            4.3135     7.3501     1.0023 H       
  55 H55            1.9407     6.9651     0.5891 H       
  56 H56            1.7337     0.0717     1.7550 H       
  57 H57            1.5560    -0.8963     0.2719 H       
  58 H58            2.1689     0.7721     0.1776 H       
  59 H59           -3.7389    -1.1208     1.0856 H       
  60 H60           -4.2239    -0.3335    -0.4354 H       
  61 H61           -3.0553    -1.6760    -0.4613 H       
  62 H62            7.6468     6.8811     1.6466 H       
@<TRIPOS>BOND
   1    1    2 ar
   2    1   21 1
   3    1    6 ar
   4    2    3 ar
   5    2   30 1
   6    3    4 ar
   7    3   37 1
   8    4    5 ar
   9    4   31 1
  10    5    6 ar
  11    5    7 1
  12    6   38 1
  13    7    8 am
  14    7    9 2
  15    8   10 1
  16    8   11 1
  17   10   14 1
  18   10   39 1
  19   10   40 1
  20   11   12 1
  21   11   41 1
  22   11   42 1
  23   12   13 1
  24   12   43 1
  25   12   44 1
  26   13   14 1
  27   13   15 1
  28   13   45 1
  29   14   46 1
  30   14   47 1
  31   15   16 ar
  32   15   20 ar
  33   16   17 ar
  34   16   48 1
  35   17   18 ar
  36   17   49 1
  37   18   19 ar
  38   18   32 1
  39   19   20 ar
  40   19   50 1
  41   20   51 1
  42   21   22 2
  43   21   25 1
  44   22   23 1
  45   23   24 ar
  46   23   26 ar
  47   24   25 1
  48   24   29 ar
  49   25   52 1
  50   26   27 ar
  51   26   53 1
  52   27   28 ar
  53   27   34 1
  54   28   29 ar
  55   28   54 1
  56   29   55 1
  57   30   56 1
  58   30   57 1
  59   30   58 1
  60   31   59 1
  61   31   60 1
  62   31   61 1
  63   32   33 3
  64   34   35 2
  65   34   36 1
  66   36   62 1

#	End of record

