#	Name: ASD04910003
#	Creating user name:	WinNT
#	Creation time:	15. 06. 2019 20:55

#	Modifying user name:	WinNT
#	Modification time:	15. 06. 2019 20:55

#	Program:	/corina/corina34_cracker 3.40 0067  02.08.2006

@<TRIPOS>MOLECULE
ASD04910003
  48   51    0    0    0
SMALL
NO_CHARGES


@<TRIPOS>ATOM
   1 C1             0.2836    -1.0877    -5.6009 C.3     
   2 O2             0.1227    -2.2485    -4.7832 O.3     
   3 C3            -1.0231    -2.3383    -4.0578 C.ar    
   4 C4            -1.9725    -1.3286    -4.1327 C.ar    
   5 C5            -3.1401    -1.4153    -3.3971 C.ar    
   6 C6            -3.3687    -2.5065    -2.5839 C.ar    
   7 C7            -2.4200    -3.5261    -2.5026 C.ar    
   8 C8            -1.2457    -3.4402    -3.2485 C.ar    
   9 C9            -2.6622    -4.6982    -1.6310 C.2     
  10 N10           -1.7714    -5.6336    -1.5684 N.2     
  11 C11           -1.9265    -6.8266    -0.7460 C.3     
  12 C12           -3.0130    -6.6482     0.2756 C.2     
  13 C13           -3.9205    -5.6373     0.1569 C.2     
  14 N14           -3.8313    -4.7646    -0.8998 N.pl3   
  15 N15           -4.9112    -5.4976     1.0984 N.am    
  16 C16           -5.8492    -4.4634     0.9775 C.ar    
  17 C17           -7.0365    -4.6782     0.2906 C.ar    
  18 C18           -7.9596    -3.6576     0.1733 C.ar    
  19 C19           -7.7017    -2.4215     0.7394 C.ar    
  20 C20           -6.5188    -2.2047     1.4242 C.ar    
  21 C21           -5.5953    -3.2240     1.5495 C.ar    
  22 Cl22          -8.8636    -1.1404     0.5898 Cl      
  23 C23           -4.9836    -6.3519     2.1367 C.2     
  24 O24           -5.8657    -6.2175     2.9625 O.2     
  25 N25           -4.0944    -7.3523     2.2735 N.am    
  26 C26           -3.1087    -7.5244     1.3704 C.2     
  27 O27           -2.3075    -8.4338     1.5013 O.2     
  28 C28           -2.2754    -8.0136    -1.6462 C.3     
  29 F29           -1.2480    -8.2125    -2.5747 F       
  30 F30           -2.4261    -9.1636    -0.8640 F       
  31 F31           -3.4710    -7.7499    -2.3231 F       
  32 C32           -0.6065    -7.1153    -0.0282 C.3     
  33 F33           -0.4609    -6.2372     1.0511 F       
  34 F34           -0.6090    -8.4336     0.4402 F       
  35 F35            0.4573    -6.9392    -0.9196 F       
  36 H36            1.2379    -1.1417    -6.1248 H       
  37 H37           -0.5275    -1.0398    -6.3275 H       
  38 H38            0.2631    -0.1961    -4.9741 H       
  39 H39           -1.7985    -0.4722    -4.7672 H       
  40 H40           -3.8752    -0.6265    -3.4589 H       
  41 H41           -4.2815    -2.5710    -2.0104 H       
  42 H42           -0.5079    -4.2268    -3.1897 H       
  43 H43           -4.5866    -4.2035    -1.1358 H       
  44 H44           -7.2380    -5.6426    -0.1520 H       
  45 H45           -8.8833    -3.8243    -0.3609 H       
  46 H46           -6.3195    -1.2389     1.8645 H       
  47 H47           -4.6724    -3.0543     2.0841 H       
  48 H48           -4.1632    -7.9556     3.0299 H       
@<TRIPOS>BOND
   1    1    2 1
   2    1   36 1
   3    1   37 1
   4    1   38 1
   5    2    3 1
   6    3    4 ar
   7    3    8 ar
   8    4    5 ar
   9    4   39 1
  10    5    6 ar
  11    5   40 1
  12    6    7 ar
  13    6   41 1
  14    7    8 ar
  15    7    9 1
  16    8   42 1
  17    9   10 2
  18    9   14 1
  19   10   11 1
  20   11   12 1
  21   11   28 1
  22   11   32 1
  23   12   13 2
  24   12   26 1
  25   13   14 1
  26   13   15 1
  27   14   43 1
  28   15   16 1
  29   15   23 am
  30   16   17 ar
  31   16   21 ar
  32   17   18 ar
  33   17   44 1
  34   18   19 ar
  35   18   45 1
  36   19   20 ar
  37   19   22 1
  38   20   21 ar
  39   20   46 1
  40   21   47 1
  41   23   24 2
  42   23   25 am
  43   25   26 am
  44   25   48 1
  45   26   27 2
  46   28   29 1
  47   28   30 1
  48   28   31 1
  49   32   33 1
  50   32   34 1
  51   32   35 1

#	End of record

