#	Name: ASD01912149
#	Creating user name:	WinNT
#	Creation time:	15. 06. 2019 19:59

#	Modifying user name:	WinNT
#	Modification time:	15. 06. 2019 19:59

#	Program:	/corina/corina34_cracker 3.40 0067  02.08.2006

@<TRIPOS>MOLECULE
ASD01912149
  44   48    0    0    0
SMALL
NO_CHARGES


@<TRIPOS>ATOM
   1 Cl1            7.7625     5.4503    -1.6921 Cl      
   2 C2            -0.0187     1.5275     0.0104 C.3     
   3 C3             0.0021    -0.0041     0.0020 C.3     
   4 C4            -1.4274    -0.5250    -0.1099 C.3     
   5 C5            -2.2819    -0.0532     1.0524 C.3     
   6 N6            -2.0149     1.3409     1.4163 N.am    
   7 C7            -0.7322     1.9982     1.2791 C.3     
   8 C8             1.3938     2.0527    -0.0002 C.2     
   9 O9             2.3339     1.8197     0.9212 O.3     
  10 N10            3.3626     2.3868     0.6192 N.2     
  11 C11            3.2035     3.0358    -0.5079 C.2     
  12 N12            1.9313     2.8180    -0.9165 N.2     
  13 C13            4.2227     3.8475    -1.2050 C.2     
  14 C14            5.5040     4.0564    -0.7893 C.2     
  15 C15            6.1234     4.8807    -1.7417 C.2     
  16 C16            5.2137     5.1512    -2.7047 C.2     
  17 N17            4.0490     4.5196    -2.3885 N.pl3   
  18 C18           -1.9312    -0.9633     2.3029 C.3     
  19 O19           -2.6393    -0.2678     3.3695 O.3     
  20 C20           -3.9094     0.0622     3.1140 C.ar    
  21 C21           -4.2495     1.1380     2.3258 C.ar    
  22 C22           -3.0977     2.0159     1.9313 C.2     
  23 O23           -3.1194     3.2251     2.0572 O.2     
  24 C24           -4.9443    -0.7161     3.6429 C.ar    
  25 C25           -6.2517    -0.4203     3.3164 C.ar    
  26 C26           -6.5665     0.6302     2.4695 C.ar    
  27 C27           -5.5540     1.4268     1.9607 C.ar    
  28 H28           -0.5510     1.8911    -0.8685 H       
  29 H29            0.5854    -0.3556    -0.8490 H       
  30 H30            0.4506    -0.3672     0.9267 H       
  31 H31           -1.8650    -0.1679    -1.0421 H       
  32 H32           -1.4099    -1.6148    -0.1201 H       
  33 H33           -3.3359    -0.1680     0.7996 H       
  34 H34           -0.1145     1.7651     2.1464 H       
  35 H35           -0.8847     3.0762     1.2267 H       
  36 H36            5.9583     3.6613     0.1073 H       
  37 H37            5.3830     5.7622    -3.5790 H       
  38 H38            3.2315     4.5453    -2.9101 H       
  39 H39           -2.3161    -1.9746     2.1716 H       
  40 H40           -0.8573    -0.9761     2.4891 H       
  41 H41           -4.7216    -1.5424     4.3017 H       
  42 H42           -7.0478    -1.0215     3.7300 H       
  43 H43           -7.5956     0.8267     2.2072 H       
  44 H44           -5.7755     2.2499     1.2975 H       
@<TRIPOS>BOND
   1    1   15 1
   2    2    3 1
   3    2    8 1
   4    2    7 1
   5    2   28 1
   6    3    4 1
   7    3   29 1
   8    3   30 1
   9    4    5 1
  10    4   31 1
  11    4   32 1
  12    5    6 1
  13    5   18 1
  14    5   33 1
  15    6    7 1
  16    6   22 am
  17    7   34 1
  18    7   35 1
  19    8    9 1
  20    8   12 2
  21    9   10 1
  22   10   11 2
  23   11   12 1
  24   11   13 1
  25   13   14 2
  26   13   17 1
  27   14   15 1
  28   14   36 1
  29   15   16 2
  30   16   17 1
  31   16   37 1
  32   17   38 1
  33   18   19 1
  34   18   39 1
  35   18   40 1
  36   19   20 1
  37   20   21 ar
  38   20   24 ar
  39   21   22 1
  40   21   27 ar
  41   22   23 2
  42   24   25 ar
  43   24   41 1
  44   25   26 ar
  45   25   42 1
  46   26   27 ar
  47   26   43 1
  48   27   44 1

#	End of record

