#	Name: ASD01020007
#	Creating user name:	WinNT
#	Creation time:	15. 06. 2019 18:56

#	Modifying user name:	WinNT
#	Modification time:	15. 06. 2019 18:56

#	Program:	/corina/corina34_cracker 3.40 0067  02.08.2006

@<TRIPOS>MOLECULE
ASD01020007
  26   25    0    0    0
SMALL
NO_CHARGES


@<TRIPOS>ATOM
   1 N1            -0.0178     1.4648     0.0101 N.3     
   2 C2             0.0021    -0.0041     0.0020 C.3     
   3 C3             0.7074    -0.4901    -1.2379 C.2     
   4 C4             0.7421    -0.5109     1.2415 C.3     
   5 C5            -1.4333    -0.5336     0.0129 C.3     
   6 O6             0.5849     0.1887    -2.3894 O.3     
   7 O7             1.3833    -1.4907    -1.1954 O.2     
   8 C8             0.0259    -0.0175     2.5003 C.3     
   9 C9             0.7659    -0.5243     3.7399 C.3     
  10 C10            0.0606    -0.0383     4.9798 C.2     
  11 C11           -0.3307    -0.8959     5.8894 C.2     
  12 H12            0.9191     1.8392     0.0032 H       
  13 H13           -0.5563     1.8234    -0.7642 H       
  14 H14            0.7568    -1.6008     1.2356 H       
  15 H15            1.7647    -0.1336     1.2338 H       
  16 H16           -1.9605    -0.1726    -0.8702 H       
  17 H17           -1.4185    -1.6235     0.0069 H       
  18 H18           -1.9435    -0.1821     0.9097 H       
  19 H19            1.0559    -0.1617    -3.1578 H       
  20 H20            0.0111     1.0724     2.5063 H       
  21 H21           -0.9967    -0.3948     2.5081 H       
  22 H22            0.7807    -1.6142     3.7339 H       
  23 H23            1.7885    -0.1470     3.7321 H       
  24 H24           -0.1224     1.0170     5.1184 H       
  25 H25           -0.1478    -1.9513     5.7508 H       
  26 H26           -0.8362    -0.5476     6.7780 H       
@<TRIPOS>BOND
   1    1    2 1
   2    1   12 1
   3    1   13 1
   4    2    3 1
   5    2    4 1
   6    2    5 1
   7    3    6 1
   8    3    7 2
   9    4    8 1
  10    4   14 1
  11    4   15 1
  12    5   16 1
  13    5   17 1
  14    5   18 1
  15    6   19 1
  16    8    9 1
  17    8   20 1
  18    8   21 1
  19    9   10 1
  20    9   22 1
  21    9   23 1
  22   10   11 2
  23   10   24 1
  24   11   25 1
  25   11   26 1

#	End of record

