#	Name: ASD01150946
#	Creating user name:	WinNT
#	Creation time:	15. 06. 2019 19:05

#	Modifying user name:	WinNT
#	Modification time:	15. 06. 2019 19:05

#	Program:	/corina/corina34_cracker 3.40 0067  02.08.2006

@<TRIPOS>MOLECULE
ASD01150946
  42   43    0    0    0
SMALL
NO_CHARGES


@<TRIPOS>ATOM
   1 N1            -0.0167     1.3818     0.0096 N.pl3   
   2 C2             0.0021    -0.0041     0.0020 C.2     
   3 N3             1.0917    -0.7762    -0.0121 N.2     
   4 C4             0.7459    -2.0474    -0.0158 C.2     
   5 N5            -0.6113    -2.1455    -0.0039 N.pl3   
   6 C6            -1.1105    -0.8389     0.0137 C.2     
   7 C7            -2.4621    -0.4487     0.0304 C.2     
   8 O8            -3.4355    -1.3852     0.0303 O.3     
   9 O9            -2.7545     0.7337     0.0448 O.2     
  10 C10           -4.7857    -0.9176     0.0477 C.3     
  11 S11            1.8655    -3.4078    -0.0338 S.3     
  12 C12            3.4415    -2.5177    -0.0431 C.3     
  13 C13           -1.3634    -3.3271    -0.0034 C.ar    
  14 C14           -1.2991    -4.1924     1.0807 C.ar    
  15 C15           -2.0423    -5.3565     1.0784 C.ar    
  16 C16           -2.8499    -5.6608    -0.0020 C.ar    
  17 C17           -2.9161    -4.8012    -1.0832 C.ar    
  18 C18           -2.1794    -3.6329    -1.0846 C.ar    
  19 C19           -5.0433    -0.0568    -1.1907 C.3     
  20 C20           -5.7254    -2.0957     0.0449 C.2     
  21 C21           -5.0197    -0.0815     1.3076 C.3     
  22 C22           -5.3525    -3.3587     0.7776 C.3     
  23 O23           -6.7773    -2.0276    -0.5443 O.2     
  24 H24            0.8166     1.8782     0.0043 H       
  25 H25           -0.8633     1.8554     0.0162 H       
  26 H26            3.4971    -1.8865    -0.9300 H       
  27 H27            3.5133    -1.8967     0.8499 H       
  28 H28            4.2632    -3.2338    -0.0547 H       
  29 H29           -0.6682    -3.9555     1.9247 H       
  30 H30           -1.9924    -6.0300     1.9212 H       
  31 H31           -3.4298    -6.5719    -0.0016 H       
  32 H32           -3.5475    -5.0418    -1.9257 H       
  33 H33           -2.2315    -2.9620    -1.9293 H       
  34 H34           -4.8766    -0.6524    -2.0882 H       
  35 H35           -6.0732     0.2999    -1.1774 H       
  36 H36           -4.3636     0.7953    -1.1887 H       
  37 H37           -4.3400     0.7706     1.3096 H       
  38 H38           -6.0496     0.2752     1.3208 H       
  39 H39           -4.8361    -0.6948     2.1898 H       
  40 H40           -4.3758    -3.2328     1.2448 H       
  41 H41           -6.0981    -3.5674     1.5448 H       
  42 H42           -5.3138    -4.1895     0.0730 H       
@<TRIPOS>BOND
   1    1    2 1
   2    1   24 1
   3    1   25 1
   4    2    3 1
   5    2    6 2
   6    3    4 2
   7    4    5 1
   8    4   11 1
   9    5    6 1
  10    5   13 1
  11    6    7 1
  12    7    8 1
  13    7    9 2
  14    8   10 1
  15   10   19 1
  16   10   20 1
  17   10   21 1
  18   11   12 1
  19   12   26 1
  20   12   27 1
  21   12   28 1
  22   13   14 ar
  23   13   18 ar
  24   14   15 ar
  25   14   29 1
  26   15   16 ar
  27   15   30 1
  28   16   17 ar
  29   16   31 1
  30   17   18 ar
  31   17   32 1
  32   18   33 1
  33   19   34 1
  34   19   35 1
  35   19   36 1
  36   20   22 1
  37   20   23 2
  38   21   37 1
  39   21   38 1
  40   21   39 1
  41   22   40 1
  42   22   41 1
  43   22   42 1

#	End of record

