#	Name: ASD01901022
#	Creating user name:	WinNT
#	Creation time:	15. 06. 2019 19:53

#	Modifying user name:	WinNT
#	Modification time:	15. 06. 2019 19:53

#	Program:	/corina/corina34_cracker 3.40 0067  02.08.2006

@<TRIPOS>MOLECULE
ASD01901022
  25   27    0    0    0
SMALL
NO_CHARGES


@<TRIPOS>ATOM
   1 C1            -0.0159     1.3192     0.0093 C.ar    
   2 N2             0.0021    -0.0041     0.0020 N.ar    
   3 C3             1.1589    -0.6665    -0.0126 C.ar    
   4 C4             2.3557     0.0603    -0.0201 C.ar    
   5 C5             2.2872     1.4410    -0.0120 C.ar    
   6 N6             1.1019     2.0312     0.0024 N.ar    
   7 N7            -1.2339     1.9767     0.0186 N.pl3   
   8 O8             2.2908    -2.9038    -0.0344 O.3     
   9 C9             1.1778    -2.1431    -0.0202 C.2     
  10 C10            0.0793    -2.9361    -0.0132 C.2     
  11 C11            0.5734    -4.3143    -0.0242 C.ar    
  12 C12            1.9767    -4.2147    -0.0373 C.ar    
  13 C13           -0.0394    -5.5682    -0.0236 C.ar    
  14 C14            0.7299    -6.6984    -0.0357 C.ar    
  15 C15            2.1141    -6.6061    -0.0481 C.ar    
  16 C16            2.7382    -5.3765    -0.0492 C.ar    
  17 H17            3.3097    -0.4458    -0.0315 H       
  18 H18            3.1911     2.0321    -0.0171 H       
  19 H19           -2.0597     1.4679     0.0197 H       
  20 H20           -1.2616     2.9463     0.0240 H       
  21 H21           -0.9523    -2.6163    -0.0018 H       
  22 H22           -1.1166    -5.6454    -0.0132 H       
  23 H23            0.2569    -7.6693    -0.0352 H       
  24 H24            2.7095    -7.5072    -0.0569 H       
  25 H25            3.8165    -5.3168    -0.0592 H       
@<TRIPOS>BOND
   1    1    2 ar
   2    1    6 ar
   3    1    7 1
   4    2    3 ar
   5    3    4 ar
   6    3    9 1
   7    4    5 ar
   8    4   17 1
   9    5    6 ar
  10    5   18 1
  11    7   19 1
  12    7   20 1
  13    8    9 1
  14    8   12 1
  15    9   10 2
  16   10   11 1
  17   10   21 1
  18   11   12 ar
  19   11   13 ar
  20   12   16 ar
  21   13   14 ar
  22   13   22 1
  23   14   15 ar
  24   14   23 1
  25   15   16 ar
  26   15   24 1
  27   16   25 1

#	End of record

