#	Name: ASD01121008
#	Creating user name:	WinNT
#	Creation time:	15. 06. 2019 18:59

#	Modifying user name:	WinNT
#	Modification time:	15. 06. 2019 18:59

#	Program:	/corina/corina34_cracker 3.40 0067  02.08.2006

@<TRIPOS>MOLECULE
ASD01121008
  49   50    0    0    0
SMALL
NO_CHARGES


@<TRIPOS>ATOM
   1 C1             0.0771     0.9813    -0.0327 C.ar    
   2 C2             1.0450     1.9737    -0.0136 C.ar    
   3 C3             0.4713    -0.3503    -0.0603 C.ar    
   4 Br4            0.5556     3.7999     0.0248 Br      
   5 C5             2.3798     1.5979    -0.0228 C.ar    
   6 N6             1.7549    -0.6753    -0.0680 N.ar    
   7 C7             2.7042     0.2481    -0.0507 C.ar    
   8 N8             4.0432    -0.1392    -0.0606 N.am    
   9 C9             4.3677    -1.4447     0.0227 C.2     
  10 O10            3.4997    -2.2765     0.2035 O.2     
  11 N11            5.6545    -1.8280    -0.0945 N.am    
  12 S12            6.0532    -3.4320     0.0078 S.o2    
  13 C13            5.3143    -4.2422    -1.3714 C.2     
  14 O14            7.4587    -3.5094    -0.1871 O.2     
  15 O15            5.4003    -3.9347     1.1656 O.2     
  16 S16            3.7053    -4.9524    -1.3875 S.3     
  17 C17            5.8873    -4.4056    -2.5647 C.2     
  18 C18            3.9104    -5.4530    -3.0610 C.2     
  19 C19            5.1131    -5.0750    -3.4968 C.2     
  20 C20            2.8827    -6.1917    -3.8791 C.3     
  21 C21            5.5933    -5.3568    -4.8971 C.3     
  22 C22            3.0851    -7.6990    -3.7118 C.3     
  23 O23            2.1106    -8.3995    -4.4875 O.3     
  24 C24            2.2122    -9.8222    -4.4011 C.3     
  25 H25            4.7414     0.5308    -0.1275 H       
  26 H26            6.3470    -1.1643    -0.2388 H       
  27 N27           -0.4946    -1.3551    -0.0797 N.am    
  28 C28           -0.1236    -2.6438    -0.2137 C.2     
  29 N29           -1.0601    -3.6055    -0.3346 N.am    
  30 O30            1.0557    -2.9389    -0.2256 O.2     
  31 C31           -0.6570    -5.0064    -0.4803 C.3     
  32 H32           -0.9713     1.2405    -0.0218 H       
  33 H33            3.1581     2.3466    -0.0088 H       
  34 H34            6.8800    -4.0429    -2.7871 H       
  35 H35            1.8836    -5.9194    -3.5390 H       
  36 H36            2.9943    -5.9245    -4.9299 H       
  37 H37            5.3136    -4.5303    -5.5504 H       
  38 H38            6.6778    -5.4666    -4.8942 H       
  39 H39            5.1360    -6.2774    -5.2597 H       
  40 H40            4.0843    -7.9714    -4.0518 H       
  41 H41            2.9735    -7.9662    -2.6610 H       
  42 H42            3.1932   -10.1386    -4.7554 H       
  43 H43            2.0825   -10.1335    -3.3646 H       
  44 H44            1.4383   -10.2798    -5.0174 H       
  45 H45           -1.4336    -1.1268     0.0033 H       
  46 H46           -2.0011    -3.3701    -0.3252 H       
  47 H47           -0.0478    -5.1177    -1.3773 H       
  48 H48           -0.0783    -5.3105     0.3919 H       
  49 H49           -1.5448    -5.6332    -0.5639 H       
@<TRIPOS>BOND
   1    1    2 ar
   2    1    3 ar
   3    1   32 1
   4    2    4 1
   5    2    5 ar
   6    3    6 ar
   7    3   27 1
   8    5    7 ar
   9    5   33 1
  10    6    7 ar
  11    7    8 1
  12    8   25 1
  13    8    9 am
  14    9   10 2
  15    9   11 am
  16   11   26 1
  17   11   12 am
  18   12   13 1
  19   12   15 2
  20   12   14 2
  21   13   16 1
  22   13   17 2
  23   16   18 1
  24   17   19 1
  25   17   34 1
  26   18   19 2
  27   18   20 1
  28   19   21 1
  29   20   22 1
  30   20   35 1
  31   20   36 1
  32   21   37 1
  33   21   38 1
  34   21   39 1
  35   22   23 1
  36   22   40 1
  37   22   41 1
  38   23   24 1
  39   24   42 1
  40   24   43 1
  41   24   44 1
  42   27   28 am
  43   27   45 1
  44   28   29 am
  45   28   30 2
  46   29   31 1
  47   29   46 1
  48   31   47 1
  49   31   48 1
  50   31   49 1

#	End of record

