#	Name: ASD00069226
#	Creating user name:	WinNT
#	Creation time:	15. 06. 2019 18:29

#	Modifying user name:	WinNT
#	Modification time:	15. 06. 2019 18:29

#	Program:	/corina/corina34_cracker 3.40 0067  02.08.2006

@<TRIPOS>MOLECULE
ASD00069226
  73   77    0    0    0
SMALL
NO_CHARGES


@<TRIPOS>ATOM
   1 C1            -0.0162     1.3058     0.0437 C.2     
   2 N2            -0.0002    -0.0077     0.0318 N.2     
   3 C3             1.2712    -0.4298     0.0344 C.2     
   4 C4             2.0845     0.6819     0.0487 C.2     
   5 N5             1.2729     1.7619     0.0545 N.pl3   
   6 C6            -1.2254     2.1497     0.0398 C.2     
   7 O7            -1.1214     3.3614     0.0515 O.2     
   8 N8            -2.4459     1.5783     0.0232 N.am    
   9 C9             3.4330    -3.3946     0.0191 C.ar    
  10 N10            3.0230    -2.1361     0.0281 N.ar    
  11 C11            1.7224    -1.8418     0.0237 C.ar    
  12 C12            0.7934    -2.8804     0.0094 C.ar    
  13 C13            1.2656    -4.1913     0.0003 C.ar    
  14 N14            2.5784    -4.4066     0.0055 N.ar    
  15 N15            4.7913    -3.6603     0.0182 N.pl3   
  16 C16            5.7537    -2.5558     0.0272 C.3     
  17 N17            0.3794    -5.2568    -0.0136 N.3     
  18 C18            1.0969    -6.5380    -0.0212 C.3     
  19 C19            0.0941    -7.6865     0.1104 C.3     
  20 C20           -0.8970    -7.6283    -1.0553 C.3     
  21 C21           -1.5958    -6.2659    -1.0533 C.3     
  22 C22           -0.5440    -5.1585    -1.1512 C.3     
  23 N23            0.8104    -8.9687     0.0815 N.3     
  24 C24           -3.5930     2.3733     0.1389 C.ar    
  25 C25           -4.7618     2.0158    -0.5319 C.ar    
  26 C26           -5.8955     2.8086    -0.4128 C.ar    
  27 C27           -5.8620     3.9497     0.3701 C.ar    
  28 C28           -4.7021     4.3027     1.0347 C.ar    
  29 C29           -3.5709     3.5156     0.9259 C.ar    
  30 F30           -7.0304     2.4669    -1.0612 F       
  31 N31           -4.7921     0.8608    -1.3238 N.3     
  32 C32           -5.8047    -0.0847    -0.8368 C.3     
  33 C33           -5.7107    -1.3891    -1.6316 C.3     
  34 C34           -5.9343    -1.0932    -3.1172 C.3     
  35 C35           -4.8971    -0.0696    -3.5874 C.3     
  36 C36           -5.0148     1.1966    -2.7359 C.3     
  37 C37           -5.7813    -2.3839    -3.9243 C.3     
  38 N38           -6.1129    -2.1236    -5.3315 N.3     
  39 H39            3.1645     0.6888     0.0542 H       
  40 H40            1.5531     2.6905     0.0641 H       
  41 H41           -2.5298     0.6163    -0.0688 H       
  42 H42           -0.2668    -2.6743     0.0059 H       
  43 H43            5.1060    -4.5778     0.0117 H       
  44 H44            5.6042    -1.9509     0.9216 H       
  45 H45            6.7672    -2.9569     0.0250 H       
  46 H46            5.6057    -1.9377    -0.8584 H       
  47 H47            1.6463    -6.6410    -0.9570 H       
  48 H48            1.7954    -6.5681     0.8151 H       
  49 H49           -0.4460    -7.5919     1.0524 H       
  50 H50           -0.3619    -7.7619    -1.9954 H       
  51 H51           -1.6393    -8.4185    -0.9421 H       
  52 H52           -2.2716    -6.2022    -1.9061 H       
  53 H53           -2.1625    -6.1489    -0.1296 H       
  54 H54           -1.0373    -4.1866    -1.1356 H       
  55 H55            0.0131    -5.2680    -2.0816 H       
  56 H56            0.1692    -9.7431     0.1669 H       
  57 H57            1.3689    -9.0522    -0.7547 H       
  58 H58           -6.7442     4.5659     0.4619 H       
  59 H59           -4.6809     5.1941     1.6441 H       
  60 H60           -2.6683     3.7922     1.4504 H       
  61 H61           -5.6318    -0.2898     0.2197 H       
  62 H62           -6.7970     0.3479    -0.9649 H       
  63 H63           -4.7232    -1.8294    -1.4928 H       
  64 H64           -6.4726    -2.0849    -1.2804 H       
  65 H65           -6.9363    -0.6890    -3.2612 H       
  66 H66           -3.8969    -0.4891    -3.4794 H       
  67 H67           -5.0779     0.1773    -4.6335 H       
  68 H68           -6.0107     1.6232    -2.8551 H       
  69 H69           -4.2681     1.9221    -3.0588 H       
  70 H70           -4.7526    -2.7373    -3.8528 H       
  71 H71           -6.4548    -3.1431    -3.5267 H       
  72 H72           -5.5451    -1.3777    -5.7049 H       
  73 H73           -6.0194    -2.9615    -5.8860 H       
@<TRIPOS>BOND
   1    1    2 2
   2    1    5 1
   3    1    6 1
   4    2    3 1
   5    3    4 2
   6    3   11 1
   7    4    5 1
   8    4   39 1
   9    5   40 1
  10    6    7 2
  11    6    8 am
  12    8   24 1
  13    8   41 1
  14    9   10 ar
  15    9   14 ar
  16    9   15 1
  17   10   11 ar
  18   11   12 ar
  19   12   13 ar
  20   12   42 1
  21   13   14 ar
  22   13   17 1
  23   15   16 1
  24   15   43 1
  25   16   44 1
  26   16   45 1
  27   16   46 1
  28   17   18 1
  29   17   22 1
  30   18   19 1
  31   18   47 1
  32   18   48 1
  33   19   20 1
  34   19   23 1
  35   19   49 1
  36   20   21 1
  37   20   50 1
  38   20   51 1
  39   21   22 1
  40   21   52 1
  41   21   53 1
  42   22   54 1
  43   22   55 1
  44   23   56 1
  45   23   57 1
  46   24   25 ar
  47   24   29 ar
  48   25   26 ar
  49   25   31 1
  50   26   27 ar
  51   26   30 1
  52   27   28 ar
  53   27   58 1
  54   28   29 ar
  55   28   59 1
  56   29   60 1
  57   31   32 1
  58   31   36 1
  59   32   33 1
  60   32   61 1
  61   32   62 1
  62   33   34 1
  63   33   63 1
  64   33   64 1
  65   34   35 1
  66   34   37 1
  67   34   65 1
  68   35   36 1
  69   35   66 1
  70   35   67 1
  71   36   68 1
  72   36   69 1
  73   37   38 1
  74   37   70 1
  75   37   71 1
  76   38   72 1
  77   38   73 1

#	End of record

