#	Name: ASD01903014
#	Creating user name:	WinNT
#	Creation time:	15. 06. 2019 19:54

#	Modifying user name:	WinNT
#	Modification time:	15. 06. 2019 19:54

#	Program:	/corina/corina34_cracker 3.40 0067  02.08.2006

@<TRIPOS>MOLECULE
ASD01903014
  48   50    0    0    0
SMALL
NO_CHARGES


@<TRIPOS>ATOM
   1 C1            -0.0024     1.3866    -0.2243 C.ar    
   2 C2             0.0133     0.0010    -0.2376 C.ar    
   3 C3             1.2047    -0.6809    -0.0311 C.ar    
   4 C4             2.3751     0.0202     0.1877 C.ar    
   5 C5             2.3636     1.4016     0.2021 C.ar    
   6 C6             1.1744     2.0893    -0.0044 C.ar    
   7 N7             1.1627     3.4875     0.0097 N.am    
   8 C8             0.1024     4.1474     0.5163 C.2     
   9 O9            -0.8786     3.5308     0.8828 O.2     
  10 C10            0.1328     5.6243     0.6263 C.ar    
  11 O11           -1.1371    -0.6900    -0.4522 O.3     
  12 C12           -1.0469    -2.1161    -0.4525 C.3     
  13 N13            1.2070     6.2922     0.2243 N.ar    
  14 C14            1.2744     7.6033     0.3048 C.ar    
  15 C15            0.2185     8.3401     0.8164 C.ar    
  16 C16           -0.9231     7.6825     1.2479 C.ar    
  17 C17           -0.9688     6.3012     1.1456 C.ar    
  18 C18           -2.4315    -2.7147    -0.7081 C.3     
  19 C19           -2.3364    -4.2187    -0.7084 C.2     
  20 C20           -3.5386    -5.0301    -0.9337 C.ar    
  21 C21           -3.4553    -6.4320    -0.9350 C.ar    
  22 C22           -4.5987    -7.1873    -1.1491 C.ar    
  23 C23           -5.8117    -6.5629    -1.3602 C.ar    
  24 C24           -5.8992    -5.1794    -1.3604 C.ar    
  25 C25           -4.7773    -4.4116    -1.1431 C.ar    
  26 O26           -1.2663    -4.7587    -0.5225 O.2     
  27 O27           -2.2631    -7.0440    -0.7284 O.3     
  28 C28           -2.2561    -8.4729    -0.7436 C.3     
  29 H29           -0.9276     1.9188    -0.3893 H       
  30 H30            1.2167    -1.7607    -0.0410 H       
  31 H31            3.3006    -0.5128     0.3481 H       
  32 H32            3.2798     1.9472     0.3737 H       
  33 H33            1.9177     3.9824    -0.3451 H       
  34 H34           -0.3619    -2.4367    -1.2375 H       
  35 H35           -0.6765    -2.4570     0.5144 H       
  36 H36            2.1653     8.1125    -0.0322 H       
  37 H37            0.2842     9.4163     0.8788 H       
  38 H38           -1.7596     8.2344     1.6505 H       
  39 H39           -1.8423     5.7564     1.4721 H       
  40 H40           -3.1165    -2.3941     0.0769 H       
  41 H41           -2.8019    -2.3738    -1.6749 H       
  42 H42           -4.5399    -8.2657    -1.1510 H       
  43 H43           -6.6985    -7.1564    -1.5267 H       
  44 H44           -6.8533    -4.7015    -1.5269 H       
  45 H45           -4.8507    -3.3341    -1.1438 H       
  46 H46           -2.6031    -8.8276    -1.7141 H       
  47 H47           -1.2428    -8.8332    -0.5662 H       
  48 H48           -2.9171    -8.8479     0.0378 H       
@<TRIPOS>BOND
   1    1    2 ar
   2    1    6 ar
   3    1   29 1
   4    2    3 ar
   5    2   11 1
   6    3    4 ar
   7    3   30 1
   8    4    5 ar
   9    4   31 1
  10    5    6 ar
  11    5   32 1
  12    6    7 1
  13    7    8 am
  14    7   33 1
  15    8    9 2
  16    8   10 1
  17   10   13 ar
  18   10   17 ar
  19   11   12 1
  20   12   18 1
  21   12   34 1
  22   12   35 1
  23   13   14 ar
  24   14   15 ar
  25   14   36 1
  26   15   16 ar
  27   15   37 1
  28   16   17 ar
  29   16   38 1
  30   17   39 1
  31   18   19 1
  32   18   40 1
  33   18   41 1
  34   19   20 1
  35   19   26 2
  36   20   21 ar
  37   20   25 ar
  38   21   22 ar
  39   21   27 1
  40   22   23 ar
  41   22   42 1
  42   23   24 ar
  43   23   43 1
  44   24   25 ar
  45   24   44 1
  46   25   45 1
  47   27   28 1
  48   28   46 1
  49   28   47 1
  50   28   48 1

#	End of record

