#	Name: ASD04230167
#	Creating user name:	WinNT
#	Creation time:	15. 06. 2019 20:48

#	Modifying user name:	WinNT
#	Modification time:	15. 06. 2019 20:48

#	Program:	/corina/corina34_cracker 3.40 0067  02.08.2006

@<TRIPOS>MOLECULE
ASD04230167
  48   51    0    0    0
SMALL
NO_CHARGES


@<TRIPOS>ATOM
   1 C1            -0.0187     1.4654     0.1030 C.2     
   2 C2             0.0012    -0.0046     0.0959 C.ar    
   3 C3            -1.2208    -0.7087     0.0569 C.ar    
   4 C4            -2.4546    -0.0189     0.0247 C.ar    
   5 C5            -2.4919     1.3955     0.0307 C.2     
   6 C6            -1.3195     2.1466     0.0749 C.2     
   7 C7             1.2052    -0.7079     0.1273 C.ar    
   8 C8             1.2040    -2.0912     0.1204 C.ar    
   9 C9             0.0199    -2.7988     0.0820 C.ar    
  10 C10           -1.2052    -2.1221     0.0499 C.ar    
  11 C11           -2.4323    -2.8294     0.0108 C.ar    
  12 C12           -3.6342    -2.1278    -0.0203 C.ar    
  13 C13           -3.6529    -0.7530    -0.0142 C.ar    
  14 O14            1.0197     2.1036     0.1366 O.2     
  15 N15           -2.4358    -4.2067     0.0033 N.3     
  16 C16           -1.8712    -4.7262    -1.2444 C.3     
  17 C17           -1.4771    -6.1963    -1.0651 C.3     
  18 S18           -2.9757    -7.1531    -0.6811 S.3     
  19 C19           -3.6871    -6.2002     0.6954 C.3     
  20 C20           -3.7770    -4.7296     0.2737 C.3     
  21 C21           -1.3821     3.5772     0.0801 C.1     
  22 N22           -1.4317     4.7121     0.0843 N.1     
  23 C23           -3.7992     2.0888    -0.0042 C.2     
  24 O24           -4.3662     2.3680     1.0326 O.2     
  25 O25           -4.3599     2.4102    -1.1860 O.3     
  26 C26           -5.6428     3.0890    -1.1442 C.3     
  27 C27           -6.1179     3.3700    -2.5712 C.3     
  28 C28           -7.4696     4.0853    -2.5271 C.3     
  29 H29            2.1416    -0.1707     0.1568 H       
  30 H30            2.1427    -2.6248     0.1450 H       
  31 H31            0.0383    -3.8787     0.0764 H       
  32 H32           -4.5666    -2.6719    -0.0503 H       
  33 H33           -4.5983    -0.2315    -0.0387 H       
  34 H34           -2.6127    -4.6444    -2.0392 H       
  35 H35           -0.9891    -4.1448    -1.5124 H       
  36 H36           -1.0298    -6.5704    -1.9860 H       
  37 H37           -0.7646    -6.2870    -0.2453 H       
  38 H38           -4.6839    -6.5769     0.9249 H       
  39 H39           -3.0471    -6.2911     1.5730 H       
  40 H40           -4.2367    -4.1506     1.0747 H       
  41 H41           -4.3861    -4.6475    -0.6265 H       
  42 H42           -6.3717     2.4574    -0.6363 H       
  43 H43           -5.5385     4.0300    -0.6041 H       
  44 H44           -5.3890     4.0016    -3.0790 H       
  45 H45           -6.2222     2.4290    -3.1113 H       
  46 H46           -8.1985     3.4537    -2.0192 H       
  47 H47           -7.3653     5.0263    -1.9869 H       
  48 H48           -7.8081     4.2855    -3.5437 H       
@<TRIPOS>BOND
   1    1    2 1
   2    1   14 2
   3    1    6 1
   4    2    3 ar
   5    2    7 ar
   6    3    4 ar
   7    3   10 ar
   8    4    5 1
   9    4   13 ar
  10    5    6 2
  11    5   23 1
  12    6   21 1
  13    7    8 ar
  14    7   29 1
  15    8    9 ar
  16    8   30 1
  17    9   10 ar
  18    9   31 1
  19   10   11 ar
  20   11   12 ar
  21   11   15 1
  22   12   13 ar
  23   12   32 1
  24   13   33 1
  25   15   16 1
  26   15   20 1
  27   16   17 1
  28   16   34 1
  29   16   35 1
  30   17   18 1
  31   17   36 1
  32   17   37 1
  33   18   19 1
  34   19   20 1
  35   19   38 1
  36   19   39 1
  37   20   40 1
  38   20   41 1
  39   21   22 3
  40   23   24 2
  41   23   25 1
  42   25   26 1
  43   26   27 1
  44   26   42 1
  45   26   43 1
  46   27   28 1
  47   27   44 1
  48   27   45 1
  49   28   46 1
  50   28   47 1
  51   28   48 1

#	End of record

