#	Name: ASD01914569
#	Creating user name:	WinNT
#	Creation time:	15. 06. 2019 20:03

#	Modifying user name:	WinNT
#	Modification time:	15. 06. 2019 20:03

#	Program:	/corina/corina34_cracker 3.40 0067  02.08.2006

@<TRIPOS>MOLECULE
ASD01914569
  65   69    0    0    0
SMALL
NO_CHARGES


@<TRIPOS>ATOM
   1 N1            -0.0162     1.3443     0.0094 N.2     
   2 C2             0.0021    -0.0041     0.0020 C.2     
   3 C3             1.3017    -0.3995    -0.0125 C.2     
   4 N4             2.0585     0.7391    -0.0136 N.pl3   
   5 C5             1.2090     1.7896     0.0001 C.2     
   6 C6            -1.1841    -0.8956     0.0093 C.ar    
   7 C7            -1.0201    -2.2762     0.1058 C.ar    
   8 C8            -2.4653    -0.3545    -0.0746 C.ar    
   9 C9            -3.5657    -1.1874    -0.0670 C.ar    
  10 C10           -3.3979    -2.5593     0.0238 C.ar    
  11 C11           -2.1258    -3.1014     0.1127 C.ar    
  12 C12           -4.9520    -0.6033    -0.1571 C.3     
  13 F13           -4.4778    -3.3710     0.0309 F       
  14 C14            1.6125     3.2415     0.0036 C.3     
  15 C15            1.0419     3.9324    -1.2365 C.3     
  16 C16            1.4516     5.4065    -1.2330 C.3     
  17 C17            0.9056     6.0846     0.0252 C.3     
  18 C18            1.4762     5.3937     1.2653 C.3     
  19 C19            1.0665     3.9196     1.2618 C.3     
  20 C20            3.5219     0.8076    -0.0268 C.3     
  21 C21            4.0310     0.9469     1.3848 C.2     
  22 O22            3.2485     0.9851     2.3106 O.2     
  23 N23            5.3558     1.0289     1.6183 N.am    
  24 C24            5.8739     1.1651     2.9881 C.3     
  25 C25            6.3222     0.9783     0.5107 C.3     
  26 C26            7.3795    -0.0823     0.8352 C.3     
  27 N27            7.9612     0.1984     2.1546 N.3     
  28 C28            6.9498     0.0968     3.2101 C.3     
  29 C29            9.0314    -0.6410     2.4107 C.ar    
  30 N30           10.0432    -0.6781     1.5560 N.ar    
  31 N31            9.0223    -1.3843     3.5075 N.ar    
  32 C32           10.0295    -2.1966     3.7821 C.ar    
  33 C33           11.1019    -2.2640     2.9065 C.ar    
  34 C34           11.0814    -1.4690     1.7713 C.ar    
  35 H35            1.6663    -1.4161    -0.0211 H       
  36 H36           -0.0289    -2.6996     0.1748 H       
  37 H37           -2.5971     0.7151    -0.1450 H       
  38 H38           -1.9995    -4.1716     0.1834 H       
  39 H39           -5.2460    -0.5251    -1.2038 H       
  40 H40           -5.6536    -1.2499     0.3700 H       
  41 H41           -4.9591     0.3874     0.2973 H       
  42 H42            2.6999     3.3164    -0.0067 H       
  43 H43            1.4309     3.4494    -2.1329 H       
  44 H44           -0.0455     3.8575    -1.2262 H       
  45 H45            2.5390     5.4815    -1.2433 H       
  46 H46            1.0451     5.8987    -2.1165 H       
  47 H47            1.1975     7.1348     0.0277 H       
  48 H48           -0.1818     6.0097     0.0355 H       
  49 H49            2.5636     5.4686     1.2550 H       
  50 H50            1.0872     5.8768     2.1617 H       
  51 H51           -0.0209     3.8447     1.2721 H       
  52 H52            1.4730     3.4274     2.1453 H       
  53 H53            3.9243    -0.1033    -0.4700 H       
  54 H54            3.8400     1.6688    -0.6144 H       
  55 H55            6.3093     2.1559     3.1180 H       
  56 H56            5.0629     1.0220     3.7022 H       
  57 H57            5.8074     0.7117    -0.4124 H       
  58 H58            6.8015     1.9507     0.3982 H       
  59 H59            6.9148    -1.0682     0.8449 H       
  60 H60            8.1641    -0.0570     0.0790 H       
  61 H61            7.4205     0.2515     4.1810 H       
  62 H62            6.4917    -0.8918     3.1809 H       
  63 H63           10.0166    -2.7998     4.6778 H       
  64 H64           11.9373    -2.9185     3.1067 H       
  65 H65           11.9013    -1.4978     1.0690 H       
@<TRIPOS>BOND
   1    1    2 1
   2    1    5 2
   3    2    3 2
   4    2    6 1
   5    3    4 1
   6    3   35 1
   7    4    5 1
   8    4   20 1
   9    5   14 1
  10    6    7 ar
  11    6    8 ar
  12    7   11 ar
  13    7   36 1
  14    8    9 ar
  15    8   37 1
  16    9   10 ar
  17    9   12 1
  18   10   11 ar
  19   10   13 1
  20   11   38 1
  21   12   39 1
  22   12   40 1
  23   12   41 1
  24   14   15 1
  25   14   19 1
  26   14   42 1
  27   15   16 1
  28   15   43 1
  29   15   44 1
  30   16   17 1
  31   16   45 1
  32   16   46 1
  33   17   18 1
  34   17   47 1
  35   17   48 1
  36   18   19 1
  37   18   49 1
  38   18   50 1
  39   19   51 1
  40   19   52 1
  41   20   21 1
  42   20   53 1
  43   20   54 1
  44   21   22 2
  45   21   23 am
  46   23   24 1
  47   23   25 1
  48   24   28 1
  49   24   55 1
  50   24   56 1
  51   25   26 1
  52   25   57 1
  53   25   58 1
  54   26   27 1
  55   26   59 1
  56   26   60 1
  57   27   28 1
  58   27   29 1
  59   28   61 1
  60   28   62 1
  61   29   30 ar
  62   29   31 ar
  63   30   34 ar
  64   31   32 ar
  65   32   33 ar
  66   32   63 1
  67   33   34 ar
  68   33   64 1
  69   34   65 1

#	End of record

