#	Name: ASD03451006
#	Creating user name:	WinNT
#	Creation time:	15. 06. 2019 20:42

#	Modifying user name:	WinNT
#	Modification time:	15. 06. 2019 20:42

#	Program:	/corina/corina34_cracker 3.40 0067  02.08.2006

@<TRIPOS>MOLECULE
ASD03451006
  57   60    0    0    0
SMALL
NO_CHARGES


@<TRIPOS>ATOM
   1 C1             0.0923     1.5571    -0.1029 C.ar    
   2 C2             0.1164     0.1802    -0.2508 C.ar    
   3 C3             1.3172    -0.4933    -0.2666 C.ar    
   4 C4             2.5261     0.2027    -0.1338 C.ar    
   5 C5             2.5025     1.5947     0.0080 C.ar    
   6 C6             1.2690     2.2604     0.0254 C.ar    
   7 C7             3.7721    -0.5811    -0.1437 C.2     
   8 N8             4.7818    -0.3455     0.6225 N.2     
   9 C9             4.7711     0.7662     1.5736 C.3     
  10 C10            4.6562     2.0554     0.8095 C.2     
  11 N11            3.6265     2.3551     0.1244 N.2     
  12 C12            3.8720    -1.7129    -1.0944 C.ar    
  13 C13            3.0790    -1.7358    -2.2415 C.ar    
  14 C14            3.1769    -2.7925    -3.1234 C.ar    
  15 C15            4.0590    -3.8280    -2.8714 C.ar    
  16 C16            4.8482    -3.8110    -1.7353 C.ar    
  17 C17            4.7635    -2.7570    -0.8488 C.ar    
  18 C18            5.8043     3.0304     0.8569 C.3     
  19 C19            6.0500     3.4591     2.3049 C.3     
  20 C20            7.0639     2.3623     0.3020 C.3     
  21 N21            5.4781     4.2107     0.0454 N.3     
  22 C22            3.5943     0.6238     2.5041 C.2     
  23 S23            2.6773     1.9584     3.1908 S.3     
  24 C24            1.6272     0.8362     4.0460 C.2     
  25 C25            2.0027    -0.4165     3.7832 C.2     
  26 C26            3.0851    -0.5338     2.9284 C.2     
  27 C27            6.5770     5.1852     0.0681 C.3     
  28 C28            6.2012     6.3977    -0.7861 C.3     
  29 O29            5.0874     7.0700    -0.1949 O.3     
  30 C30            4.6540     8.2236    -0.9184 C.3     
  31 H31           -0.8520     2.0811    -0.0927 H       
  32 H32           -0.8092    -0.3667    -0.3536 H       
  33 H33            1.3274    -1.5670    -0.3821 H       
  34 H34            1.2415     3.3339     0.1405 H       
  35 H35            5.6969     0.7638     2.1490 H       
  36 H36            2.3895    -0.9283    -2.4389 H       
  37 H37            2.5634    -2.8114    -4.0120 H       
  38 H38            4.1316    -4.6533    -3.5643 H       
  39 H39            5.5350    -4.6222    -1.5439 H       
  40 H40            5.3801    -2.7447     0.0378 H       
  41 H41            6.2920     2.5833     2.9070 H       
  42 H42            6.8804     4.1643     2.3391 H       
  43 H43            5.1526     3.9350     2.7002 H       
  44 H44            6.8889     2.0569    -0.7296 H       
  45 H45            7.8943     3.0676     0.3362 H       
  46 H46            7.3060     1.4865     0.9041 H       
  47 H47            5.2484     3.9466    -0.9010 H       
  48 H48            0.8045     1.1182     4.6863 H       
  49 H49            1.4980    -1.2743     4.2025 H       
  50 H50            3.4910    -1.4900     2.6328 H       
  51 H51            6.7574     5.5056     1.0942 H       
  52 H52            7.4798     4.7242    -0.3326 H       
  53 H53            7.0495     7.0798    -0.8419 H       
  54 H54            5.9347     6.0665    -1.7897 H       
  55 H55            5.4703     8.9436    -0.9769 H       
  56 H56            4.3554     7.9303    -1.9248 H       
  57 H57            3.8058     8.6768    -0.4053 H       
@<TRIPOS>BOND
   1    1    2 ar
   2    1    6 ar
   3    1   31 1
   4    2    3 ar
   5    2   32 1
   6    3    4 ar
   7    3   33 1
   8    4    5 ar
   9    4    7 1
  10    5    6 ar
  11    5   11 1
  12    6   34 1
  13    7    8 2
  14    7   12 1
  15    8    9 1
  16    9   10 1
  17    9   22 1
  18    9   35 1
  19   10   11 2
  20   10   18 1
  21   12   13 ar
  22   12   17 ar
  23   13   14 ar
  24   13   36 1
  25   14   15 ar
  26   14   37 1
  27   15   16 ar
  28   15   38 1
  29   16   17 ar
  30   16   39 1
  31   17   40 1
  32   18   19 1
  33   18   20 1
  34   18   21 1
  35   19   41 1
  36   19   42 1
  37   19   43 1
  38   20   44 1
  39   20   45 1
  40   20   46 1
  41   21   27 1
  42   21   47 1
  43   22   23 1
  44   22   26 2
  45   23   24 1
  46   24   25 2
  47   24   48 1
  48   25   26 1
  49   25   49 1
  50   26   50 1
  51   27   28 1
  52   27   51 1
  53   27   52 1
  54   28   29 1
  55   28   53 1
  56   28   54 1
  57   29   30 1
  58   30   55 1
  59   30   56 1
  60   30   57 1

#	End of record

