#	Name: ASD00170294
#	Creating user name:	WinNT
#	Creation time:	15. 06. 2019 18:31

#	Modifying user name:	WinNT
#	Modification time:	15. 06. 2019 18:31

#	Program:	/corina/corina34_cracker 3.40 0067  02.08.2006

@<TRIPOS>MOLECULE
ASD00170294
  42   45    0    0    0
SMALL
NO_CHARGES


@<TRIPOS>ATOM
   1 C1            -0.1491     1.2849    -0.1064 C.2     
   2 C2            -0.0420    -0.0775    -0.0028 C.2     
   3 C3            -1.3215    -0.7414     0.1509 C.2     
   4 C4            -2.3475     0.1189     0.1594 C.2     
   5 S5            -1.7790     1.7695    -0.0125 S.3     
   6 C6             1.2375    -0.7915    -0.0437 C.2     
   7 C7             1.7754    -1.2603    -1.3261 C.2     
   8 O8             1.8547    -0.9959     0.9875 O.2     
   9 N9             0.9192     2.1474    -0.2600 N.pl3   
  10 S10            0.9965    -1.0674    -2.8906 S.3     
  11 C11            2.2813    -1.8645    -3.6811 C.2     
  12 C12            3.2212    -2.2412    -2.8066 C.2     
  13 C13            2.9645    -1.9115    -1.4963 C.2     
  14 C14           -1.5112    -2.2439     0.2905 C.3     
  15 C15           -2.9210    -2.4991     0.8333 C.3     
  16 N16           -3.8951    -1.7441     0.0321 N.3     
  17 C17           -3.7966    -0.3025     0.3052 C.3     
  18 C18           -5.2606    -2.2322     0.2666 C.3     
  19 C19           -6.2477    -1.2889    -0.3715 C.ar    
  20 C20           -6.6486    -1.4887    -1.6792 C.ar    
  21 C21           -7.5539    -0.6235    -2.2645 C.ar    
  22 C22           -8.0588     0.4413    -1.5418 C.ar    
  23 C23           -7.6585     0.6406    -0.2338 C.ar    
  24 C24           -6.7565    -0.2272     0.3529 C.ar    
  25 H25            1.8268     1.8075    -0.2190 H       
  26 H26            0.7617     3.0929    -0.4090 H       
  27 H27            2.3294    -2.0416    -4.7454 H       
  28 H28            4.1179    -2.7622    -3.1081 H       
  29 H29            3.6323    -2.1508    -0.6820 H       
  30 H30           -1.4001    -2.7208    -0.6833 H       
  31 H31           -0.7719    -2.6452     0.9837 H       
  32 H32           -3.1471    -3.5637     0.7722 H       
  33 H33           -2.9750    -2.1744     1.8724 H       
  34 H34           -4.1370    -0.0982     1.3203 H       
  35 H35           -4.4111     0.2477    -0.4074 H       
  36 H36           -5.3718    -3.2245    -0.1704 H       
  37 H37           -5.4488    -2.2842     1.3389 H       
  38 H38           -6.2542    -2.3207    -2.2438 H       
  39 H39           -7.8666    -0.7792    -3.2864 H       
  40 H40           -8.7656     1.1177    -1.9993 H       
  41 H41           -8.0527     1.4727     0.3307 H       
  42 H42           -6.4438    -0.0715     1.3748 H       
@<TRIPOS>BOND
   1    1    2 2
   2    1    9 1
   3    1    5 1
   4    2    3 1
   5    2    6 1
   6    3    4 2
   7    3   14 1
   8    4    5 1
   9    4   17 1
  10    6    7 1
  11    6    8 2
  12    7   10 1
  13    7   13 2
  14    9   25 1
  15    9   26 1
  16   10   11 1
  17   11   12 2
  18   11   27 1
  19   12   13 1
  20   12   28 1
  21   13   29 1
  22   14   15 1
  23   14   30 1
  24   14   31 1
  25   15   16 1
  26   15   32 1
  27   15   33 1
  28   16   17 1
  29   16   18 1
  30   17   34 1
  31   17   35 1
  32   18   19 1
  33   18   36 1
  34   18   37 1
  35   19   20 ar
  36   19   24 ar
  37   20   21 ar
  38   20   38 1
  39   21   22 ar
  40   21   39 1
  41   22   23 ar
  42   22   40 1
  43   23   24 ar
  44   23   41 1
  45   24   42 1

#	End of record

