#	Name: ASD07280002
#	Creating user name:	WinNT
#	Creation time:	15. 06. 2019 21:09

#	Modifying user name:	WinNT
#	Modification time:	15. 06. 2019 21:09

#	Program:	/corina/corina34_cracker 3.40 0067  02.08.2006

@<TRIPOS>MOLECULE
ASD07280002
  32   31    0    0    0
SMALL
NO_CHARGES


@<TRIPOS>ATOM
   1 C1             0.0263     1.5102     0.1493 C.2     
   2 N2             1.0899    -0.5219    -0.6534 N.3     
   3 C3            -0.1137     0.0178    -0.0070 C.3     
   4 C4            -0.2847    -0.6254     1.3707 C.3     
   5 C5            -0.5520    -2.1227     1.2049 C.3     
   6 C6            -0.5903    -2.7894     2.5814 C.3     
   7 C7            -1.8958    -2.3261     0.5021 C.3     
   8 O8             1.1243     2.0236     0.1098 O.2     
   9 N9            -1.0692     2.2748     0.3272 N.am    
  10 C10           -0.9331     3.7255     0.4791 C.3     
  11 C11           -0.8804     4.3803    -0.9027 C.3     
  12 C12           -2.1142     4.2634     1.2451 C.2     
  13 O13           -2.2036     5.5772     1.5052 O.3     
  14 O14           -2.9807     3.5120     1.6252 O.2     
  15 H15            1.9206    -0.2690    -0.1395 H       
  16 H16            1.0234    -1.5227    -0.7633 H       
  17 H17           -0.9863    -0.2029    -0.6218 H       
  18 H18            0.6244    -0.4810     1.9544 H       
  19 H19           -1.1253    -0.1612     1.8866 H       
  20 H20            0.2422    -2.5695     0.6067 H       
  21 H21           -1.4386    -2.4052     3.1478 H       
  22 H22           -0.6928    -3.8678     2.4601 H       
  23 H23            0.3334    -2.5703     3.1171 H       
  24 H24           -1.8685    -1.8511    -0.4785 H       
  25 H25           -2.0862    -3.3928     0.3840 H       
  26 H26           -2.6899    -1.8793     1.1003 H       
  27 H27           -1.9478     1.8646     0.3548 H       
  28 H28           -0.0151     3.9494     1.0225 H       
  29 H29           -1.7984     4.1564    -1.4461 H       
  30 H30           -0.7791     5.4596    -0.7897 H       
  31 H31           -0.0261     3.9912    -1.4568 H       
  32 H32           -2.9794     5.8751     1.9995 H       
@<TRIPOS>BOND
   1    1    3 1
   2    1    8 2
   3    1    9 am
   4    2    3 1
   5    2   15 1
   6    2   16 1
   7    3    4 1
   8    3   17 1
   9    4    5 1
  10    4   18 1
  11    4   19 1
  12    5    6 1
  13    5    7 1
  14    5   20 1
  15    6   21 1
  16    6   22 1
  17    6   23 1
  18    7   24 1
  19    7   25 1
  20    7   26 1
  21    9   10 1
  22    9   27 1
  23   10   11 1
  24   10   12 1
  25   10   28 1
  26   11   29 1
  27   11   30 1
  28   11   31 1
  29   12   13 1
  30   12   14 2
  31   13   32 1

#	End of record

