#	Name: ASD08150019
#	Creating user name:	WinNT
#	Creation time:	15. 06. 2019 21:15

#	Modifying user name:	WinNT
#	Modification time:	15. 06. 2019 21:15

#	Program:	/corina/corina34_cracker 3.40 0067  02.08.2006

@<TRIPOS>MOLECULE
ASD08150019
  42   46    0    0    0
SMALL
NO_CHARGES


@<TRIPOS>ATOM
   1 N1            -0.0155     1.2942     0.0092 N.2     
   2 C2             0.0021    -0.0041     0.0020 C.2     
   3 N3             1.1490    -0.7360    -0.0129 N.am    
   4 C4             2.3562    -0.1242    -0.0206 C.2     
   5 C5             2.3701     1.3458    -0.0129 C.ar    
   6 C6             3.5601     2.0713    -0.0203 C.ar    
   7 C7             3.5163     3.4481    -0.0130 C.ar    
   8 C8             2.2989     4.1163     0.0016 C.ar    
   9 C9             1.1110     3.4184     0.0092 C.ar    
  10 C10            1.1297     2.0210     0.0021 C.ar    
  11 O11            3.3904    -0.7663    -0.0331 O.2     
  12 C12           -1.3144    -0.7374     0.0112 C.3     
  13 S13           -2.6718     0.4599     0.0311 S.3     
  14 N14           -5.9165     1.0931     0.0666 N.2     
  15 C15           -7.2138     0.9885     0.0790 C.2     
  16 N16           -7.5749    -0.3261     0.0761 N.pl3   
  17 C17           -6.4217    -1.0692     0.0610 C.ar    
  18 N18           -6.1427    -2.3688     0.0515 N.ar    
  19 C19           -4.8945    -2.7873     0.0367 C.ar    
  20 N20           -3.8684    -1.9567     0.0300 N.ar    
  21 C21           -4.0490    -0.6391     0.0388 C.ar    
  22 C22           -5.3646    -0.1438     0.0550 C.ar    
  23 C23            1.0796    -2.1352    -0.0197 C.ar    
  24 C24            1.0566    -2.8374     1.1796 C.ar    
  25 C25            0.9877    -4.2175     1.1688 C.ar    
  26 C26            0.9421    -4.8994    -0.0336 C.ar    
  27 C27            0.9654    -4.2033    -1.2279 C.ar    
  28 C28            1.0280    -2.8232    -1.2242 C.ar    
  29 Cl29           1.1150    -1.9818     2.6890 Cl      
  30 Cl30          -0.4013     4.2706     0.0281 Cl      
  31 H31            4.5101     1.5576    -0.0314 H       
  32 H32            4.4368     4.0130    -0.0184 H       
  33 H33            2.2831     5.1961     0.0075 H       
  34 H34           -1.3907    -1.3583    -0.8815 H       
  35 H35           -1.3730    -1.3678     0.8984 H       
  36 H36           -7.9025     1.8203     0.0899 H       
  37 H37           -8.4809    -0.6725     0.0834 H       
  38 H38           -4.7028    -3.8502     0.0297 H       
  39 H39            0.9698    -4.7642     2.1001 H       
  40 H40            0.8887    -5.9781    -0.0395 H       
  41 H41            0.9304    -4.7390    -2.1650 H       
  42 H42            1.0412    -2.2803    -2.1577 H       
@<TRIPOS>BOND
   1    1    2 2
   2    1   10 1
   3    2    3 1
   4    2   12 1
   5    3    4 am
   6    3   23 1
   7    4    5 1
   8    4   11 2
   9    5    6 ar
  10    5   10 ar
  11    6    7 ar
  12    6   31 1
  13    7    8 ar
  14    7   32 1
  15    8    9 ar
  16    8   33 1
  17    9   10 ar
  18    9   30 1
  19   12   13 1
  20   12   34 1
  21   12   35 1
  22   13   21 1
  23   14   15 2
  24   14   22 1
  25   15   16 1
  26   15   36 1
  27   16   17 1
  28   16   37 1
  29   17   18 ar
  30   17   22 ar
  31   18   19 ar
  32   19   20 ar
  33   19   38 1
  34   20   21 ar
  35   21   22 ar
  36   23   24 ar
  37   23   28 ar
  38   24   25 ar
  39   24   29 1
  40   25   26 ar
  41   25   39 1
  42   26   27 ar
  43   26   40 1
  44   27   28 ar
  45   27   41 1
  46   28   42 1

#	End of record

