#	Name: ASD03330895
#	Creating user name:	WinNT
#	Creation time:	15. 06. 2019 20:38

#	Modifying user name:	WinNT
#	Modification time:	15. 06. 2019 20:38

#	Program:	/corina/corina34_cracker 3.40 0067  02.08.2006

@<TRIPOS>MOLECULE
ASD03330895
  62   65    0    0    0
SMALL
NO_CHARGES


@<TRIPOS>ATOM
   1 C1            -0.0199     1.2413     0.1836 C.2     
   2 C2            -0.0397    -0.2328     0.4955 C.3     
   3 N3             1.1232     1.9841     0.1140 N.pl3   
   4 N4             1.3297    -0.7518     0.3264 N.3     
   5 C5             2.3052     0.0775     1.0478 C.3     
   6 C6             2.4610     1.4307     0.3419 C.3     
   7 C7             0.7638     3.2588    -0.1896 C.2     
   8 N8            -0.5452     3.3086    -0.3007 N.2     
   9 C9            -1.0560     2.0750    -0.0798 C.2     
  10 C10           -2.4818     1.7053    -0.1159 C.2     
  11 O11           -2.8181     0.5572     0.1036 O.2     
  12 N12           -3.4134     2.6392    -0.3923 N.am    
  13 C13            1.6895     4.3984    -0.3654 C.ar    
  14 C14            1.4280     5.6180     0.2650 C.ar    
  15 C15            2.2963     6.6796     0.0972 C.ar    
  16 C16            3.4237     6.5367    -0.6944 C.ar    
  17 C17            3.6880     5.3277    -1.3228 C.ar    
  18 C18            2.8301     4.2583    -1.1568 C.ar    
  19 F19            4.7895     5.1951    -2.0936 F       
  20 F20            4.2690     7.5781    -0.8560 F       
  21 F21            0.3281     5.7588     1.0368 F       
  22 C22           -5.5780     3.2366    -1.3125 C.2     
  23 C23           -4.8311     2.2715    -0.4283 C.3     
  24 C24           -5.4081     2.3259     0.9877 C.3     
  25 C25           -5.3316     3.7602     1.5149 C.3     
  26 O26           -5.1614     4.3652    -1.4662 O.2     
  27 N27           -6.7090     2.8455    -1.9325 N.am    
  28 C28           -7.4935     3.8128    -2.7039 C.3     
  29 C29           -6.8682     1.8694     0.9612 C.3     
  30 C30           -4.6016     1.4024     1.9029 C.3     
  31 C31            1.4120    -2.0801     0.7274 C.ar    
  32 C32            2.6253    -2.7599     0.6473 C.ar    
  33 N33            0.3365    -2.7023     1.1926 N.ar    
  34 N34            2.7000    -4.0206     1.0292 N.ar    
  35 C35            1.6251    -4.6394     1.4877 C.ar    
  36 C36            0.4192    -3.9669     1.5738 C.ar    
  37 Cl37          -0.9870    -4.7826     2.1827 Cl      
  38 H38           -0.3682    -0.3877     1.5232 H       
  39 H39           -0.7153    -0.7454    -0.1893 H       
  40 H40            1.9587     0.2392     2.0685 H       
  41 H41            3.2682    -0.4326     1.0698 H       
  42 H42            2.9688     1.2913    -0.6124 H       
  43 H43            3.0376     2.1093     0.9704 H       
  44 H44           -3.1452     3.5548    -0.5675 H       
  45 H45            2.0954     7.6225     0.5839 H       
  46 H46            3.0391     3.3167    -1.6426 H       
  47 H47           -4.9345     1.2613    -0.8243 H       
  48 H48           -5.9062     4.4180     0.8629 H       
  49 H49           -5.7427     3.7989     2.5236 H       
  50 H50           -4.2914     4.0854     1.5337 H       
  51 H51           -7.0035     1.9235    -1.8680 H       
  52 H52           -8.3661     3.3166    -3.1287 H       
  53 H53           -7.8182     4.6216    -2.0494 H       
  54 H54           -6.8799     4.2198    -3.5076 H       
  55 H55           -6.9170     0.8256     0.6512 H       
  56 H56           -7.2994     1.9732     1.9569 H       
  57 H57           -7.4284     2.4843     0.2568 H       
  58 H58           -3.5614     1.7276     1.9217 H       
  59 H59           -5.0127     1.4412     2.9116 H       
  60 H60           -4.6561     0.3806     1.5273 H       
  61 H61            3.5038    -2.2556     0.2726 H       
  62 H62            1.6896    -5.6715     1.7991 H       
@<TRIPOS>BOND
   1    1    2 1
   2    1    3 1
   3    1    9 2
   4    2    4 1
   5    2   38 1
   6    2   39 1
   7    3    6 1
   8    3    7 1
   9    4    5 1
  10    4   31 1
  11    5    6 1
  12    5   40 1
  13    5   41 1
  14    6   42 1
  15    6   43 1
  16    7    8 2
  17    7   13 1
  18    8    9 1
  19    9   10 1
  20   10   11 2
  21   10   12 am
  22   12   23 1
  23   12   44 1
  24   13   14 ar
  25   13   18 ar
  26   14   15 ar
  27   14   21 1
  28   15   16 ar
  29   15   45 1
  30   16   17 ar
  31   16   20 1
  32   17   18 ar
  33   17   19 1
  34   18   46 1
  35   22   26 2
  36   22   27 am
  37   22   23 1
  38   23   24 1
  39   23   47 1
  40   24   25 1
  41   24   29 1
  42   24   30 1
  43   25   48 1
  44   25   49 1
  45   25   50 1
  46   27   28 1
  47   27   51 1
  48   28   52 1
  49   28   53 1
  50   28   54 1
  51   29   55 1
  52   29   56 1
  53   29   57 1
  54   30   58 1
  55   30   59 1
  56   30   60 1
  57   31   32 ar
  58   31   33 ar
  59   32   34 ar
  60   32   61 1
  61   33   36 ar
  62   34   35 ar
  63   35   36 ar
  64   35   62 1
  65   36   37 1

#	End of record

