#	Name: ASD02030445
#	Creating user name:	WinNT
#	Creation time:	15. 06. 2019 20:15

#	Modifying user name:	WinNT
#	Modification time:	15. 06. 2019 20:15

#	Program:	/corina/corina34_cracker 3.40 0067  02.08.2006

@<TRIPOS>MOLECULE
ASD02030445
  23   24    0    0    0
SMALL
NO_CHARGES


@<TRIPOS>ATOM
   1 N1            -0.0154     1.2845     0.0091 N.2     
   2 N2             0.0021    -0.0041     0.0020 N.pl3   
   3 N3             1.2219    -0.4146    -0.0118 N.2     
   4 N4             2.0092     0.6071    -0.0139 N.2     
   5 C5             1.2366     1.7049    -0.0006 C.2     
   6 C6             1.6973     3.1099     0.0026 C.2     
   7 O7             0.8870     4.0146     0.0151 O.2     
   8 O8             3.0155     3.3865    -0.0085 O.3     
   9 C9            -1.1308    -0.8299     0.0091 C.ar    
  10 C10           -0.9851    -2.2108     0.0002 C.ar    
  11 C11           -3.3665    -2.4597     0.0230 C.ar    
  12 C12           -2.4004    -0.2687     0.0308 C.ar    
  13 C13           -2.1029    -3.0217     0.0072 C.ar    
  14 C14           -3.5147    -1.0851     0.0377 C.ar    
  15 C15           -1.9458    -4.5204    -0.0029 C.3     
  16 H16            3.2683     4.3198    -0.0059 H       
  17 H17            0.0014    -2.6503    -0.0125 H       
  18 H18           -4.2393    -3.0958     0.0281 H       
  19 H19           -2.5167     0.8049     0.0426 H       
  20 H20           -4.5027    -0.6491     0.0497 H       
  21 H21           -1.8972    -4.8876     1.0222 H       
  22 H22           -2.7983    -4.9717    -0.5105 H       
  23 H23           -1.0281    -4.7860    -0.5278 H       
@<TRIPOS>BOND
   1    1    2 1
   2    1    5 2
   3    2    3 1
   4    2    9 1
   5    3    4 2
   6    4    5 1
   7    5    6 1
   8    6    7 2
   9    6    8 1
  10    8   16 1
  11    9   10 ar
  12    9   12 ar
  13   10   13 ar
  14   10   17 1
  15   11   13 ar
  16   11   14 ar
  17   11   18 1
  18   12   14 ar
  19   12   19 1
  20   13   15 1
  21   14   20 1
  22   15   21 1
  23   15   22 1
  24   15   23 1

#	End of record

