#	Name: ASD07930309
#	Creating user name:	WinNT
#	Creation time:	15. 06. 2019 21:12

#	Modifying user name:	WinNT
#	Modification time:	15. 06. 2019 21:12

#	Program:	/corina/corina34_cracker 3.40 0067  02.08.2006

@<TRIPOS>MOLECULE
ASD07930309
  47   48    0    0    0
SMALL
NO_CHARGES


@<TRIPOS>ATOM
   1 N1             0.0680     1.4483     0.1956 N.pl3   
   2 C2             0.0021    -0.0041     0.0020 C.3     
   3 C3             0.5411    -0.7051     1.2571 C.3     
   4 N4             2.0240     1.5681     1.4956 N.am    
   5 C5             1.2700     2.0504     0.4502 C.2     
   6 C6            -1.4286    -0.4167    -0.2300 C.ar    
   7 C7            -1.7116    -1.5348    -0.9953 C.ar    
   8 C8             2.6223     2.4636     2.4888 C.3     
   9 C9             0.8516    -0.3977    -1.2081 C.3     
  10 C10           -2.4606     0.3189     0.3267 C.ar    
  11 C11           -3.7749    -0.0614     0.1132 C.ar    
  12 C12           -4.0564    -1.1750    -0.6554 C.ar    
  13 C13           -3.0266    -1.9133    -1.2074 C.ar    
  14 F14           -0.7052    -2.2564    -1.5354 F       
  15 F15           -2.1857     1.4073     1.0785 F       
  16 N16            1.6948     3.0652    -0.2866 N.2     
  17 O17            1.3776     4.5519    -2.0495 O.3     
  18 C18            0.5259     4.9827    -3.1130 C.3     
  19 C19           -0.8213     5.4266    -2.5396 C.3     
  20 C20            1.1793     6.1557    -3.8465 C.3     
  21 C21            0.3077     3.8271    -4.0917 C.3     
  22 C22            0.9447     3.5176    -1.2986 C.2     
  23 O23           -0.1282     2.9961    -1.5415 O.2     
  24 S24            2.2227    -0.0843     1.5768 S.o2    
  25 O25            2.6049    -0.3330     2.9226 O.2     
  26 O26            3.0891    -0.3941     0.4939 O.2     
  27 H27           -0.7397     1.9824     0.1392 H       
  28 H28           -0.1017    -0.4809     2.1084 H       
  29 H29            0.5718    -1.7822     1.0923 H       
  30 H30            2.3679     3.4957     2.2473 H       
  31 H31            2.2383     2.2168     3.4786 H       
  32 H32            3.7057     2.3447     2.4793 H       
  33 H33            1.8205     0.0981    -1.1485 H       
  34 H34            0.9961    -1.4780    -1.2146 H       
  35 H35            0.3435    -0.0935    -2.1231 H       
  36 H36           -4.5802     0.5121     0.5478 H       
  37 H37           -5.0817    -1.4710    -0.8214 H       
  38 H38           -3.2478    -2.7831    -1.8082 H       
  39 H39           -0.6659     6.2499    -1.8423 H       
  40 H40           -1.4710     5.7552    -3.3508 H       
  41 H41           -1.2869     4.5910    -2.0170 H       
  42 H42            2.1391     5.8395    -4.2551 H       
  43 H43            0.5297     6.4843    -4.6577 H       
  44 H44            1.3348     6.9790    -3.1493 H       
  45 H45           -0.1579     2.9914    -3.5692 H       
  46 H46           -0.3420     4.1557    -4.9029 H       
  47 H47            1.2675     3.5109    -4.5003 H       
@<TRIPOS>BOND
   1    1    2 1
   2    1    5 1
   3    1   27 1
   4    2    3 1
   5    2    6 1
   6    2    9 1
   7    3   24 1
   8    3   28 1
   9    3   29 1
  10    4    5 1
  11    4    8 1
  12    4   24 am
  13    5   16 2
  14    6   10 ar
  15    6    7 ar
  16    7   14 1
  17    7   13 ar
  18    8   30 1
  19    8   31 1
  20    8   32 1
  21    9   33 1
  22    9   34 1
  23    9   35 1
  24   10   11 ar
  25   10   15 1
  26   11   12 ar
  27   11   36 1
  28   12   13 ar
  29   12   37 1
  30   13   38 1
  31   16   22 1
  32   17   18 1
  33   17   22 1
  34   18   19 1
  35   18   20 1
  36   18   21 1
  37   19   39 1
  38   19   40 1
  39   19   41 1
  40   20   42 1
  41   20   43 1
  42   20   44 1
  43   21   45 1
  44   21   46 1
  45   21   47 1
  46   22   23 2
  47   24   25 2
  48   24   26 2

#	End of record

