#	Name: ASD01884158
#	Creating user name:	WinNT
#	Creation time:	15. 06. 2019 19:47

#	Modifying user name:	WinNT
#	Modification time:	15. 06. 2019 19:47

#	Program:	/corina/corina34_cracker 3.40 0067  02.08.2006

@<TRIPOS>MOLECULE
ASD01884158
  43   45    0    0    0
SMALL
NO_CHARGES


@<TRIPOS>ATOM
   1 C1            -0.2463     1.4745    -0.5820 C.ar    
   2 C2             0.1335     0.4283     0.2527 C.ar    
   3 C3            -0.8675    -0.3549     0.8323 C.ar    
   4 C4            -2.1871    -0.0685     0.5612 C.ar    
   5 N5            -2.5149     0.9323    -0.2360 N.ar    
   6 C6            -1.5977     1.7033    -0.8023 C.ar    
   7 N7            -1.9927     2.7449    -1.6342 N.pl3   
   8 N8             1.4778     0.1680     0.5036 N.3     
   9 C9             1.7766     0.2788     1.9371 C.3     
  10 C10            3.2836     0.1309     2.1583 C.3     
  11 C11            3.7416    -1.2298     1.6261 C.3     
  12 C12            3.3753    -1.3387     0.1433 C.3     
  13 C13            1.8655    -1.1482    -0.0195 C.3     
  14 N14           -3.3204     2.9703    -1.8631 N.3     
  15 C15            0.7936     2.3502    -1.2323 C.3     
  16 F16            2.0140     1.6680    -1.2802 F       
  17 F17            0.3869     2.6704    -2.5321 F       
  18 F18            0.9451     3.5253    -0.4883 F       
  19 C19            5.2346    -1.3569     1.7866 C.ar    
  20 C20            5.7626    -2.3755     2.5576 C.ar    
  21 C21            7.1322    -2.4920     2.7050 C.ar    
  22 C22            7.9737    -1.5902     2.0809 C.ar    
  23 C23            7.4457    -0.5721     1.3091 C.ar    
  24 C24            6.0763    -0.4582     1.1583 C.ar    
  25 H25           -0.6096    -1.1756     1.4852 H       
  26 H26           -2.9650    -0.6711     1.0065 H       
  27 H27           -1.3254     3.3116    -2.0520 H       
  28 H28            1.4498     1.2525     2.3020 H       
  29 H29            1.2510    -0.5072     2.4794 H       
  30 H30            3.8090     0.9248     1.6275 H       
  31 H31            3.5033     0.1976     3.2238 H       
  32 H32            3.2454    -2.0246     2.1831 H       
  33 H33            3.9021    -0.5679    -0.4192 H       
  34 H34            3.6604    -2.3220    -0.2307 H       
  35 H35            1.3396    -1.9275     0.5320 H       
  36 H36            1.6034    -1.2109    -1.0756 H       
  37 H37           -3.4522     3.7551    -2.4834 H       
  38 H38           -3.7703     2.1432    -2.2258 H       
  39 H39            5.1052    -3.0801     3.0452 H       
  40 H40            7.5447    -3.2874     3.3079 H       
  41 H41            9.0436    -1.6808     2.1965 H       
  42 H42            8.1031     0.1327     0.8218 H       
  43 H43            5.6639     0.3350     0.5523 H       
@<TRIPOS>BOND
   1    1    2 ar
   2    1   15 1
   3    1    6 ar
   4    2    3 ar
   5    2    8 1
   6    3    4 ar
   7    3   25 1
   8    4    5 ar
   9    4   26 1
  10    5    6 ar
  11    6    7 1
  12    7   14 1
  13    7   27 1
  14    8    9 1
  15    8   13 1
  16    9   10 1
  17    9   28 1
  18    9   29 1
  19   10   11 1
  20   10   30 1
  21   10   31 1
  22   11   12 1
  23   11   19 1
  24   11   32 1
  25   12   13 1
  26   12   33 1
  27   12   34 1
  28   13   35 1
  29   13   36 1
  30   14   37 1
  31   14   38 1
  32   15   16 1
  33   15   17 1
  34   15   18 1
  35   19   20 ar
  36   19   24 ar
  37   20   21 ar
  38   20   39 1
  39   21   22 ar
  40   21   40 1
  41   22   23 ar
  42   22   41 1
  43   23   24 ar
  44   23   42 1
  45   24   43 1

#	End of record

