#	Name: ASD04840002
#	Creating user name:	WinNT
#	Creation time:	15. 06. 2019 20:52

#	Modifying user name:	WinNT
#	Modification time:	15. 06. 2019 20:52

#	Program:	/corina/corina34_cracker 3.40 0067  02.08.2006

@<TRIPOS>MOLECULE
ASD04840002
  24   25    0    0    0
SMALL
NO_CHARGES


@<TRIPOS>ATOM
   1 C1            -0.0168     1.3850     0.0097 C.ar    
   2 C2             0.0021    -0.0041     0.0020 C.ar    
   3 C3            -1.1766    -0.7113     0.0095 C.ar    
   4 C4            -2.4029    -0.0402     0.0243 C.ar    
   5 C5            -2.4313     1.3570     0.0321 C.ar    
   6 C6            -1.2092     2.0635     0.0304 C.ar    
   7 Cl7            1.4779     2.2679     0.0001 Cl      
   8 S8            -4.0472    -0.6658     0.0360 S.3     
   9 C9            -4.7328     0.9474     0.0510 C.2     
  10 C10           -3.7916     1.8703     0.0473 C.2     
  11 C11           -4.1019     3.3450     0.0586 C.3     
  12 C12           -6.2107     1.2418     0.0661 C.3     
  13 C13           -6.7165     1.3470    -1.3495 C.2     
  14 O14           -8.0130     1.6061    -1.5815 O.3     
  15 O15           -5.9550     1.1982    -2.2758 O.2     
  16 H16            0.9454    -0.5298    -0.0102 H       
  17 H17           -1.1552    -1.7911     0.0034 H       
  18 H18           -1.2129     3.1434     0.0367 H       
  19 H19           -4.1674     3.6946     1.0890 H       
  20 H20           -3.3104     3.8867    -0.4592 H       
  21 H21           -5.0522     3.5202    -0.4456 H       
  22 H22           -6.7362     0.4374     0.5809 H       
  23 H23           -6.3884     2.1830     0.5863 H       
  24 H24           -8.2904     1.6642    -2.5060 H       
@<TRIPOS>BOND
   1    1    2 ar
   2    1    7 1
   3    1    6 ar
   4    2    3 ar
   5    2   16 1
   6    3    4 ar
   7    3   17 1
   8    4    5 ar
   9    4    8 1
  10    5    6 ar
  11    5   10 1
  12    6   18 1
  13    8    9 1
  14    9   10 2
  15    9   12 1
  16   10   11 1
  17   11   19 1
  18   11   20 1
  19   11   21 1
  20   12   13 1
  21   12   22 1
  22   12   23 1
  23   13   14 1
  24   13   15 2
  25   14   24 1

#	End of record

