#	Name: ASD01001172
#	Creating user name:	WinNT
#	Creation time:	15. 06. 2019 18:55

#	Modifying user name:	WinNT
#	Modification time:	15. 06. 2019 18:55

#	Program:	/corina/corina34_cracker 3.40 0067  02.08.2006

@<TRIPOS>MOLECULE
ASD01001172
  45   48    0    0    0
SMALL
NO_CHARGES


@<TRIPOS>ATOM
   1 C1            -0.0167     1.3781     0.0096 C.ar    
   2 C2             0.0021    -0.0041     0.0020 C.ar    
   3 C3             1.1709     2.0855     0.0021 C.ar    
   4 C4             1.2084    -0.6789    -0.0132 C.ar    
   5 C5             2.3773     1.4107    -0.0131 C.ar    
   6 C6             2.3960     0.0285    -0.0212 C.ar    
   7 C7             1.2289    -2.1857    -0.0205 C.3     
   8 C8             1.4718    -2.6893    -1.4441 C.3     
   9 N9             2.3157    -2.6672     0.8360 N.3     
  10 C10            0.5270    -2.0087    -2.4267 C.3     
  11 C11            1.2802    -4.2048    -1.4582 C.3     
  12 C12            2.5340    -4.0403     0.7345 C.ar    
  13 C13           -0.9148    -2.4406    -2.1441 C.3     
  14 C14            2.0758    -4.8071    -0.3223 C.ar    
  15 O15           -0.0983    -4.5266    -1.2560 O.3     
  16 C16            3.2561    -4.6549     1.7599 C.ar    
  17 C17           -0.9913    -3.9691    -2.2197 C.3     
  18 C18            2.3405    -6.1659    -0.3598 C.ar    
  19 C19            3.5141    -6.0082     1.7181 C.ar    
  20 C20            3.0573    -6.7672     0.6565 C.ar    
  21 C21            3.3416    -8.2463     0.6077 C.3     
  22 C22            3.7569    -3.8329     2.9194 C.3     
  23 H23           -0.9592     1.9054     0.0170 H       
  24 H24           -0.9258    -0.5567     0.0083 H       
  25 H25            1.1563     3.1654     0.0077 H       
  26 H26            3.3051     1.9634    -0.0197 H       
  27 H27            3.3385    -0.4987    -0.0327 H       
  28 H28            0.2751    -2.5665     0.3448 H       
  29 H29            2.5004    -2.4672    -1.7284 H       
  30 H30            3.1663    -2.1522     0.6647 H       
  31 H31            0.6090    -0.9272    -2.3185 H       
  32 H32            0.7971    -2.2915    -3.4442 H       
  33 H33            1.6299    -4.6106    -2.4075 H       
  34 H34           -1.2077    -2.1084    -1.1481 H       
  35 H35           -1.5803    -2.0037    -2.8886 H       
  36 H36           -2.0092    -4.2945    -2.0049 H       
  37 H37           -0.7039    -4.2998    -3.2177 H       
  38 H38            1.9839    -6.7593    -1.1887 H       
  39 H39            4.0729    -6.4760     2.5152 H       
  40 H40            4.2845    -8.4181     0.0885 H       
  41 H41            3.4094    -8.6369     1.6230 H       
  42 H42            2.5365    -8.7537     0.0762 H       
  43 H43            3.0025    -3.8169     3.7060 H       
  44 H44            4.6761    -4.2727     3.3064 H       
  45 H45            3.9543    -2.8146     2.5845 H       
@<TRIPOS>BOND
   1    1    2 ar
   2    1    3 ar
   3    1   23 1
   4    2    4 ar
   5    2   24 1
   6    3    5 ar
   7    3   25 1
   8    4    6 ar
   9    4    7 1
  10    5    6 ar
  11    5   26 1
  12    6   27 1
  13    7    8 1
  14    7    9 1
  15    7   28 1
  16    8   10 1
  17    8   11 1
  18    8   29 1
  19    9   12 1
  20    9   30 1
  21   10   13 1
  22   10   31 1
  23   10   32 1
  24   11   14 1
  25   11   15 1
  26   11   33 1
  27   12   14 ar
  28   12   16 ar
  29   13   17 1
  30   13   34 1
  31   13   35 1
  32   14   18 ar
  33   15   17 1
  34   16   22 1
  35   16   19 ar
  36   17   36 1
  37   17   37 1
  38   18   20 ar
  39   18   38 1
  40   19   20 ar
  41   19   39 1
  42   20   21 1
  43   21   40 1
  44   21   41 1
  45   21   42 1
  46   22   43 1
  47   22   44 1
  48   22   45 1

#	End of record

