#	Name: ASD03490067
#	Creating user name:	WinNT
#	Creation time:	15. 06. 2019 20:42

#	Modifying user name:	WinNT
#	Modification time:	15. 06. 2019 20:42

#	Program:	/corina/corina34_cracker 3.40 0067  02.08.2006

@<TRIPOS>MOLECULE
ASD03490067
  46   46    0    0    0
SMALL
NO_CHARGES


@<TRIPOS>ATOM
   1 O1            -0.0173     1.4248     0.0099 O.3     
   2 C2             0.0021    -0.0041     0.0020 C.3     
   3 C3            -1.4333    -0.5336     0.0129 C.3     
   4 C4            -1.4133    -2.0590     0.1302 C.3     
   5 O5            -2.0889    -0.1578    -1.2000 O.3     
   6 C6            -2.8486    -2.5886     0.1411 C.3     
   7 O7            -0.7577    -2.4349     1.3431 O.3     
   8 O8            -3.5856    -1.9467     1.1837 O.3     
   9 C9            -2.8334    -4.0999     0.3849 C.3     
  10 C10           -4.2752    -4.6126     0.4544 C.3     
  11 C11           -5.0228    -3.8537     1.5550 C.3     
  12 C12           -4.9535    -2.3519     1.2660 C.3     
  13 O13           -5.6082    -2.0744     0.0265 O.3     
  14 N14           -2.1294    -4.7659    -0.7137 N.am    
  15 C15           -1.5493    -5.9658    -0.5131 C.2     
  16 C16           -0.8250    -6.6510    -1.6433 C.3     
  17 O17           -1.6101    -6.4942     0.5768 O.2     
  18 O18           -4.2718    -6.0097     0.7547 O.3     
  19 C19           -5.6360    -1.5945     2.3758 C.2     
  20 O20           -5.0416    -0.7257     2.9688 O.2     
  21 O21           -6.9043    -1.8852     2.7054 O.3     
  22 C22           -8.9358    -1.5852     4.0145 C.3     
  23 C23           -7.4981    -1.1154     3.7840 C.3     
  24 H24            0.8606     1.8301     0.0037 H       
  25 H25            0.5123    -0.3556    -0.8948 H       
  26 H26            0.5293    -0.3651     0.8851 H       
  27 H27           -1.9701    -0.1109     0.8621 H       
  28 H28           -0.8764    -2.4817    -0.7190 H       
  29 H29           -1.6646    -0.4999    -1.9987 H       
  30 H30           -3.3204    -2.3799    -0.8191 H       
  31 H31           -1.1820    -2.0928     2.1418 H       
  32 H32           -2.3257    -4.3120     1.3258 H       
  33 H33           -4.7682    -4.4453    -0.5033 H       
  34 H34           -6.0647    -4.1732     1.5745 H       
  35 H35           -4.5593    -4.0608     2.5196 H       
  36 H36           -5.6028    -1.1395    -0.2205 H       
  37 H37           -2.0807    -4.3434    -1.5855 H       
  38 H38            0.2221    -6.3483    -1.6402 H       
  39 H39           -0.8913    -7.7314    -1.5152 H       
  40 H40           -1.2821    -6.3688    -2.5917 H       
  41 H41           -5.1539    -6.4014     0.8139 H       
  42 H42           -8.9344    -2.6422     4.2805 H       
  43 H43           -9.3815    -1.0073     4.8241 H       
  44 H44           -9.5158    -1.4408     3.1029 H       
  45 H45           -6.9181    -1.2598     4.6955 H       
  46 H46           -7.4995    -0.0584     3.5179 H       
@<TRIPOS>BOND
   1    1    2 1
   2    1   24 1
   3    2    3 1
   4    2   25 1
   5    2   26 1
   6    3    4 1
   7    3    5 1
   8    3   27 1
   9    4    7 1
  10    4    6 1
  11    4   28 1
  12    5   29 1
  13    6    8 1
  14    6    9 1
  15    6   30 1
  16    7   31 1
  17    8   12 1
  18    9   10 1
  19    9   14 1
  20    9   32 1
  21   10   11 1
  22   10   18 1
  23   10   33 1
  24   11   12 1
  25   11   34 1
  26   11   35 1
  27   12   13 1
  28   12   19 1
  29   13   36 1
  30   14   15 am
  31   14   37 1
  32   15   16 1
  33   15   17 2
  34   16   38 1
  35   16   39 1
  36   16   40 1
  37   18   41 1
  38   19   20 2
  39   19   21 1
  40   21   23 1
  41   22   23 1
  42   22   42 1
  43   22   43 1
  44   22   44 1
  45   23   45 1
  46   23   46 1

#	End of record

