#	Name: ASD01148775
#	Creating user name:	WinNT
#	Creation time:	15. 06. 2019 19:03

#	Modifying user name:	WinNT
#	Modification time:	15. 06. 2019 19:03

#	Program:	/corina/corina34_cracker 3.40 0067  02.08.2006

@<TRIPOS>MOLECULE
ASD01148775
  51   53    0    0    0
SMALL
NO_CHARGES


@<TRIPOS>ATOM
   1 N1             0.0087     1.3298    -0.2649 N.pl3   
   2 C2             0.0300    -0.0175    -0.1866 C.2     
   3 C3             1.3109    -0.4106     0.1408 C.2     
   4 C4             2.0887     0.7709     0.2625 C.2     
   5 C5             1.2646     1.8192     0.0086 C.2     
   6 C6             1.7816    -1.7920     0.3290 C.2     
   7 O7             1.0091    -2.7208     0.1956 O.2     
   8 O8             3.0695    -2.0273     0.6494 O.3     
   9 C9            -1.1139     2.1066    -0.5807 C.ar    
  10 C10           -1.7047     2.9030     0.3915 C.ar    
  11 C11           -2.8106     3.6678     0.0771 C.ar    
  12 C12           -3.3299     3.6412    -1.2045 C.ar    
  13 C13           -2.7442     2.8490    -2.1745 C.ar    
  14 C14           -1.6342     2.0860    -1.8676 C.ar    
  15 S15           -3.5614     4.6782     1.3100 S.o2    
  16 O16           -4.9123     4.8018     0.8870 O.2     
  17 O17           -3.2330     4.0380     2.5354 O.2     
  18 C18           -2.7036     6.2708     1.1740 C.3     
  19 C19           -1.1438    -0.9343    -0.4165 C.3     
  20 C20           -1.2071    -1.3207    -1.8955 C.3     
  21 C21            1.6519     3.2464     0.0229 C.ar    
  22 C22            2.7917     3.6560     0.7161 C.ar    
  23 C23            3.1480     4.9886     0.7259 C.ar    
  24 C24            2.3771     5.9191     0.0497 C.ar    
  25 C25            1.2449     5.5187    -0.6395 C.ar    
  26 C26            0.8822     4.1879    -0.6616 C.ar    
  27 Cl27           2.8318     7.5945     0.0665 Cl      
  28 C28            3.4636    -3.4144     0.8197 C.3     
  29 C29            4.9495    -3.4821     1.1781 C.3     
  30 H30            3.1385     0.8254     0.5103 H       
  31 H31           -1.2999     2.9239     1.3925 H       
  32 H32           -4.1949     4.2403    -1.4480 H       
  33 H33           -3.1521     2.8300    -3.1743 H       
  34 H34           -1.1744     1.4708    -2.6268 H       
  35 H35           -2.8472     6.6765     0.1726 H       
  36 H36           -3.1092     6.9659     1.9093 H       
  37 H37           -1.6390     6.1270     1.3586 H       
  38 H38           -1.0269    -1.8330     0.1891 H       
  39 H39           -2.0645    -0.4235    -0.1347 H       
  40 H40           -2.0561    -1.9838    -2.0618 H       
  41 H41           -1.3240    -0.4220    -2.5011 H       
  42 H42           -0.2864    -1.8316    -2.1774 H       
  43 H43            3.3934     2.9311     1.2442 H       
  44 H44            4.0296     5.3068     1.2623 H       
  45 H45            0.6473     6.2490    -1.1649 H       
  46 H46            0.0016     3.8761    -1.2035 H       
  47 H47            2.8759    -3.8634     1.6203 H       
  48 H48            3.2886    -3.9584    -0.1086 H       
  49 H49            5.2453    -4.5234     1.3059 H       
  50 H50            5.5372    -3.0331     0.3775 H       
  51 H51            5.1245    -2.9381     2.1063 H       
@<TRIPOS>BOND
   1    1    2 1
   2    1    5 1
   3    1    9 1
   4    2    3 2
   5    2   19 1
   6    3    4 1
   7    3    6 1
   8    4    5 2
   9    4   30 1
  10    5   21 1
  11    6    7 2
  12    6    8 1
  13    8   28 1
  14    9   10 ar
  15    9   14 ar
  16   10   11 ar
  17   10   31 1
  18   11   12 ar
  19   11   15 1
  20   12   13 ar
  21   12   32 1
  22   13   14 ar
  23   13   33 1
  24   14   34 1
  25   15   16 2
  26   15   17 2
  27   15   18 1
  28   18   35 1
  29   18   36 1
  30   18   37 1
  31   19   20 1
  32   19   38 1
  33   19   39 1
  34   20   40 1
  35   20   41 1
  36   20   42 1
  37   21   22 ar
  38   21   26 ar
  39   22   23 ar
  40   22   43 1
  41   23   24 ar
  42   23   44 1
  43   24   25 ar
  44   24   27 1
  45   25   26 ar
  46   25   45 1
  47   26   46 1
  48   28   29 1
  49   28   47 1
  50   28   48 1
  51   29   49 1
  52   29   50 1
  53   29   51 1

#	End of record

