#	Name: ASD07930392
#	Creating user name:	WinNT
#	Creation time:	15. 06. 2019 21:12

#	Modifying user name:	WinNT
#	Modification time:	15. 06. 2019 21:12

#	Program:	/corina/corina34_cracker 3.40 0067  02.08.2006

@<TRIPOS>MOLECULE
ASD07930392
  46   48    0    0    0
SMALL
NO_CHARGES


@<TRIPOS>ATOM
   1 N1            -0.0045     1.2783     0.0182 N.2     
   2 N2            -1.1650    -0.7502     0.0204 N.pl3   
   3 C3            -1.3889    -1.7861    -0.9934 C.3     
   4 C4            -0.2708    -2.8338    -0.9019 C.3     
   5 S5             1.3271    -1.9814    -1.0877 S.o2    
   6 N6             1.2045    -0.7295     0.0052 N.am    
   7 C7             0.0090    -0.0251     0.0149 C.2     
   8 C8             2.3043    -0.3898     0.9114 C.3     
   9 C9            -1.3802    -1.1498    -2.3848 C.3     
  10 C10           -2.7204    -2.4487    -0.7503 C.ar    
  11 C11           -3.7514    -1.7337    -0.1736 C.ar    
  12 C12           -4.9786    -2.3451     0.0497 C.ar    
  13 C13           -5.1643    -3.6740    -0.3081 C.ar    
  14 C14           -4.1288    -4.3835    -0.8847 C.ar    
  15 C15           -2.9102    -3.7705    -1.1104 C.ar    
  16 N16           -6.0247    -1.6240     0.6340 N.am    
  17 C17           -7.2975    -1.8587     0.2578 C.2     
  18 O18           -7.5295    -2.6257    -0.6564 O.2     
  19 C19           -8.4108    -1.1836     0.9564 C.ar    
  20 C20           -8.1471    -0.2978     2.0030 C.ar    
  21 O21            2.3885    -2.7859    -0.5922 O.2     
  22 O22            1.4139    -1.3430    -2.3543 O.2     
  23 C23           -9.7304    -1.4247     0.5690 C.ar    
  24 C24          -10.7651    -0.7918     1.2248 C.ar    
  25 C25          -10.4976     0.0816     2.2661 C.ar    
  26 C26           -9.1903     0.3292     2.6512 C.ar    
  27 Cl27         -11.8056     0.8746     3.0870 Cl      
  28 H28            0.8304     1.7720     0.0139 H       
  29 H29           -1.8427    -0.5723     0.6911 H       
  30 H30           -0.3115    -3.3310     0.0672 H       
  31 H31           -0.3899    -3.5688    -1.6979 H       
  32 H32            2.9544     0.3438     0.4347 H       
  33 H33            1.8996     0.0280     1.8332 H       
  34 H34            2.8771    -1.2884     1.1405 H       
  35 H35           -0.4160    -0.6727    -2.5601 H       
  36 H36           -1.5466    -1.9202    -3.1377 H       
  37 H37           -2.1718    -0.4031    -2.4477 H       
  38 H38           -3.6037    -0.7005     0.1039 H       
  39 H39           -6.1171    -4.1523    -0.1355 H       
  40 H40           -4.2725    -5.4170    -1.1632 H       
  41 H41           -2.1023    -4.3274    -1.5616 H       
  42 H42           -5.8343    -0.9550     1.3101 H       
  43 H43           -7.1282    -0.1042     2.3044 H       
  44 H44           -9.9402    -2.1052    -0.2430 H       
  45 H45          -11.7862    -0.9772     0.9258 H       
  46 H46           -8.9878     1.0109     3.4641 H       
@<TRIPOS>BOND
   1    1    7 2
   2    1   28 1
   3    2    3 1
   4    2    7 1
   5    2   29 1
   6    3    4 1
   7    3    9 1
   8    3   10 1
   9    4    5 1
  10    4   30 1
  11    4   31 1
  12    5    6 am
  13    5   21 2
  14    5   22 2
  15    6    7 1
  16    6    8 1
  17    8   32 1
  18    8   33 1
  19    8   34 1
  20    9   35 1
  21    9   36 1
  22    9   37 1
  23   10   11 ar
  24   10   15 ar
  25   11   12 ar
  26   11   38 1
  27   12   13 ar
  28   12   16 1
  29   13   14 ar
  30   13   39 1
  31   14   15 ar
  32   14   40 1
  33   15   41 1
  34   16   17 am
  35   16   42 1
  36   17   18 2
  37   17   19 1
  38   19   23 ar
  39   19   20 ar
  40   20   26 ar
  41   20   43 1
  42   23   24 ar
  43   23   44 1
  44   24   25 ar
  45   24   45 1
  46   25   26 ar
  47   25   27 1
  48   26   46 1

#	End of record

