#	Name: ASD01914253
#	Creating user name:	WinNT
#	Creation time:	15. 06. 2019 20:03

#	Modifying user name:	WinNT
#	Modification time:	15. 06. 2019 20:03

#	Program:	/corina/corina34_cracker 3.40 0067  02.08.2006

@<TRIPOS>MOLECULE
ASD01914253
  38   40    0    0    0
SMALL
NO_CHARGES


@<TRIPOS>ATOM
   1 C1            -2.3528     1.4717     0.0302 C.2     
   2 C2            -2.3333    -0.0352     0.0218 C.3     
   3 O3            -3.4107     2.0642     0.0516 O.2     
   4 N4            -1.1946     2.1607     0.0195 N.am    
   5 C5            -1.2116     3.5512    -0.0781 C.ar    
   6 C6            -0.0205     4.2625     0.0257 C.ar    
   7 C7            -0.0442     5.6438    -0.0721 C.ar    
   8 C8            -1.2619     6.2739    -0.2714 C.ar    
   9 C9            -2.4191     5.5027    -0.3667 C.ar    
  10 N10           -2.3588     4.1785    -0.2736 N.ar    
  11 C11           -3.6835     6.1428    -0.5726 C.1     
  12 C12           -4.7200     6.6675    -0.7415 C.1     
  13 C13           -6.0197     7.3254    -0.9531 C.3     
  14 C14           -7.1221     6.2667    -1.0218 C.3     
  15 N15           -8.9089     7.1672    -2.3960 N.2     
  16 N16           -8.4156     6.9215    -1.2324 N.pl3   
  17 N17           -9.1812     7.3122    -0.2738 N.2     
  18 C18          -10.2686     7.8607    -0.7913 C.ar    
  19 C19          -10.0819     7.7614    -2.2465 C.ar    
  20 C20          -11.0839     8.2664    -3.0935 C.ar    
  21 C21          -12.1949     8.8312    -2.5527 C.ar    
  22 C22          -12.3718     8.9259    -1.1719 C.ar    
  23 C23          -11.4425     8.4573    -0.2987 C.ar    
  24 H24           -3.3560    -0.4119     0.0374 H       
  25 H25           -1.8302    -0.3870    -0.8789 H       
  26 H26           -1.7995    -0.3965     0.9008 H       
  27 H27           -0.3491     1.6891     0.0797 H       
  28 H28            0.9133     3.7427     0.1814 H       
  29 H29            0.8674     6.2177     0.0057 H       
  30 H30           -1.3140     7.3497    -0.3515 H       
  31 H31           -6.2211     8.0066    -0.1263 H       
  32 H32           -5.9954     7.8857    -1.8878 H       
  33 H33           -6.9208     5.5855    -1.8486 H       
  34 H34           -7.1465     5.7064    -0.0871 H       
  35 H35          -10.9712     8.2062    -4.1659 H       
  36 H36          -12.9610     9.2173    -3.2088 H       
  37 H37          -13.2713     9.3834    -0.7872 H       
  38 H38          -11.6042     8.5426     0.7657 H       
@<TRIPOS>BOND
   1    1    2 1
   2    1    3 2
   3    1    4 am
   4    2   24 1
   5    2   25 1
   6    2   26 1
   7    4    5 1
   8    4   27 1
   9    5    6 ar
  10    5   10 ar
  11    6    7 ar
  12    6   28 1
  13    7    8 ar
  14    7   29 1
  15    8    9 ar
  16    8   30 1
  17    9   10 ar
  18    9   11 1
  19   11   12 3
  20   12   13 1
  21   13   14 1
  22   13   31 1
  23   13   32 1
  24   14   16 1
  25   14   33 1
  26   14   34 1
  27   15   16 1
  28   15   19 2
  29   16   17 1
  30   17   18 2
  31   18   19 ar
  32   18   23 ar
  33   19   20 ar
  34   20   21 ar
  35   20   35 1
  36   21   22 ar
  37   21   36 1
  38   22   23 ar
  39   22   37 1
  40   23   38 1

#	End of record

