#	Name: ASD02448122
#	Creating user name:	WinNT
#	Creation time:	15. 06. 2019 20:21

#	Modifying user name:	WinNT
#	Modification time:	15. 06. 2019 20:21

#	Program:	/corina/corina34_cracker 3.40 0067  02.08.2006

@<TRIPOS>MOLECULE
ASD02448122
  76   81    0    0    0
SMALL
NO_CHARGES


@<TRIPOS>ATOM
   1 C1            -0.4939    -6.2070     4.0735 C.ar    
   2 C2             0.0902    -5.2791     3.2330 C.ar    
   3 C3            -0.0037    -5.4310     1.8555 C.ar    
   4 C4            -0.6847    -6.5156     1.3236 C.ar    
   5 C5            -1.2707    -7.4466     2.1703 C.ar    
   6 C6            -1.1732    -7.2889     3.5472 C.ar    
   7 N7            -1.9579    -8.5402     1.6386 N.am    
   8 C8            -2.2007    -9.8456     2.2664 C.3     
   9 C9            -2.9804   -10.7463     1.3636 C.2     
  10 N10           -3.3051   -10.2096     0.1789 N.am    
  11 S11           -2.6972    -8.6603     0.1478 S.o2    
  12 O12           -3.2943   -11.8747     1.6782 O.2     
  13 O13           -3.8079    -7.7740     0.1500 O.2     
  14 O14           -1.6642    -8.6347    -0.8276 O.2     
  15 N15            0.5890    -4.4883     1.0036 N.pl3   
  16 C16            1.5028    -4.7469     0.0170 C.2     
  17 C17            0.3592    -3.1489     0.9996 C.2     
  18 N18            1.0887    -2.5988     0.0696 N.2     
  19 C19            1.8066    -3.5534    -0.5564 C.2     
  20 C20            2.7596    -3.3383    -1.6729 C.ar    
  21 C21            2.9785    -2.0529    -2.1683 C.ar    
  22 C22            3.4432    -4.4187    -2.2264 C.ar    
  23 C23            4.3288    -4.2136    -3.2650 C.ar    
  24 C24            4.5390    -2.9370    -3.7571 C.ar    
  25 C25            3.8667    -1.8587    -3.2077 C.ar    
  26 C26           -0.5849    -2.4188     1.9198 C.3     
  27 C27           -1.9165    -2.2425     1.2365 C.ar    
  28 C28           -2.8604    -3.2518     1.2960 C.ar    
  29 C29           -2.1924    -1.0697     0.5570 C.ar    
  30 C30           -3.4105    -0.9028    -0.0701 C.ar    
  31 C31           -4.3630    -1.9183    -0.0179 C.ar    
  32 C32           -4.0818    -3.0955     0.6725 C.ar    
  33 C33           -5.6744    -1.7446    -0.6903 C.ar    
  34 C34           -5.9577    -0.5651    -1.3763 C.ar    
  35 C35           -6.6246    -2.7623    -0.6429 C.ar    
  36 C36           -7.8427    -2.5955    -1.2706 C.ar    
  37 C37           -8.1206    -1.4208    -1.9455 C.ar    
  38 C38           -7.1787    -0.4090    -2.0001 C.ar    
  39 Cl39           5.6548    -2.6863    -5.0632 Cl      
  40 Cl40           2.1358    -0.7002    -1.4801 Cl      
  41 C41          -11.8920    -0.8519    -2.2606 C.3     
  42 C42          -10.5200    -0.9081    -1.5859 C.3     
  43 C43           -9.4522    -1.2445    -2.6288 C.3     
  44 C44          -10.2062     0.4497    -0.9544 C.3     
  45 N45           -8.8531    -3.6761    -1.2216 N.pl3   
  46 O46           -8.6362    -4.6837    -0.5726 O.2     
  47 O47           -9.9014    -3.5576    -1.8302 O.2     
  48 H48           -0.4155    -6.0888     5.1441 H       
  49 H49            0.6202    -4.4343     3.6475 H       
  50 H50           -0.7593    -6.6355     0.2529 H       
  51 H51           -1.6288    -8.0127     4.2068 H       
  52 H52           -1.2440   -10.3136     2.4983 H       
  53 H53           -2.7576    -9.6986     3.1918 H       
  54 H54           -3.8056   -10.6438    -0.5296 H       
  55 H55            1.9044    -5.7125    -0.2527 H       
  56 H56            3.2808    -5.4153    -1.8431 H       
  57 H57            4.8590    -5.0507    -3.6945 H       
  58 H58            4.0339    -0.8646    -3.5954 H       
  59 H59           -0.7195    -2.9959     2.8346 H       
  60 H60           -0.1699    -1.4410     2.1647 H       
  61 H61           -2.6412    -4.1640     1.8311 H       
  62 H62           -1.4535    -0.2831     0.5175 H       
  63 H63           -3.6250     0.0135    -0.6001 H       
  64 H64           -4.8165    -3.8859     0.7161 H       
  65 H65           -5.2232     0.2256    -1.4192 H       
  66 H66           -6.4085    -3.6802    -0.1165 H       
  67 H67           -7.4010     0.5065    -2.5282 H       
  68 H68          -12.1156    -1.8193    -2.7105 H       
  69 H69          -12.6527    -0.6123    -1.5177 H       
  70 H70          -11.8852    -0.0842    -3.0344 H       
  71 H71          -10.5268    -1.6758    -0.8122 H       
  72 H72           -9.3840    -0.4334    -3.3537 H       
  73 H73           -9.7228    -2.1678    -3.1410 H       
  74 H74          -10.1994     1.2174    -1.7282 H       
  75 H75          -10.9669     0.6894    -0.2115 H       
  76 H76           -9.2287     0.4097    -0.4737 H       
@<TRIPOS>BOND
   1    1    2 ar
   2    1    6 ar
   3    1   48 1
   4    2    3 ar
   5    2   49 1
   6    3    4 ar
   7    3   15 1
   8    4    5 ar
   9    4   50 1
  10    5    6 ar
  11    5    7 1
  12    6   51 1
  13    7    8 1
  14    7   11 am
  15    8    9 1
  16    8   52 1
  17    8   53 1
  18    9   10 am
  19    9   12 2
  20   10   11 am
  21   10   54 1
  22   11   13 2
  23   11   14 2
  24   15   16 1
  25   15   17 1
  26   16   19 2
  27   16   55 1
  28   17   18 2
  29   17   26 1
  30   18   19 1
  31   19   20 1
  32   20   21 ar
  33   20   22 ar
  34   21   40 1
  35   21   25 ar
  36   22   23 ar
  37   22   56 1
  38   23   24 ar
  39   23   57 1
  40   24   25 ar
  41   24   39 1
  42   25   58 1
  43   26   27 1
  44   26   59 1
  45   26   60 1
  46   27   28 ar
  47   27   29 ar
  48   28   32 ar
  49   28   61 1
  50   29   30 ar
  51   29   62 1
  52   30   31 ar
  53   30   63 1
  54   31   32 ar
  55   31   33 1
  56   32   64 1
  57   33   34 ar
  58   33   35 ar
  59   34   38 ar
  60   34   65 1
  61   35   36 ar
  62   35   66 1
  63   36   37 ar
  64   36   45 1
  65   37   38 ar
  66   37   43 1
  67   38   67 1
  68   41   42 1
  69   41   68 1
  70   41   69 1
  71   41   70 1
  72   42   43 1
  73   42   44 1
  74   42   71 1
  75   43   72 1
  76   43   73 1
  77   44   74 1
  78   44   75 1
  79   44   76 1
  80   45   46 2
  81   45   47 2

#	End of record

