#	Name: ASD01880550
#	Creating user name:	WinNT
#	Creation time:	15. 06. 2019 19:40

#	Modifying user name:	WinNT
#	Modification time:	15. 06. 2019 19:40

#	Program:	/corina/corina34_cracker 3.40 0067  02.08.2006

@<TRIPOS>MOLECULE
ASD01880550
  49   52    0    0    0
SMALL
NO_CHARGES


@<TRIPOS>ATOM
   1 N1            -0.0326     1.2626    -0.1618 N.ar    
   2 C2             0.0472    -0.0506    -0.2010 C.ar    
   3 N3             1.1936    -0.6840    -0.0496 N.ar    
   4 C4             2.3212    -0.0174     0.1499 C.ar    
   5 C5             2.2873     1.3674     0.1989 C.ar    
   6 C6             1.0561     2.0051     0.0346 C.ar    
   7 C7             3.5466     2.1640     0.4242 C.3     
   8 O8             4.2291     2.3379    -0.8192 O.3     
   9 C9             5.3909     3.0388    -0.7916 C.ar    
  10 C10            6.1063     3.2452    -1.9671 C.ar    
  11 C11            7.2811     3.9547    -1.9378 C.ar    
  12 C12            7.7651     4.4729    -0.7321 C.ar    
  13 C13            7.0425     4.2631     0.4457 C.ar    
  14 C14            5.8620     3.5547     0.4098 C.ar    
  15 C15            8.2758     4.3497    -3.0008 C.3     
  16 N16            9.3275     5.1096    -2.3156 N.am    
  17 C17            9.0289     5.1783    -1.0069 C.2     
  18 O18            9.7055     5.7427    -0.1691 O.2     
  19 Cl19           3.8218    -0.8676     0.3478 Cl      
  20 C20            0.9618     3.4842     0.0775 C.ar    
  21 C21            1.8936     4.2622    -0.6098 C.ar    
  22 C22            1.8070     5.6359    -0.5707 C.ar    
  23 C23            0.7854     6.2505     0.1579 C.ar    
  24 C24           -0.1473     5.4702     0.8459 C.ar    
  25 C25           -0.0621     4.0966     0.8006 C.ar    
  26 C26            0.6946     7.6790     0.1997 C.1     
  27 N27            0.6226     8.8122     0.2329 N.1     
  28 C28           11.4222     7.7351    -4.0720 C.3     
  29 C29           10.1884     7.1222    -3.4064 C.3     
  30 C30           10.5088     5.6965    -2.9530 C.3     
  31 H31           -0.8526    -0.6260    -0.3615 H       
  32 H32            3.2903     3.1395     0.8375 H       
  33 H33            4.1930     1.6321     1.1222 H       
  34 H34            5.7380     2.8473    -2.9012 H       
  35 H35            7.4077     4.6586     1.3820 H       
  36 H36            5.3038     3.3932     1.3202 H       
  37 H37            8.6994     3.4600    -3.4667 H       
  38 H38            7.7925     4.9733    -3.7530 H       
  39 H39            2.6834     3.7869    -1.1726 H       
  40 H40            2.5288     6.2380    -1.1026 H       
  41 H41           -0.9372     5.9441     1.4097 H       
  42 H42           -0.7829     3.4932     1.3323 H       
  43 H43           12.2464     7.7572    -3.3591 H       
  44 H44           11.7051     7.1340    -4.9361 H       
  45 H45           11.1939     8.7508    -4.3950 H       
  46 H46            9.9054     7.7233    -2.5423 H       
  47 H47            9.3642     7.1002    -4.1193 H       
  48 H48           11.3331     5.7185    -2.2401 H       
  49 H49           10.7918     5.0954    -3.8171 H       
@<TRIPOS>BOND
   1    1    2 ar
   2    1    6 ar
   3    2    3 ar
   4    2   31 1
   5    3    4 ar
   6    4    5 ar
   7    4   19 1
   8    5    6 ar
   9    5    7 1
  10    6   20 1
  11    7    8 1
  12    7   32 1
  13    7   33 1
  14    8    9 1
  15    9   10 ar
  16    9   14 ar
  17   10   11 ar
  18   10   34 1
  19   11   12 ar
  20   11   15 1
  21   12   13 ar
  22   12   17 1
  23   13   14 ar
  24   13   35 1
  25   14   36 1
  26   15   16 1
  27   15   37 1
  28   15   38 1
  29   16   17 am
  30   16   30 1
  31   17   18 2
  32   20   21 ar
  33   20   25 ar
  34   21   22 ar
  35   21   39 1
  36   22   23 ar
  37   22   40 1
  38   23   24 ar
  39   23   26 1
  40   24   25 ar
  41   24   41 1
  42   25   42 1
  43   26   27 3
  44   28   29 1
  45   28   43 1
  46   28   44 1
  47   28   45 1
  48   29   30 1
  49   29   46 1
  50   29   47 1
  51   30   48 1
  52   30   49 1

#	End of record

