#	Name: ASD01914576
#	Creating user name:	WinNT
#	Creation time:	15. 06. 2019 20:03

#	Modifying user name:	WinNT
#	Modification time:	15. 06. 2019 20:03

#	Program:	/corina/corina34_cracker 3.40 0067  02.08.2006

@<TRIPOS>MOLECULE
ASD01914576
  72   77    0    0    0
SMALL
NO_CHARGES


@<TRIPOS>ATOM
   1 C1            -0.2689     1.7486    -0.2957 C.ar    
   2 C2            -0.4228     0.3775    -0.1158 C.ar    
   3 C3             0.6868    -0.3930     0.2024 C.ar    
   4 C4             1.9130     0.2337     0.3299 C.ar    
   5 C5             1.9981     1.6121     0.1363 C.ar    
   6 N6             0.9238     2.3187    -0.1657 N.ar    
   7 C7            -1.4455     2.5797    -0.6416 C.2     
   8 O8            -2.5384     2.0634    -0.7669 O.2     
   9 N9            -1.3038     3.9084    -0.8174 N.am    
  10 C10           -2.4673     4.7303    -1.1594 C.3     
  11 C11           -2.0357     6.1913    -1.3012 C.3     
  12 C12           -3.2509     7.0496    -1.6585 C.3     
  13 C13           -4.3007     6.9331    -0.5516 C.3     
  14 C14           -4.7323     5.4721    -0.4098 C.3     
  15 C15           -5.3291     4.9860    -1.7320 C.3     
  16 C16           -4.2793     5.1025    -2.8389 C.3     
  17 C17           -3.0641     4.2442    -2.4817 C.3     
  18 C18           -3.8477     6.5635    -2.9807 C.3     
  19 C19           -3.5172     4.6138    -0.0526 C.3     
  20 N20           -2.8376     8.4486    -1.7942 N.am    
  21 C21           -3.7472     9.3925    -2.1075 C.2     
  22 O22           -4.9100     9.0833    -2.2773 O.2     
  23 C23           -3.3292    10.8074    -2.2448 C.ar    
  24 C24           -4.2742    11.7784    -2.5688 C.ar    
  25 C25           -3.8683    13.0977    -2.6934 C.ar    
  26 C26           -2.5308    13.4000    -2.4895 C.ar    
  27 C27           -1.6457    12.3831    -2.1697 C.ar    
  28 N28           -2.0588    11.1399    -2.0528 N.ar    
  29 N29            3.2267     2.2494     0.2627 N.3     
  30 C30            3.0981     3.6979     0.0198 C.3     
  31 C31            3.6330     4.4211     1.2737 C.3     
  32 C32            4.5577     3.3577     1.9226 C.3     
  33 C33            3.7921     2.0470     1.6137 C.3     
  34 N34            4.4002     5.6158     0.8967 N.3     
  35 C35            3.5466     6.5944     0.2100 C.3     
  36 C36            5.0504     6.2157     2.0695 C.3     
  37 H37           -1.3945    -0.0818    -0.2222 H       
  38 H38            0.5947    -1.4593     0.3476 H       
  39 H39            2.7951    -0.3382     0.5770 H       
  40 H40           -0.4314     4.3205    -0.7174 H       
  41 H41           -1.6105     6.5376    -0.3592 H       
  42 H42           -1.2878     6.2743    -2.0898 H       
  43 H43           -3.8755     7.2794     0.3904 H       
  44 H44           -5.1664     7.5446    -0.8061 H       
  45 H45           -5.4802     5.3891     0.3788 H       
  46 H46           -5.6366     3.9451    -1.6310 H       
  47 H47           -6.1948     5.5975    -1.9865 H       
  48 H48           -4.7045     4.7562    -3.7809 H       
  49 H49           -2.3162     4.3272    -3.2702 H       
  50 H50           -3.3716     3.2033    -2.3806 H       
  51 H51           -4.7134     7.1750    -3.2352 H       
  52 H52           -3.0998     6.6465    -3.7692 H       
  53 H53           -3.8246     3.5729     0.0485 H       
  54 H54           -3.0920     4.9601     0.8894 H       
  55 H55           -1.9094     8.6955    -1.6587 H       
  56 H56           -5.3084    11.5069    -2.7211 H       
  57 H57           -4.5777    13.8725    -2.9439 H       
  58 H58           -2.1821    14.4182    -2.5794 H       
  59 H59           -0.6030    12.6151    -2.0102 H       
  60 H60            3.6881     3.9816    -0.8518 H       
  61 H61            2.0510     3.9559    -0.1386 H       
  62 H62            2.8157     4.6827     1.9458 H       
  63 H63            5.5409     3.3557     1.4520 H       
  64 H64            4.6414     3.5169     2.9977 H       
  65 H65            2.9939     1.8936     2.3400 H       
  66 H66            4.4762     1.1984     1.6156 H       
  67 H67            2.7340     6.8951     0.8713 H       
  68 H68            4.1395     7.4689    -0.0580 H       
  69 H69            3.1329     6.1454    -0.6930 H       
  70 H70            5.8006     5.5282     2.4602 H       
  71 H71            5.5299     7.1508     1.7803 H       
  72 H72            4.3030     6.4130     2.8380 H       
@<TRIPOS>BOND
   1    1    2 ar
   2    1    6 ar
   3    1    7 1
   4    2    3 ar
   5    2   37 1
   6    3    4 ar
   7    3   38 1
   8    4    5 ar
   9    4   39 1
  10    5    6 ar
  11    5   29 1
  12    7    8 2
  13    7    9 am
  14    9   10 1
  15    9   40 1
  16   10   11 1
  17   10   17 1
  18   10   19 1
  19   11   12 1
  20   11   41 1
  21   11   42 1
  22   12   13 1
  23   12   18 1
  24   12   20 1
  25   13   14 1
  26   13   43 1
  27   13   44 1
  28   14   15 1
  29   14   19 1
  30   14   45 1
  31   15   16 1
  32   15   46 1
  33   15   47 1
  34   16   17 1
  35   16   18 1
  36   16   48 1
  37   17   49 1
  38   17   50 1
  39   18   51 1
  40   18   52 1
  41   19   53 1
  42   19   54 1
  43   20   21 am
  44   20   55 1
  45   21   22 2
  46   21   23 1
  47   23   24 ar
  48   23   28 ar
  49   24   25 ar
  50   24   56 1
  51   25   26 ar
  52   25   57 1
  53   26   27 ar
  54   26   58 1
  55   27   28 ar
  56   27   59 1
  57   29   30 1
  58   29   33 1
  59   30   31 1
  60   30   60 1
  61   30   61 1
  62   31   32 1
  63   31   34 1
  64   31   62 1
  65   32   33 1
  66   32   63 1
  67   32   64 1
  68   33   65 1
  69   33   66 1
  70   34   35 1
  71   34   36 1
  72   35   67 1
  73   35   68 1
  74   35   69 1
  75   36   70 1
  76   36   71 1
  77   36   72 1

#	End of record

