#	Name: ASD01811291
#	Creating user name:	WinNT
#	Creation time:	15. 06. 2019 19:26

#	Modifying user name:	WinNT
#	Modification time:	15. 06. 2019 19:26

#	Program:	/corina/corina34_cracker 3.40 0067  02.08.2006

@<TRIPOS>MOLECULE
ASD01811291
  57   61    0    0    0
SMALL
NO_CHARGES


@<TRIPOS>ATOM
   1 C1             6.7804     8.7891    -0.9610 C.1     
   2 C2             5.3903     8.4864    -0.7978 C.ar    
   3 C3             4.9712     7.1603    -0.6735 C.ar    
   4 C4             3.6305     6.8759    -0.5165 C.ar    
   5 C5             2.7019     7.9010    -0.4826 C.ar    
   6 C6             3.1103     9.2173    -0.6056 C.ar    
   7 C7             4.4485     9.5164    -0.7564 C.ar    
   8 N8             7.8832     9.0292    -1.0905 N.1     
   9 N9            -1.4955     8.2642    -0.0698 N.am    
  10 C10           -0.7619     7.8998     1.1500 C.3     
  11 C11            0.7164     8.2541     0.9607 C.3     
  12 C12            1.2390     7.5825    -0.3113 C.3     
  13 C13            0.4591     8.1015    -1.5215 C.3     
  14 C14           -1.0222     7.7455    -1.3603 C.3     
  15 C15           -2.5851     9.0548    -0.0054 C.2     
  16 C16           -3.1232     9.4665     1.3089 C.ar    
  17 C17           -3.5603    10.7763     1.5068 C.ar    
  18 C18           -4.0635    11.1549     2.7418 C.ar    
  19 C19           -4.1311    10.2303     3.7778 C.ar    
  20 C20           -3.6980     8.9327     3.5815 C.ar    
  21 C21           -3.2007     8.5444     2.3538 C.ar    
  22 O22           -3.1256     9.4292    -1.0277 O.2     
  23 C23           -4.6781    10.6445     5.1195 C.3     
  24 N24           -4.5026    12.4668     2.9457 N.pl3   
  25 C25           -3.2371    14.7065    -1.1726 C.ar    
  26 C26           -3.6974    14.3587     0.0970 C.ar    
  27 C27           -4.2474    15.3643     0.9152 C.ar    
  28 C28           -4.3092    16.6623     0.4242 C.ar    
  29 C29           -3.8304    16.9171    -0.8439 C.ar    
  30 N30           -3.3190    15.9529    -1.5902 N.ar    
  31 C31           -4.2918    13.4239     1.9740 C.2     
  32 N32           -3.7537    13.1994     0.8006 N.2     
  33 N33           -4.6138    14.7472     2.0921 N.pl3   
  34 H34            5.6949     6.3591    -0.7005 H       
  35 H35            3.3049     5.8506    -0.4203 H       
  36 H36            2.3801    10.0126    -0.5786 H       
  37 H37            4.7664    10.5445    -0.8474 H       
  38 H38           -1.1647     8.4538     1.9979 H       
  39 H39           -0.8610     6.8294     1.3299 H       
  40 H40            0.8229     9.3352     0.8713 H       
  41 H41            1.2879     7.9015     1.8193 H       
  42 H42            1.1092     6.5032    -0.2316 H       
  43 H43            0.5680     9.1840    -1.5875 H       
  44 H44            0.8474     7.6403    -2.4296 H       
  45 H45           -1.1425     6.6624    -1.3851 H       
  46 H46           -1.5967     8.1976    -2.1688 H       
  47 H47           -3.5066    11.4931     0.7008 H       
  48 H48           -3.7530     8.2188     4.3900 H       
  49 H49           -2.8678     7.5281     2.2030 H       
  50 H50           -5.7547    10.4751     5.1411 H       
  51 H51           -4.2019    10.0557     5.9035 H       
  52 H52           -4.4734    11.7023     5.2845 H       
  53 H53           -4.9554    12.7042     3.7700 H       
  54 H54           -2.8077    13.9515    -1.8144 H       
  55 H55           -4.7251    17.4578     1.0247 H       
  56 H56           -3.8743    17.9229    -1.2348 H       
  57 H57           -5.0234    15.1730     2.8614 H       
@<TRIPOS>BOND
   1    1    2 1
   2    1    8 3
   3    2    3 ar
   4    2    7 ar
   5    3    4 ar
   6    3   34 1
   7    4    5 ar
   8    4   35 1
   9    5    6 ar
  10    5   12 1
  11    6    7 ar
  12    6   36 1
  13    7   37 1
  14    9   10 1
  15    9   14 1
  16    9   15 am
  17   10   11 1
  18   10   38 1
  19   10   39 1
  20   11   12 1
  21   11   40 1
  22   11   41 1
  23   12   13 1
  24   12   42 1
  25   13   14 1
  26   13   43 1
  27   13   44 1
  28   14   45 1
  29   14   46 1
  30   15   16 1
  31   15   22 2
  32   16   17 ar
  33   16   21 ar
  34   17   18 ar
  35   17   47 1
  36   18   19 ar
  37   18   24 1
  38   19   20 ar
  39   19   23 1
  40   20   21 ar
  41   20   48 1
  42   21   49 1
  43   23   50 1
  44   23   51 1
  45   23   52 1
  46   24   31 1
  47   24   53 1
  48   25   26 ar
  49   25   30 ar
  50   25   54 1
  51   26   27 ar
  52   26   32 1
  53   27   28 ar
  54   27   33 1
  55   28   29 ar
  56   28   55 1
  57   29   30 ar
  58   29   56 1
  59   31   32 2
  60   31   33 1
  61   33   57 1

#	End of record

