#	Name: ASD01901074
#	Creating user name:	WinNT
#	Creation time:	15. 06. 2019 19:53

#	Modifying user name:	WinNT
#	Modification time:	15. 06. 2019 19:53

#	Program:	/corina/corina34_cracker 3.40 0067  02.08.2006

@<TRIPOS>MOLECULE
ASD01901074
  27   28    0    0    0
SMALL
NO_CHARGES


@<TRIPOS>ATOM
   1 C1            -0.0184     1.5028     0.0103 C.2     
   2 C2             0.0021    -0.0041     0.0020 C.3     
   3 C3             2.4638     4.3238     0.0022 C.ar    
   4 C4             1.2534     3.6583     0.0097 C.ar    
   5 C5             1.2492     2.2578     0.0023 C.ar    
   6 C6             2.4826     1.5944    -0.0126 C.ar    
   7 C7             3.6442     2.3418    -0.0193 C.ar    
   8 N8             3.6020     3.6592    -0.0118 N.ar    
   9 O9            -1.3386    -0.4987     0.0122 O.3     
  10 C10           -1.4983    -1.8484     0.0064 C.ar    
  11 C11           -2.7733    -2.3978     0.0157 C.ar    
  12 C12           -2.9327    -3.7705     0.0099 C.ar    
  13 C13           -1.8235    -4.5962    -0.0051 C.ar    
  14 C14           -0.5531    -4.0513    -0.0139 C.ar    
  15 C15           -0.3882    -2.6792    -0.0144 C.ar    
  16 Br16          -4.2902    -1.2689     0.0368 Br      
  17 O17           -1.0729     2.0926     0.0185 O.2     
  18 H18            0.5123    -0.3556    -0.8948 H       
  19 H19            0.5293    -0.3651     0.8851 H       
  20 H20            2.4777     5.4037     0.0033 H       
  21 H21            0.3247     4.2095     0.0215 H       
  22 H22            2.5249     0.5153    -0.0184 H       
  23 H23            4.6003     1.8398    -0.0304 H       
  24 H24           -3.9241    -4.1987     0.0174 H       
  25 H25           -1.9500    -5.6688    -0.0096 H       
  26 H26            0.3114    -4.6985    -0.0252 H       
  27 H27            0.6046    -2.2543    -0.0264 H       
@<TRIPOS>BOND
   1    1    2 1
   2    1    5 1
   3    1   17 2
   4    2    9 1
   5    2   18 1
   6    2   19 1
   7    3    4 ar
   8    3    8 ar
   9    3   20 1
  10    4    5 ar
  11    4   21 1
  12    5    6 ar
  13    6    7 ar
  14    6   22 1
  15    7    8 ar
  16    7   23 1
  17    9   10 1
  18   10   11 ar
  19   10   15 ar
  20   11   12 ar
  21   11   16 1
  22   12   13 ar
  23   12   24 1
  24   13   14 ar
  25   13   25 1
  26   14   15 ar
  27   14   26 1
  28   15   27 1

#	End of record

