#	Name: ASD00171020
#	Creating user name:	WinNT
#	Creation time:	15. 06. 2019 18:32

#	Modifying user name:	WinNT
#	Modification time:	15. 06. 2019 18:32

#	Program:	/corina/corina34_cracker 3.40 0067  02.08.2006

@<TRIPOS>MOLECULE
ASD00171020
  59   62    0    0    0
SMALL
NO_CHARGES


@<TRIPOS>ATOM
   1 C1            -0.6930     1.0966    -0.5248 C.2     
   2 O2            -0.0532     0.9003     0.4926 O.2     
   3 C3            -0.1387     0.6955    -1.8358 C.ar    
   4 C4             1.1590     0.1880    -1.9223 C.ar    
   5 C5             1.6704    -0.1848    -3.1475 C.ar    
   6 C6             0.8992    -0.0566    -4.2909 C.ar    
   7 C7            -0.3888     0.4467    -4.2114 C.ar    
   8 C8            -0.9130     0.8175    -2.9910 C.ar    
   9 Cl9            1.5497    -0.5280    -5.8298 Cl      
  10 C10           -2.2092     3.0849    -0.4219 C.2     
  11 C11           -2.0124     1.7236    -0.4496 C.2     
  12 C12           -3.2529     0.9790    -0.3966 C.2     
  13 C13           -4.3241     1.7543    -0.3324 C.2     
  14 S14           -3.8718     3.4494    -0.3332 S.3     
  15 C15           -3.3182    -0.5265    -0.4137 C.3     
  16 N16           -3.0302    -1.0444     0.9305 N.3     
  17 C17           -3.3146    -2.4838     1.0123 C.3     
  18 C18           -2.9276    -2.9994     2.4004 C.3     
  19 N19           -3.6792    -2.2580     3.4227 N.3     
  20 C20           -3.3947    -0.8186     3.3408 C.3     
  21 C21           -3.7818    -0.3029     1.9527 C.3     
  22 C22           -3.3912    -2.7759     4.7669 C.3     
  23 C23           -4.1179    -1.9229     5.8086 C.3     
  24 C24           -5.6287    -2.0320     5.5930 C.3     
  25 C25           -3.7709    -2.4138     7.1905 C.ar    
  26 C26           -3.1559    -1.5645     8.0913 C.ar    
  27 C27           -2.8374    -2.0142     9.3588 C.ar    
  28 C28           -3.1342    -3.3147     9.7260 C.ar    
  29 C29           -3.7497    -4.1642     8.8240 C.ar    
  30 C30           -4.0728    -3.7117     7.5587 C.ar    
  31 Cl31          -2.7339    -3.8804    11.3177 Cl      
  32 N32           -1.1996     4.0253    -0.4554 N.pl3   
  33 H33            1.7614     0.0879    -1.0315 H       
  34 H34            2.6742    -0.5772    -3.2157 H       
  35 H35           -0.9852     0.5451    -5.1064 H       
  36 H36           -1.9190     1.2056    -2.9296 H       
  37 H37           -5.3404     1.3917    -0.2862 H       
  38 H38           -4.3153    -0.8434    -0.7193 H       
  39 H39           -2.5819    -0.9141    -1.1179 H       
  40 H40           -4.3780    -2.6545     0.8445 H       
  41 H41           -2.7370    -3.0124     0.2540 H       
  42 H42           -3.1646    -4.0608     2.4732 H       
  43 H43           -1.8589    -2.8535     2.5576 H       
  44 H44           -3.9723    -0.2900     4.0992 H       
  45 H45           -2.3313    -0.6479     3.5086 H       
  46 H46           -3.5447     0.7585     1.8799 H       
  47 H47           -4.8505    -0.4488     1.7955 H       
  48 H48           -3.7337    -3.8082     4.8396 H       
  49 H49           -2.3174    -2.7356     4.9494 H       
  50 H50           -3.8103    -0.8824     5.7048 H       
  51 H51           -5.8797    -1.6769     4.5935 H       
  52 H52           -5.9363    -3.0725     5.6968 H       
  53 H53           -6.1465    -1.4243     6.3352 H       
  54 H54           -2.9240    -0.5494     7.8044 H       
  55 H55           -2.3567    -1.3506    10.0623 H       
  56 H56           -3.9816    -5.1795     9.1101 H       
  57 H57           -4.5573    -4.3734     6.8560 H       
  58 H58           -0.2722     3.7424    -0.4283 H       
  59 H59           -1.4175     4.9692    -0.5060 H       
@<TRIPOS>BOND
   1    1    2 2
   2    1    3 1
   3    1   11 1
   4    3    4 ar
   5    3    8 ar
   6    4    5 ar
   7    4   33 1
   8    5    6 ar
   9    5   34 1
  10    6    7 ar
  11    6    9 1
  12    7    8 ar
  13    7   35 1
  14    8   36 1
  15   10   11 2
  16   10   14 1
  17   10   32 1
  18   11   12 1
  19   12   13 2
  20   12   15 1
  21   13   14 1
  22   13   37 1
  23   15   16 1
  24   15   38 1
  25   15   39 1
  26   16   17 1
  27   16   21 1
  28   17   18 1
  29   17   40 1
  30   17   41 1
  31   18   19 1
  32   18   42 1
  33   18   43 1
  34   19   20 1
  35   19   22 1
  36   20   21 1
  37   20   44 1
  38   20   45 1
  39   21   46 1
  40   21   47 1
  41   22   23 1
  42   22   48 1
  43   22   49 1
  44   23   24 1
  45   23   25 1
  46   23   50 1
  47   24   51 1
  48   24   52 1
  49   24   53 1
  50   25   26 ar
  51   25   30 ar
  52   26   27 ar
  53   26   54 1
  54   27   28 ar
  55   27   55 1
  56   28   29 ar
  57   28   31 1
  58   29   30 ar
  59   29   56 1
  60   30   57 1
  61   32   58 1
  62   32   59 1

#	End of record

