#	Name: ASD01230447
#	Creating user name:	WinNT
#	Creation time:	15. 06. 2019 19:14

#	Modifying user name:	WinNT
#	Modification time:	15. 06. 2019 19:14

#	Program:	/corina/corina34_cracker 3.40 0067  02.08.2006

@<TRIPOS>MOLECULE
ASD01230447
  46   48    0    0    0
SMALL
NO_CHARGES


@<TRIPOS>ATOM
   1 S1            -0.0204     1.6502     0.0111 S.o2    
   2 N2             0.0021    -0.0041     0.0020 N.am    
   3 C3             1.0256    -0.6894    -0.4563 C.2     
   4 N4             2.1713    -0.1507    -0.9688 N.pl3   
   5 C5             2.3936     1.2863    -1.1471 C.3     
   6 C6             1.7498     2.0759    -0.0035 C.3     
   7 C7             0.8928    -2.1077    -0.3981 C.2     
   8 C8             1.9093    -2.9032    -0.8069 C.2     
   9 C9             3.0927    -2.3153    -1.2868 C.2     
  10 C10            3.1981    -0.9765    -1.3566 C.2     
  11 C11           -0.3816    -2.7228     0.1202 C.3     
  12 O12           -0.2734    -4.1472     0.0808 O.3     
  13 C13           -1.3452    -4.8597     0.5173 C.ar    
  14 C14           -1.3086    -6.2464     0.5068 C.ar    
  15 C15           -2.3994    -6.9684     0.9510 C.ar    
  16 C16           -3.5270    -6.3100     1.4057 C.ar    
  17 C17           -3.5661    -4.9279     1.4167 C.ar    
  18 C18           -2.4756    -4.2014     0.9794 C.ar    
  19 C19           -4.7155    -7.1001     1.8897 C.3     
  20 C20           -4.9998    -6.7497     3.3516 C.3     
  21 C21           -6.1257    -7.6408     3.8800 C.3     
  22 C22           -5.9379    -6.7569     1.0360 C.3     
  23 O23           -0.6348     2.0061    -1.2198 O.2     
  24 O24           -0.6111     1.9928     1.2573 O.2     
  25 H25            3.4652     1.4851    -1.1626 H       
  26 H26            1.9560     1.6031    -2.0938 H       
  27 H27            1.8733     3.1452    -0.1748 H       
  28 H28            2.2071     1.7954     0.9453 H       
  29 H29            1.8121    -3.9780    -0.7645 H       
  30 H30            3.9172    -2.9389    -1.5995 H       
  31 H31            4.1135    -0.5393    -1.7270 H       
  32 H32           -0.5496    -2.3995     1.1475 H       
  33 H33           -1.2179    -2.4046    -0.5022 H       
  34 H34           -0.4282    -6.7612     0.1514 H       
  35 H35           -2.3715    -8.0480     0.9427 H       
  36 H36           -4.4483    -4.4160     1.7718 H       
  37 H37           -2.5048    -3.1219     0.9928 H       
  38 H38           -4.5018    -8.1657     1.8064 H       
  39 H39           -4.1000    -6.9105     3.9454 H       
  40 H40           -5.3001    -5.7043     3.4229 H       
  41 H41           -7.0255    -7.4800     3.2862 H       
  42 H42           -5.8254    -8.6862     3.8088 H       
  43 H43           -6.3282    -7.3912     4.9215 H       
  44 H44           -5.7354    -7.0066    -0.0056 H       
  45 H45           -6.7976    -7.3284     1.3860 H       
  46 H46           -6.1517    -5.6913     1.1192 H       
@<TRIPOS>BOND
   1    1    2 am
   2    1    6 1
   3    1   23 2
   4    1   24 2
   5    2    3 2
   6    3    4 1
   7    3    7 1
   8    4    5 1
   9    4   10 1
  10    5    6 1
  11    5   25 1
  12    5   26 1
  13    6   27 1
  14    6   28 1
  15    7    8 2
  16    7   11 1
  17    8    9 1
  18    8   29 1
  19    9   10 2
  20    9   30 1
  21   10   31 1
  22   11   12 1
  23   11   32 1
  24   11   33 1
  25   12   13 1
  26   13   14 ar
  27   13   18 ar
  28   14   15 ar
  29   14   34 1
  30   15   16 ar
  31   15   35 1
  32   16   17 ar
  33   16   19 1
  34   17   18 ar
  35   17   36 1
  36   18   37 1
  37   19   20 1
  38   19   22 1
  39   19   38 1
  40   20   21 1
  41   20   39 1
  42   20   40 1
  43   21   41 1
  44   21   42 1
  45   21   43 1
  46   22   44 1
  47   22   45 1
  48   22   46 1

#	End of record

