#	Name: ASD02198135
#	Creating user name:	WinNT
#	Creation time:	15. 06. 2019 20:18

#	Modifying user name:	WinNT
#	Modification time:	15. 06. 2019 20:18

#	Program:	/corina/corina34_cracker 3.40 0067  02.08.2006

@<TRIPOS>MOLECULE
ASD02198135
  57   59    0    0    0
SMALL
NO_CHARGES


@<TRIPOS>ATOM
   1 C1            -0.7659     0.8868     0.4655 C.2     
   2 C2            -0.6211    -0.3691     1.0150 C.2     
   3 C3            -1.5947    -1.4073     0.8571 C.1     
   4 S4             0.5713     1.8740     0.8454 S.3     
   5 C5             1.3449     0.5882     1.7579 C.2     
   6 C6             0.5588    -0.5373     1.7380 C.2     
   7 C7             2.5888     0.6955     2.4130 C.2     
   8 C8             3.4008     1.9184     2.2592 C.2     
   9 O9             2.9939    -0.2222     3.1069 O.2     
  10 N10            0.9034    -1.7212     2.3730 N.pl3   
  11 N11           -1.8416     1.2878    -0.2924 N.pl3   
  12 N12           -2.3670    -2.2309     0.7318 N.1     
  13 C13            3.3644     3.0679     3.0054 C.2     
  14 C14           -1.9562     2.6842    -0.7206 C.3     
  15 C15           -2.1559     2.7379    -2.2366 C.3     
  16 O16            4.2824     3.8883     2.4864 O.3     
  17 N17            4.8682     3.4152     1.5436 N.2     
  18 C18            4.4578     2.2033     1.2673 C.2     
  19 C19            4.9419     1.3124     0.1846 C.ar    
  20 C20           -2.8980     3.3930     1.4823 C.3     
  21 C21           -3.1538     3.3343    -0.0250 C.3     
  22 C22            5.3282     1.8488    -1.0423 C.ar    
  23 C23            5.7783     1.0152    -2.0459 C.ar    
  24 C24            5.8464    -0.3503    -1.8358 C.ar    
  25 C25            5.4639    -0.8883    -0.6202 C.ar    
  26 C26            5.0177    -0.0636     0.3925 C.ar    
  27 C27            2.4646     3.3509     4.1807 C.3     
  28 C28           -0.8990     2.2728    -2.9257 C.2     
  29 O29            0.0842     2.0085    -2.2751 O.2     
  30 O30           -0.8718     2.1521    -4.2623 O.3     
  31 C31            0.3724     1.6989    -4.8580 C.3     
  32 S32           -4.3180     4.1638     2.3070 S.3     
  33 C33           -3.8348     4.1435     4.0554 C.3     
  34 H34            1.7379    -1.7833     2.8635 H       
  35 H35            0.3099    -2.4870     2.3267 H       
  36 H36           -2.5244     0.6461    -0.5432 H       
  37 H37           -1.0459     3.2215    -0.4548 H       
  38 H38           -2.9855     2.0888    -2.5170 H       
  39 H39           -2.3778     3.7617    -2.5377 H       
  40 H40           -2.7591     2.3825     1.8668 H       
  41 H41           -2.0016     3.9819     1.6761 H       
  42 H42           -3.2927     4.3448    -0.4096 H       
  43 H43           -4.0503     2.7454    -0.2188 H       
  44 H44            5.2751     2.9148    -1.2076 H       
  45 H45            6.0776     1.4297    -2.9972 H       
  46 H46            6.1993    -0.9989    -2.6239 H       
  47 H47            5.5185    -1.9552    -0.4618 H       
  48 H48            4.7193    -0.4847     1.3412 H       
  49 H49            2.9877     3.1078     5.1055 H       
  50 H50            2.1923     4.4064     4.1839 H       
  51 H51            1.5630     2.7433     4.1026 H       
  52 H52            0.2585     1.6452    -5.9407 H       
  53 H53            1.1700     2.3996    -4.6109 H       
  54 H54            0.6228     0.7117    -4.4696 H       
  55 H55           -3.6725     3.1143     4.3755 H       
  56 H56           -2.9149     4.7137     4.1848 H       
  57 H57           -4.6268     4.5903     4.6564 H       
@<TRIPOS>BOND
   1    1    2 2
   2    1    4 1
   3    1   11 1
   4    2    3 1
   5    2    6 1
   6    3   12 3
   7    4    5 1
   8    5    6 2
   9    5    7 1
  10    6   10 1
  11    7    8 1
  12    7    9 2
  13    8   13 2
  14    8   18 1
  15   10   34 1
  16   10   35 1
  17   11   14 1
  18   11   36 1
  19   13   16 1
  20   13   27 1
  21   14   15 1
  22   14   21 1
  23   14   37 1
  24   15   28 1
  25   15   38 1
  26   15   39 1
  27   16   17 1
  28   17   18 2
  29   18   19 1
  30   19   22 ar
  31   19   26 ar
  32   20   21 1
  33   20   32 1
  34   20   40 1
  35   20   41 1
  36   21   42 1
  37   21   43 1
  38   22   23 ar
  39   22   44 1
  40   23   24 ar
  41   23   45 1
  42   24   25 ar
  43   24   46 1
  44   25   26 ar
  45   25   47 1
  46   26   48 1
  47   27   49 1
  48   27   50 1
  49   27   51 1
  50   28   29 2
  51   28   30 1
  52   30   31 1
  53   31   52 1
  54   31   53 1
  55   31   54 1
  56   32   33 1
  57   33   55 1
  58   33   56 1
  59   33   57 1

#	End of record

