#	Name: ASD03330768
#	Creating user name:	WinNT
#	Creation time:	15. 06. 2019 20:37

#	Modifying user name:	WinNT
#	Modification time:	15. 06. 2019 20:37

#	Program:	/corina/corina34_cracker 3.40 0067  02.08.2006

@<TRIPOS>MOLECULE
ASD03330768
  66   68    0    0    0
SMALL
NO_CHARGES


@<TRIPOS>ATOM
   1 C1            -0.7373     3.4628    -1.7384 C.2     
   2 N2            -1.6230     2.4513    -1.9406 N.pl3   
   3 C3             0.4540     2.8916    -1.4079 C.2     
   4 N4             0.2882     1.5509    -1.4288 N.2     
   5 C5            -0.9537     1.2774    -1.7532 C.2     
   6 C6            -1.5314    -0.0773    -1.8920 C.ar    
   7 C7             1.7008     3.6077    -1.0855 C.2     
   8 O8             1.7251     4.8236    -1.1008 O.2     
   9 C9             4.0801     3.6213    -0.5600 C.3     
  10 N10            2.8143     2.9153    -0.7737 N.am    
  11 C11            4.7104     3.9588    -1.9126 C.3     
  12 C12            5.0186     2.7428     0.2264 C.2     
  13 O13            4.7102     1.5968     0.4765 O.2     
  14 C14           -3.0384     2.6168    -2.2825 C.3     
  15 C15           -3.1653     3.6411    -3.4146 C.3     
  16 C16           -3.2593     5.0468    -2.8300 C.3     
  17 N17           -2.4609     5.1639    -1.6082 N.3     
  18 C18           -1.0340     4.9334    -1.8781 C.3     
  19 C19           -0.7410    -1.1316    -2.3515 C.ar    
  20 C20           -2.8665    -0.3062    -1.5585 C.ar    
  21 C21           -3.4011    -1.5712    -1.6896 C.ar    
  22 C22           -2.6147    -2.6140    -2.1515 C.ar    
  23 C23           -1.2849    -2.3934    -2.4791 C.ar    
  24 C24           -2.6711     6.4678    -0.9650 C.3     
  25 N25            6.2008     3.2306     0.6518 N.am    
  26 C26            7.1618     2.3465     1.3158 C.3     
  27 C27            4.9078     2.6732    -2.7183 C.3     
  28 C28            5.9687     1.8041    -2.0401 C.3     
  29 C29            3.5861     1.9054    -2.7853 C.3     
  30 C30            5.3659     3.0246    -4.1352 C.3     
  31 C31            6.5248     4.6451     0.4502 C.3     
  32 Cl32          -0.3056    -3.7051    -3.0573 Cl      
  33 F33           -3.1429    -3.8510    -2.2775 F       
  34 H34            3.8939     4.5414    -0.0061 H       
  35 H35            2.7776     1.9496    -0.6907 H       
  36 H36            4.0538     4.6342    -2.4611 H       
  37 H37            5.6756     4.4398    -1.7537 H       
  38 H38           -3.4486     1.6610    -2.6084 H       
  39 H39           -3.5854     2.9703    -1.4085 H       
  40 H40           -2.2910     3.5756    -4.0623 H       
  41 H41           -4.0627     3.4295    -3.9959 H       
  42 H42           -2.8957     5.7648    -3.5651 H       
  43 H43           -4.3011     5.2692    -2.5992 H       
  44 H44           -0.4324     5.4959    -1.1641 H       
  45 H45           -0.7975     5.2582    -2.8914 H       
  46 H46            0.2943    -0.9603    -2.6070 H       
  47 H47           -3.4807     0.5057    -1.1980 H       
  48 H48           -4.4345    -1.7491    -1.4312 H       
  49 H49           -3.7241     6.5800    -0.7066 H       
  50 H50           -2.0664     6.5282    -0.0601 H       
  51 H51           -2.3787     7.2627    -1.6511 H       
  52 H52            7.8209     1.9011     0.5706 H       
  53 H53            7.7542     2.9223     2.0269 H       
  54 H54            6.6255     1.5582     1.8440 H       
  55 H55            5.5193     1.2682    -1.2041 H       
  56 H56            6.3658     1.0878    -2.7595 H       
  57 H57            6.7769     2.4370    -1.6737 H       
  58 H58            2.7639     2.6084    -2.9189 H       
  59 H59            3.6112     1.2117    -3.6257 H       
  60 H60            3.4417     1.3491    -1.8592 H       
  61 H61            6.3075     3.5716    -4.0874 H       
  62 H62            5.5065     2.1087    -4.7092 H       
  63 H63            4.6101     3.6438    -4.6184 H       
  64 H64            5.6636     5.1576     0.0215 H       
  65 H65            6.7786     5.0998     1.4078 H       
  66 H66            7.3733     4.7303    -0.2287 H       
@<TRIPOS>BOND
   1    1    2 1
   2    1    3 2
   3    1   18 1
   4    2   14 1
   5    2    5 1
   6    3    4 1
   7    3    7 1
   8    4    5 2
   9    5    6 1
  10    6   20 ar
  11    6   19 ar
  12    7    8 2
  13    7   10 am
  14    9   10 1
  15    9   11 1
  16    9   12 1
  17    9   34 1
  18   10   35 1
  19   11   27 1
  20   11   36 1
  21   11   37 1
  22   12   13 2
  23   12   25 am
  24   14   15 1
  25   14   38 1
  26   14   39 1
  27   15   16 1
  28   15   40 1
  29   15   41 1
  30   16   17 1
  31   16   42 1
  32   16   43 1
  33   17   18 1
  34   17   24 1
  35   18   44 1
  36   18   45 1
  37   19   23 ar
  38   19   46 1
  39   20   21 ar
  40   20   47 1
  41   21   22 ar
  42   21   48 1
  43   22   23 ar
  44   22   33 1
  45   23   32 1
  46   24   49 1
  47   24   50 1
  48   24   51 1
  49   25   26 1
  50   25   31 1
  51   26   52 1
  52   26   53 1
  53   26   54 1
  54   27   29 1
  55   27   30 1
  56   27   28 1
  57   28   55 1
  58   28   56 1
  59   28   57 1
  60   29   58 1
  61   29   59 1
  62   29   60 1
  63   30   61 1
  64   30   62 1
  65   30   63 1
  66   31   64 1
  67   31   65 1
  68   31   66 1

#	End of record

