#	Name: ASD02560295
#	Creating user name:	WinNT
#	Creation time:	15. 06. 2019 20:25

#	Modifying user name:	WinNT
#	Modification time:	15. 06. 2019 20:25

#	Program:	/corina/corina34_cracker 3.40 0067  02.08.2006

@<TRIPOS>MOLECULE
ASD02560295
  37   39    0    0    0
SMALL
NO_CHARGES


@<TRIPOS>ATOM
   1 C1             0.0071     1.3257     0.2335 C.2     
   2 O2             0.0152    -0.0206     0.1239 O.3     
   3 C3            -1.2607    -0.4374     0.1092 C.2     
   4 N4            -2.0430     0.6094     0.2062 N.2     
   5 C5            -1.2758     1.7130     0.2903 C.2     
   6 N6            -1.6794    -1.7515     0.0080 N.pl3   
   7 C7             1.2152     2.2249     0.2884 C.3     
   8 C8            -3.0325    -2.0624     0.1245 C.ar    
   9 C9            -3.5543    -3.1580    -0.5569 C.ar    
  10 C10           -4.8906    -3.4683    -0.4437 C.ar    
  11 C11           -5.7239    -2.6813     0.3569 C.ar    
  12 C12           -5.1964    -1.5814     1.0400 C.ar    
  13 C13           -3.8580    -1.2800     0.9265 C.ar    
  14 C14            1.6397     2.4090     1.7226 C.ar    
  15 C15            2.5504     1.5372     2.2920 C.ar    
  16 C16            1.1230     3.4531     2.4685 C.ar    
  17 C17            1.5131     3.6215     3.7853 C.ar    
  18 C18            2.4188     2.7468     4.3554 C.ar    
  19 C19            2.9397     1.7067     3.6088 C.ar    
  20 Cl20          -0.0141     4.5522     1.7525 Cl      
  21 Cl21           3.2043     0.2305     1.3547 Cl      
  22 C22           -1.7706     3.1310     0.4152 C.3     
  23 C23           -7.1147    -3.0008     0.4766 C.1     
  24 N24           -8.2179    -3.2543     0.5716 N.1     
  25 H25           -1.0311    -2.4568    -0.1442 H       
  26 H26            2.0304     1.7730    -0.2767 H       
  27 H27            0.9667     3.1940    -0.1442 H       
  28 H28           -2.9101    -3.7653    -1.1755 H       
  29 H29           -5.2950    -4.3184    -0.9730 H       
  30 H30           -5.8373    -0.9714     1.6593 H       
  31 H31           -3.4499    -0.4305     1.4538 H       
  32 H32            1.1100     4.4369     4.3677 H       
  33 H33            2.7232     2.8789     5.3831 H       
  34 H34            3.6473     1.0235     4.0548 H       
  35 H35           -1.8786     3.3866     1.4693 H       
  36 H36           -1.0549     3.8079    -0.0513 H       
  37 H37           -2.7361     3.2241    -0.0820 H       
@<TRIPOS>BOND
   1    1    2 1
   2    1    7 1
   3    1    5 2
   4    2    3 1
   5    3    4 2
   6    3    6 1
   7    4    5 1
   8    5   22 1
   9    6    8 1
  10    6   25 1
  11    7   14 1
  12    7   26 1
  13    7   27 1
  14    8    9 ar
  15    8   13 ar
  16    9   10 ar
  17    9   28 1
  18   10   11 ar
  19   10   29 1
  20   11   12 ar
  21   11   23 1
  22   12   13 ar
  23   12   30 1
  24   13   31 1
  25   14   15 ar
  26   14   16 ar
  27   15   21 1
  28   15   19 ar
  29   16   17 ar
  30   16   20 1
  31   17   18 ar
  32   17   32 1
  33   18   19 ar
  34   18   33 1
  35   19   34 1
  36   22   35 1
  37   22   36 1
  38   22   37 1
  39   23   24 3

#	End of record

