#	Name: ASD04590221
#	Creating user name:	WinNT
#	Creation time:	15. 06. 2019 20:50

#	Modifying user name:	WinNT
#	Modification time:	15. 06. 2019 20:50

#	Program:	/corina/corina34_cracker 3.40 0067  02.08.2006

@<TRIPOS>MOLECULE
ASD04590221
  48   50    0    0    0
SMALL
NO_CHARGES


@<TRIPOS>ATOM
   1 N1            -0.2083     1.2616     1.7466 N.pl3   
   2 N2            -0.1739    -0.0021     1.5197 N.2     
   3 C3             1.0713    -0.4015     1.3466 C.2     
   4 C4             1.8982     0.7437     1.4818 C.2     
   5 C5             1.0487     1.7749     1.7344 C.2     
   6 C6             1.5196    -1.7784     1.0660 C.2     
   7 N7             0.6163    -2.7735     0.9637 N.am    
   8 N8             3.2959     0.8001     1.3770 N.am    
   9 O9             2.7040    -2.0158     0.9270 O.2     
  10 C10            3.9366     1.9755     1.5328 C.2     
  11 C11            5.4065     2.0348     1.4226 C.ar    
  12 O12            3.3029     2.9873     1.7643 O.2     
  13 C13            1.0615    -4.1411     0.6850 C.3     
  14 C14            1.8503    -6.2786     1.7062 C.3     
  15 C15            1.4444    -4.8319     1.9968 C.3     
  16 C16            6.2050     1.8525     2.5570 C.ar    
  17 C17            7.5814     1.9097     2.4446 C.ar    
  18 C18            8.1697     2.1467     1.2155 C.ar    
  19 C19            7.3879     2.3284     0.0892 C.ar    
  20 C20            6.0102     2.2678     0.1822 C.ar    
  21 F21            5.6323     1.6218     3.7586 F       
  22 F22            5.2483     2.4452    -0.9194 F       
  23 C23           -0.0736    -4.9229     0.0180 C.3     
  24 C24            0.3763    -6.3669    -0.2152 C.3     
  25 N25            0.7308    -6.9839     1.0693 N.3     
  26 C26            1.0351    -8.4113     0.9015 C.3     
  27 C27           -0.2689    -9.1951     0.7399 C.3     
  28 F28           -0.8887    -8.8271    -0.4591 F       
  29 F29            0.0104   -10.5658     0.7190 F       
  30 F30           -1.1209    -8.9091     1.8121 F       
  31 H31           -1.0162     1.7760     1.9005 H       
  32 H32            1.3222     2.8073     1.8951 H       
  33 H33           -0.3285    -2.5841     1.0745 H       
  34 H34            3.8014    -0.0070     1.1923 H       
  35 H35            1.9252    -4.1148     0.0205 H       
  36 H36            2.7118    -6.2869     1.0385 H       
  37 H37            2.1098    -6.7775     2.6400 H       
  38 H38            2.2808    -4.3043     2.4552 H       
  39 H39            0.5915    -4.8226     2.6754 H       
  40 H40            8.1993     1.7692     3.3192 H       
  41 H41            9.2458     2.1904     1.1349 H       
  42 H42            7.8554     2.5137    -0.8666 H       
  43 H43           -0.9504    -4.9149     0.6655 H       
  44 H44           -0.3218    -4.4603    -0.9373 H       
  45 H45           -0.4347    -6.9299    -0.6770 H       
  46 H46            1.2447    -6.3748    -0.8739 H       
  47 H47            1.6541    -8.5491     0.0150 H       
  48 H48            1.5708    -8.7741     1.7787 H       
@<TRIPOS>BOND
   1    1    2 1
   2    1    5 1
   3    1   31 1
   4    2    3 2
   5    3    4 1
   6    3    6 1
   7    4    5 2
   8    4    8 1
   9    5   32 1
  10    6    7 am
  11    6    9 2
  12    7   13 1
  13    7   33 1
  14    8   10 am
  15    8   34 1
  16   10   11 1
  17   10   12 2
  18   11   16 ar
  19   11   20 ar
  20   13   23 1
  21   13   15 1
  22   13   35 1
  23   14   15 1
  24   14   25 1
  25   14   36 1
  26   14   37 1
  27   15   38 1
  28   15   39 1
  29   16   17 ar
  30   16   21 1
  31   17   18 ar
  32   17   40 1
  33   18   19 ar
  34   18   41 1
  35   19   20 ar
  36   19   42 1
  37   20   22 1
  38   23   24 1
  39   23   43 1
  40   23   44 1
  41   24   25 1
  42   24   45 1
  43   24   46 1
  44   25   26 1
  45   26   27 1
  46   26   47 1
  47   26   48 1
  48   27   28 1
  49   27   29 1
  50   27   30 1

#	End of record

