#	Name: ASD03930186
#	Creating user name:	WinNT
#	Creation time:	15. 06. 2019 20:47

#	Modifying user name:	WinNT
#	Modification time:	15. 06. 2019 20:47

#	Program:	/corina/corina34_cracker 3.40 0067  02.08.2006

@<TRIPOS>MOLECULE
ASD03930186
  56   59    0    0    0
SMALL
NO_CHARGES


@<TRIPOS>ATOM
   1 S1            -0.0774     4.0246    -0.9967 S.o2    
   2 N2            -0.7570     2.5404    -1.3331 N.am    
   3 C3            -0.4954     1.9103    -2.6235 C.3     
   4 C4             0.9727     1.5725    -2.8342 C.3     
   5 O5             1.7774     2.7571    -2.8732 O.3     
   6 C6             2.3627     3.1111    -1.7010 C.ar    
   7 C7             1.6330     3.6782    -0.6653 C.ar    
   8 C8             3.7223     2.8880    -1.5124 C.ar    
   9 C9             4.3089     3.1886    -0.2993 C.ar    
  10 C10            3.5556     3.7136     0.7404 C.ar    
  11 C11            2.2002     3.9648     0.5483 C.ar    
  12 C12           -1.5397     1.9280    -0.4228 C.2     
  13 O13           -2.0321     0.8460    -0.6745 O.2     
  14 O14           -1.7761     2.5151     0.7655 O.3     
  15 O15            4.1378     3.9820     1.9394 O.3     
  16 C16            3.3388     4.3929     2.9589 C.ar    
  17 C17            3.1146     5.7454     3.1615 C.ar    
  18 C18            2.2950     6.1622     4.2068 C.ar    
  19 C19            1.7045     5.2170     5.0437 C.ar    
  20 C20            1.9331     3.8718     4.8350 C.ar    
  21 C21            2.7427     3.4578     3.7937 C.ar    
  22 O22            2.1483     9.6565     4.1652 O.3     
  23 N23            2.5389     8.5963     3.7243 N.2     
  24 C24            2.0510     7.6092     4.4297 C.2     
  25 N25            1.2827     8.1536     5.4001 N.2     
  26 C26            1.3540     9.4489     5.2200 C.2     
  27 C27            0.6691    10.5066     6.0467 C.3     
  28 O28           -0.1173     4.7763    -2.2019 O.2     
  29 O29           -0.6496     4.4698     0.2254 O.2     
  30 C30           -2.6283     1.7981     1.6972 C.3     
  31 C31           -1.9978     0.4434     2.0261 C.3     
  32 C32           -2.7805     2.6152     2.9817 C.3     
  33 C33           -4.0046     1.5801     1.0653 C.3     
  34 H34           -1.0796     0.9925    -2.6905 H       
  35 H35           -0.8169     2.5865    -3.4156 H       
  36 H36            1.3135     0.9360    -2.0175 H       
  37 H37            1.0838     1.0341    -3.7754 H       
  38 H38            4.3192     2.4800    -2.3147 H       
  39 H39            5.3651     3.0129    -0.1582 H       
  40 H40            1.6027     4.3798     1.3465 H       
  41 H41            3.5746     6.4740     2.5105 H       
  42 H42            1.0685     5.5370     5.8557 H       
  43 H43            1.4751     3.1406     5.4846 H       
  44 H44            2.9152     2.4040     3.6319 H       
  45 H45            0.9179    11.4924     5.6539 H       
  46 H46           -0.4101    10.3598     6.0028 H       
  47 H47            1.0041    10.4325     7.0813 H       
  48 H48           -1.0173     0.5987     2.4763 H       
  49 H49           -2.6375    -0.0949     2.7255 H       
  50 H50           -1.8894    -0.1387     1.1110 H       
  51 H51           -3.2297     3.5803     2.7473 H       
  52 H52           -3.4203     2.0769     3.6811 H       
  53 H53           -1.8000     2.7705     3.4319 H       
  54 H54           -3.8961     0.9980     0.1502 H       
  55 H55           -4.6443     1.0418     1.7647 H       
  56 H56           -4.4538     2.5452     0.8309 H       
@<TRIPOS>BOND
   1    1    2 am
   2    1    7 1
   3    1   28 2
   4    1   29 2
   5    2    3 1
   6    2   12 am
   7    3    4 1
   8    3   34 1
   9    3   35 1
  10    4    5 1
  11    4   36 1
  12    4   37 1
  13    5    6 1
  14    6    7 ar
  15    6    8 ar
  16    7   11 ar
  17    8    9 ar
  18    8   38 1
  19    9   10 ar
  20    9   39 1
  21   10   11 ar
  22   10   15 1
  23   11   40 1
  24   12   13 2
  25   12   14 1
  26   14   30 1
  27   15   16 1
  28   16   17 ar
  29   16   21 ar
  30   17   18 ar
  31   17   41 1
  32   18   19 ar
  33   18   24 1
  34   19   20 ar
  35   19   42 1
  36   20   21 ar
  37   20   43 1
  38   21   44 1
  39   22   23 1
  40   22   26 1
  41   23   24 2
  42   24   25 1
  43   25   26 2
  44   26   27 1
  45   27   45 1
  46   27   46 1
  47   27   47 1
  48   30   31 1
  49   30   33 1
  50   30   32 1
  51   31   48 1
  52   31   49 1
  53   31   50 1
  54   32   51 1
  55   32   52 1
  56   32   53 1
  57   33   54 1
  58   33   55 1
  59   33   56 1

#	End of record

