#	Name: ASD01850089
#	Creating user name:	WinNT
#	Creation time:	15. 06. 2019 19:38

#	Modifying user name:	WinNT
#	Modification time:	15. 06. 2019 19:38

#	Program:	/corina/corina34_cracker 3.40 0067  02.08.2006

@<TRIPOS>MOLECULE
ASD01850089
  49   53    0    0    0
SMALL
NO_CHARGES


@<TRIPOS>ATOM
   1 C1             0.1491     1.0726    -0.1462 C.ar    
   2 C2             0.3416    -0.2921    -0.0265 C.ar    
   3 C3             1.6128    -0.8032     0.1380 C.ar    
   4 C4             2.7080     0.0587     0.1837 C.ar    
   5 C5             2.5014     1.4399     0.0799 C.ar    
   6 C6             1.2302     1.9363    -0.0929 C.ar    
   7 C7             4.1603    -0.1820     0.3232 C.2     
   8 N8             4.8261     0.9593     0.1523 N.am    
   9 C9             3.8536     2.0748     0.2223 C.3     
  10 C10            6.0905     1.6523    -0.1583 C.3     
  11 C11            5.6441     2.7506    -1.1548 C.3     
  12 N12            4.2004     2.9517    -0.9015 N.am    
  13 C13            3.3694     3.7755    -1.5703 C.2     
  14 C14            3.9059     4.6921    -2.5944 C.ar    
  15 C15            3.0707     5.6432    -3.1959 C.ar    
  16 C16            3.5859     6.5001    -4.1572 C.ar    
  17 C17            4.9156     6.4152    -4.5189 C.ar    
  18 C18            5.7443     5.4759    -3.9270 C.ar    
  19 C19            5.2507     4.6206    -2.9660 C.ar    
  20 O20            2.1776     3.7634    -1.3296 O.2     
  21 C21            3.9659     2.8009     1.5380 C.ar    
  22 C22            3.6662     4.1485     1.6112 C.ar    
  23 C23            3.7690     4.8150     2.8177 C.ar    
  24 C24            4.1719     4.1333     3.9522 C.ar    
  25 C25            4.4717     2.7846     3.8782 C.ar    
  26 C26            4.3630     2.1179     2.6724 C.ar    
  27 O27            4.6704    -1.2600     0.5585 O.2     
  28 Cl28           4.3018     4.9699     5.4677 Cl      
  29 O29            1.7643     5.7253    -2.8398 O.3     
  30 C30            0.9743     6.7192    -3.4956 C.3     
  31 H31           -0.8471     1.4654    -0.2862 H       
  32 H32           -0.5063    -0.9601    -0.0616 H       
  33 H33            1.7592    -1.8691     0.2315 H       
  34 H34            1.0752     3.0009    -0.1879 H       
  35 H35            6.5179     2.0970     0.7404 H       
  36 H36            6.7995     0.9702    -0.6275 H       
  37 H37            6.1919     3.6742    -0.9682 H       
  38 H38            5.8041     2.4170    -2.1801 H       
  39 H39            2.9460     7.2345    -4.6237 H       
  40 H40            5.3120     7.0847    -5.2680 H       
  41 H41            6.7830     5.4169    -4.2168 H       
  42 H42            5.9003     3.8899    -2.5072 H       
  43 H43            3.3521     4.6806     0.7255 H       
  44 H44            3.5353     5.8679     2.8747 H       
  45 H45            4.7862     2.2519     4.7635 H       
  46 H46            4.5970     1.0652     2.6145 H       
  47 H47            1.3942     7.7055    -3.2982 H       
  48 H48            0.9741     6.5327    -4.5695 H       
  49 H49           -0.0478     6.6774    -3.1193 H       
@<TRIPOS>BOND
   1    1    2 ar
   2    1    6 ar
   3    1   31 1
   4    2    3 ar
   5    2   32 1
   6    3    4 ar
   7    3   33 1
   8    4    5 ar
   9    4    7 1
  10    5    6 ar
  11    5    9 1
  12    6   34 1
  13    7    8 am
  14    7   27 2
  15    8    9 1
  16    8   10 1
  17    9   21 1
  18    9   12 1
  19   10   11 1
  20   10   35 1
  21   10   36 1
  22   11   12 1
  23   11   37 1
  24   11   38 1
  25   12   13 am
  26   13   14 1
  27   13   20 2
  28   14   15 ar
  29   14   19 ar
  30   15   16 ar
  31   15   29 1
  32   16   17 ar
  33   16   39 1
  34   17   18 ar
  35   17   40 1
  36   18   19 ar
  37   18   41 1
  38   19   42 1
  39   21   22 ar
  40   21   26 ar
  41   22   23 ar
  42   22   43 1
  43   23   24 ar
  44   23   44 1
  45   24   25 ar
  46   24   28 1
  47   25   26 ar
  48   25   45 1
  49   26   46 1
  50   29   30 1
  51   30   47 1
  52   30   48 1
  53   30   49 1

#	End of record

