#	Name: ASD04230163
#	Creating user name:	WinNT
#	Creation time:	15. 06. 2019 20:48

#	Modifying user name:	WinNT
#	Modification time:	15. 06. 2019 20:48

#	Program:	/corina/corina34_cracker 3.40 0067  02.08.2006

@<TRIPOS>MOLECULE
ASD04230163
  45   49    0    0    0
SMALL
NO_CHARGES


@<TRIPOS>ATOM
   1 C1             1.4521     4.4410     2.2398 C.ar    
   2 C2             2.4682     5.1549     2.8558 C.ar    
   3 C3             3.7527     4.6490     2.8921 C.ar    
   4 C4             4.0207     3.4134     2.3048 C.ar    
   5 C5             2.9877     2.6917     1.6812 C.ar    
   6 C6             1.7077     3.2146     1.6541 C.ar    
   7 C7             5.3727     2.8335     2.3189 C.2     
   8 C8             5.6351     1.8164     1.4613 C.2     
   9 C9             4.5596     1.3348     0.5228 C.3     
  10 O10            3.2706     1.4915     1.1171 O.3     
  11 C11            6.9562     1.1901     1.4473 C.2     
  12 N12            7.2138     0.1794     0.5938 N.am    
  13 O13            7.8234     1.5817     2.2066 O.2     
  14 C14            8.5067    -0.3451     0.5011 C.ar    
  15 C15            8.6911    -1.7016     0.2629 C.ar    
  16 C16            9.9676    -2.2234     0.1707 C.ar    
  17 C17           11.0664    -1.4002     0.3142 C.ar    
  18 C18           10.8909    -0.0381     0.5534 C.ar    
  19 C19            9.6058     0.4896     0.6413 C.ar    
  20 C20           12.0712     0.8481     0.7084 C.2     
  21 C21           13.3724     0.4796     0.5454 C.2     
  22 N22           14.1360     1.5888     0.7787 N.pl3   
  23 C23           13.2787     2.6158     1.0807 C.2     
  24 N24           12.0391     2.1516     1.0277 N.2     
  25 C25           15.4850     1.7986     0.7566 C.2     
  26 C26           15.9960     3.0169     1.0313 C.2     
  27 C27           15.1437     4.0889     1.3442 C.2     
  28 C28           13.7979     3.8946     1.3695 C.2     
  29 Cl29           2.1245     6.6926     3.5846 Cl      
  30 H30            0.4504     4.8443     2.2210 H       
  31 H31            4.5436     5.2065     3.3716 H       
  32 H32            0.9093     2.6662     1.1764 H       
  33 H33            6.1319     3.2062     2.9905 H       
  34 H34            4.6029     1.9116    -0.4010 H       
  35 H35            4.7255     0.2820     0.2946 H       
  36 H36            6.5023    -0.1842     0.0438 H       
  37 H37            7.8347    -2.3499     0.1499 H       
  38 H38           10.1059    -3.2785    -0.0139 H       
  39 H39           12.0623    -1.8115     0.2415 H       
  40 H40            9.4648     1.5443     0.8261 H       
  41 H41           13.7328    -0.5038     0.2821 H       
  42 H42           16.1494     0.9815     0.5173 H       
  43 H43           17.0651     3.1685     1.0108 H       
  44 H44           15.5554     5.0629     1.5639 H       
  45 H45           13.1333     4.7117     1.6085 H       
@<TRIPOS>BOND
   1    1    2 ar
   2    1    6 ar
   3    1   30 1
   4    2    3 ar
   5    2   29 1
   6    3    4 ar
   7    3   31 1
   8    4    5 ar
   9    4    7 1
  10    5    6 ar
  11    5   10 1
  12    6   32 1
  13    7    8 2
  14    7   33 1
  15    8    9 1
  16    8   11 1
  17    9   10 1
  18    9   34 1
  19    9   35 1
  20   11   12 am
  21   11   13 2
  22   12   14 1
  23   12   36 1
  24   14   15 ar
  25   14   19 ar
  26   15   16 ar
  27   15   37 1
  28   16   17 ar
  29   16   38 1
  30   17   18 ar
  31   17   39 1
  32   18   19 ar
  33   18   20 1
  34   19   40 1
  35   20   21 2
  36   20   24 1
  37   21   22 1
  38   21   41 1
  39   22   23 1
  40   22   25 1
  41   23   24 2
  42   23   28 1
  43   25   26 2
  44   25   42 1
  45   26   27 1
  46   26   43 1
  47   27   28 2
  48   27   44 1
  49   28   45 1

#	End of record

