#	Name: ASD02320032
#	Creating user name:	WinNT
#	Creation time:	15. 06. 2019 20:20

#	Modifying user name:	WinNT
#	Modification time:	15. 06. 2019 20:20

#	Program:	/corina/corina34_cracker 3.40 0067  02.08.2006

@<TRIPOS>MOLECULE
ASD02320032
 102  108    0    0    0
SMALL
NO_CHARGES


@<TRIPOS>ATOM
   1 C1             9.8186   -15.3618   -20.0976 C.ar    
   2 C2             9.5417   -16.1046   -18.9723 C.ar    
   3 C3             9.5087   -15.4810   -17.7218 C.ar    
   4 C4             9.7613   -14.0927   -17.6339 C.ar    
   5 C5            10.0394   -13.3604   -18.7859 C.ar    
   6 C6            10.0661   -13.9984   -20.0071 C.ar    
   7 N7             9.2409   -16.1732   -16.5966 N.2     
   8 C8             9.2087   -15.5927   -15.4238 C.2     
   9 N9             9.4403   -14.2558   -15.2462 N.am    
  10 C10            9.7198   -13.4621   -16.3062 C.2     
  11 C11            8.9081   -16.4188   -14.2375 C.ar    
  12 C12            7.8594   -16.0647   -13.3855 C.ar    
  13 C13            9.6683   -17.5594   -13.9679 C.ar    
  14 C14            9.3827   -18.3294   -12.8566 C.ar    
  15 C15            8.3383   -17.9674   -12.0078 C.ar    
  16 C16            7.5801   -16.8369   -12.2785 C.ar    
  17 O17            9.9282   -12.2711   -16.1659 O.2     
  18 C18            9.3857   -13.6800   -13.9002 C.3     
  19 C19           10.7294   -13.8921   -13.1999 C.3     
  20 C20           10.6724   -13.2909   -11.7941 C.3     
  21 C21           12.0161   -13.5030   -11.0939 C.3     
  22 N22           11.9616   -12.9273    -9.7478 N.pl3   
  23 N23           11.6463   -11.7132    -9.4591 N.2     
  24 N24           11.6952   -11.5328    -8.1864 N.2     
  25 C25           12.0596   -12.6787    -7.6003 C.2     
  26 C26           12.2282   -13.5820    -8.5941 C.2     
  27 C27           12.2412   -12.9183    -6.1236 C.3     
  28 O28           12.6360   -14.2743    -5.9061 O.3     
  29 C29           12.9135   -14.6388    -4.6256 C.ar    
  30 C30           13.3256   -15.9407    -4.3452 C.ar    
  31 C31           12.7923   -13.7173    -3.6036 C.ar    
  32 C32           13.0783   -14.0955    -2.2883 C.ar    
  33 C33           13.4853   -15.4038    -2.0140 C.ar    
  34 C34           13.6095   -16.3163    -3.0400 C.ar    
  35 C35           12.9512   -13.1161    -1.1934 C.2     
  36 O36           13.0420   -13.5489     0.0758 O.3     
  37 C37           12.9365   -12.7151     1.1317 C.ar    
  38 C38           12.7242   -11.3414     0.9201 C.ar    
  39 C39           12.6228   -10.8507    -0.4636 C.2     
  40 C40           12.7515   -11.8050    -1.5059 C.2     
  41 C41           13.0347   -13.1974     2.4278 C.ar    
  42 C42           12.9234   -12.3283     3.5020 C.ar    
  43 C43           12.7130   -10.9693     3.2956 C.ar    
  44 C44           12.6127   -10.4691     2.0106 C.ar    
  45 O45           12.4386    -9.6685    -0.7054 O.2     
  46 O46            8.0584   -18.7258   -10.9159 O.3     
  47 S47            8.8113   -18.3063    -9.6614 S.o2    
  48 O48            8.5599   -19.3105    -8.6879 O.2     
  49 O49           10.1187   -17.9408   -10.0814 O.2     
  50 O50            8.1541   -17.0339    -9.1459 O.3     
  51 Na51           6.4029   -17.3335    -8.2494 Du      
  52 O52           12.4083    -9.1430     1.8072 O.3     
  53 C53           12.3055    -8.3168     2.9686 C.3     
  54 O54           12.6672   -11.4151    -2.8071 O.3     
  55 S55           11.2825   -10.9388    -3.2221 S.o2    
  56 O56           10.7512   -10.2320    -2.1097 O.2     
  57 O57           11.4268   -10.3618    -4.5127 O.2     
  58 O58           10.4146   -12.1765    -3.3993 O.3     
  59 Na59           9.8434   -13.0163    -1.6880 Du      
  60 O60           13.4491   -16.8442    -5.3525 O.3     
  61 S61           14.8305   -16.8750    -5.9906 S.o2    
  62 O62           14.7257   -17.7115    -7.1345 O.2     
  63 O63           15.2743   -15.5264    -6.0520 O.2     
  64 O64           15.7596   -17.5893    -5.0195 O.3     
  65 Na65          15.5101   -19.5628    -4.9640 Du      
  66 O66           10.1204   -19.4407   -12.5915 O.3     
  67 C67           11.1750   -19.7522   -13.5040 C.3     
  68 O68           13.0203   -12.8087     4.7680 O.3     
  69 S69           14.4389   -12.8194     5.3192 S.o2    
  70 O70           14.3857   -13.5271     6.5503 O.2     
  71 O71           15.2852   -13.1967     4.2418 O.2     
  72 O72           14.7987   -11.3816     5.6652 O.3     
  73 Na73          13.9334   -10.7079     7.3258 Du      
  74 H74            9.8481   -15.8463   -21.0624 H       
  75 H75            9.3505   -17.1643   -19.0553 H       
  76 H76           10.2329   -12.2997   -18.7223 H       
  77 H77           10.2818   -13.4330   -20.9016 H       
  78 H78            7.2676   -15.1856   -13.5940 H       
  79 H79           10.4771   -17.8389   -14.6267 H       
  80 H80            6.7717   -16.5595   -11.6181 H       
  81 H81            9.1768   -12.6125   -13.9698 H       
  82 H82            8.5967   -14.1681   -13.3279 H       
  83 H83           10.9383   -14.9597   -13.1303 H       
  84 H84           11.5184   -13.4041   -13.7721 H       
  85 H85           10.4635   -12.2234   -11.8638 H       
  86 H86            9.8835   -13.7789   -11.2219 H       
  87 H87           12.2250   -14.5705   -11.0242 H       
  88 H88           12.8051   -13.0149   -11.6661 H       
  89 H89           12.5222   -14.6158    -8.4880 H       
  90 H90           13.0113   -12.2495    -5.7390 H       
  91 H91           11.3014   -12.7260    -5.6060 H       
  92 H92           12.4777   -12.7071    -3.8201 H       
  93 H93           13.7073   -15.6987    -0.9990 H       
  94 H94           13.9239   -17.3273    -2.8267 H       
  95 H95           13.1977   -14.2509     2.6006 H       
  96 H96           12.6273   -10.3029     4.1412 H       
  97 H97           12.1433    -7.2824     2.6654 H       
  98 H98           11.4677    -8.6519     3.5799 H       
  99 H99           13.2273    -8.3858     3.5462 H       
 100 H100          11.6824   -20.6597   -13.1768 H       
 101 H101          10.7599   -19.9070   -14.4999 H       
 102 H102          11.8872   -18.9275   -13.5315 H       
@<TRIPOS>BOND
   1    1    2 ar
   2    1    6 ar
   3    1   74 1
   4    2    3 ar
   5    2   75 1
   6    3    4 ar
   7    3    7 1
   8    4    5 ar
   9    4   10 1
  10    5    6 ar
  11    5   76 1
  12    6   77 1
  13    7    8 2
  14    8    9 1
  15    8   11 1
  16    9   10 am
  17    9   18 1
  18   10   17 2
  19   11   12 ar
  20   11   13 ar
  21   12   16 ar
  22   12   78 1
  23   13   14 ar
  24   13   79 1
  25   14   15 ar
  26   14   66 1
  27   15   16 ar
  28   15   46 1
  29   16   80 1
  30   18   19 1
  31   18   81 1
  32   18   82 1
  33   19   20 1
  34   19   83 1
  35   19   84 1
  36   20   21 1
  37   20   85 1
  38   20   86 1
  39   21   22 1
  40   21   87 1
  41   21   88 1
  42   22   23 1
  43   22   26 1
  44   23   24 2
  45   24   25 1
  46   25   26 2
  47   25   27 1
  48   26   89 1
  49   27   28 1
  50   27   90 1
  51   27   91 1
  52   28   29 1
  53   29   30 ar
  54   29   31 ar
  55   30   60 1
  56   30   34 ar
  57   31   32 ar
  58   31   92 1
  59   32   33 ar
  60   32   35 1
  61   33   34 ar
  62   33   93 1
  63   34   94 1
  64   35   36 1
  65   35   40 2
  66   36   37 1
  67   37   38 ar
  68   37   41 ar
  69   38   39 1
  70   38   44 ar
  71   39   40 1
  72   39   45 2
  73   40   54 1
  74   41   42 ar
  75   41   95 1
  76   42   43 ar
  77   42   68 1
  78   43   44 ar
  79   43   96 1
  80   44   52 1
  81   46   47 1
  82   47   48 2
  83   47   49 2
  84   47   50 1
  85   50   51 1
  86   52   53 1
  87   53   97 1
  88   53   98 1
  89   53   99 1
  90   54   55 1
  91   55   56 2
  92   55   57 2
  93   55   58 1
  94   58   59 1
  95   60   61 1
  96   61   62 2
  97   61   63 2
  98   61   64 1
  99   64   65 1
 100   66   67 1
 101   67  100 1
 102   67  101 1
 103   67  102 1
 104   68   69 1
 105   69   70 2
 106   69   71 2
 107   69   72 1
 108   72   73 1

#	End of record

