#	Name: ASD03092282
#	Creating user name:	WinNT
#	Creation time:	15. 06. 2019 20:32

#	Modifying user name:	WinNT
#	Modification time:	15. 06. 2019 20:32

#	Program:	/corina/corina34_cracker 3.40 0067  02.08.2006

@<TRIPOS>MOLECULE
ASD03092282
  32   33    0    0    0
SMALL
NO_CHARGES


@<TRIPOS>ATOM
   1 C1            -0.0138     1.2647    -0.1278 C.ar    
   2 C2             0.0391    -0.1156    -0.1708 C.ar    
   3 C3             1.2617    -0.7612    -0.1698 C.ar    
   4 C4             2.4317    -0.0266    -0.1252 C.ar    
   5 C5             2.3801     1.3541    -0.0817 C.ar    
   6 C6             1.1571     2.0006    -0.0837 C.ar    
   7 Cl7            1.0915     3.7345    -0.0296 Cl      
   8 C8             3.6558     2.1548    -0.0322 C.3     
   9 C9             3.7944     2.9819    -1.3146 C.3     
  10 C10            5.0145     3.8972    -1.1996 C.3     
  11 C11            4.8068     4.8977    -0.0615 C.3     
  12 C12            4.7063     4.1427     1.2681 C.3     
  13 C13            3.6167     3.1002     1.1480 C.2     
  14 O14            2.7380     3.0250     1.9729 O.2     
  15 N15            4.8035     1.2469     0.0958 N.3     
  16 C16            4.7891     0.5600     1.3943 C.3     
  17 H17           -0.9688     1.7690    -0.1331 H       
  18 H18           -0.8748    -0.6901    -0.2049 H       
  19 H19            1.3025    -1.8399    -0.2034 H       
  20 H20            3.3864    -0.5315    -0.1241 H       
  21 H21            3.9203     2.3136    -2.1664 H       
  22 H22            2.8985     3.5865    -1.4559 H       
  23 H23            5.9006     3.2959    -0.9962 H       
  24 H24            5.1518     4.4374    -2.1363 H       
  25 H25            5.6502     5.5872    -0.0251 H       
  26 H26            3.8869     5.4569    -0.2324 H       
  27 H27            5.6568     3.6554     1.4852 H       
  28 H28            4.4585     4.8408     2.0677 H       
  29 H29            4.8261     0.5833    -0.6640 H       
  30 H30            5.5819    -0.1876     1.4186 H       
  31 H31            4.9499     1.2861     2.1912 H       
  32 H32            3.8249     0.0720     1.5365 H       
@<TRIPOS>BOND
   1    1    2 ar
   2    1    6 ar
   3    1   17 1
   4    2    3 ar
   5    2   18 1
   6    3    4 ar
   7    3   19 1
   8    4    5 ar
   9    4   20 1
  10    5    6 ar
  11    5    8 1
  12    6    7 1
  13    8    9 1
  14    8   15 1
  15    8   13 1
  16    9   10 1
  17    9   21 1
  18    9   22 1
  19   10   11 1
  20   10   23 1
  21   10   24 1
  22   11   12 1
  23   11   25 1
  24   11   26 1
  25   12   13 1
  26   12   27 1
  27   12   28 1
  28   13   14 2
  29   15   16 1
  30   15   29 1
  31   16   30 1
  32   16   31 1
  33   16   32 1

#	End of record

