#	Name: ASD02560086
#	Creating user name:	WinNT
#	Creation time:	15. 06. 2019 20:24

#	Modifying user name:	WinNT
#	Modification time:	15. 06. 2019 20:24

#	Program:	/corina/corina34_cracker 3.40 0067  02.08.2006

@<TRIPOS>MOLECULE
ASD02560086
  58   61    0    0    0
SMALL
NO_CHARGES


@<TRIPOS>ATOM
   1 C1             2.2579    -0.3612    -0.1940 C.3     
   2 C2             0.8372    -0.1457    -0.7150 C.3     
   3 C3             0.4024     1.2782    -0.4887 C.ar    
   4 C4             1.0190     2.0819     0.4562 C.ar    
   5 N5             2.0794     1.5929     1.2338 N.am    
   6 C6             2.3384     0.1466     1.2515 C.3     
   7 C7            -0.6389     1.7891    -1.2463 C.ar    
   8 C8            -1.0632     3.0913    -1.0609 C.ar    
   9 C9            -0.4494     3.8941    -0.1153 C.ar    
  10 C10            0.5904     3.3922     0.6429 C.ar    
  11 C11            2.8479     2.4355     1.9520 C.2     
  12 S12            3.4762     1.9350     3.5202 S.3     
  13 O13            3.1077     3.5414     1.5177 O.2     
  14 C14            4.3949     3.4249     3.9809 C.3     
  15 C15            5.0372     3.2223     5.3290 C.2     
  16 N16            5.7769     4.2063     5.8778 N.am    
  17 O17            4.8884     2.1738     5.9202 O.2     
  18 C18            6.3042     4.0502     7.1597 C.ar    
  19 C19            6.5487     2.7755     7.6590 C.ar    
  20 C20            7.0692     2.6177     8.9242 C.ar    
  21 C21            7.3519     3.7399     9.7070 C.ar    
  22 C22            7.1054     5.0201     9.2031 C.ar    
  23 C23            6.5899     5.1714     7.9346 C.ar    
  24 Cl24           6.2831     6.7606     7.3070 Cl      
  25 Cl25           1.3618     4.3965     1.8304 Cl      
  26 Cl26          -2.3684     3.7214    -2.0165 Cl      
  27 C27            7.9094     3.5739    11.0636 C.2     
  28 N28            8.1817     4.6573    11.8175 N.am    
  29 O29            8.1230     2.4597    11.5009 O.2     
  30 C30            8.7350     4.4926    13.1640 C.3     
  31 C31            8.9463     5.8472    13.7895 C.ar    
  32 C32            7.9349     6.4331    14.5275 C.ar    
  33 C33            8.1287     7.6757    15.1013 C.ar    
  34 C34            9.3341     8.3323    14.9374 C.ar    
  35 C35           10.3458     7.7460    14.2001 C.ar    
  36 C36           10.1535     6.5015    13.6300 C.ar    
  37 H37            2.4999    -1.4237    -0.2219 H       
  38 H38            2.9624     0.1920    -0.8152 H       
  39 H39            0.8083    -0.3654    -1.7823 H       
  40 H40            0.1565    -0.8171    -0.1916 H       
  41 H41            1.5876    -0.3554     1.8617 H       
  42 H42            3.3323    -0.0456     1.6556 H       
  43 H43           -1.1213     1.1668    -1.9856 H       
  44 H44           -0.7823     4.9114     0.0290 H       
  45 H45            5.1667     3.6205     3.2365 H       
  46 H46            3.7119     4.2730     4.0276 H       
  47 H47            5.9426     5.0229     5.3813 H       
  48 H48            6.3297     1.9081     7.0539 H       
  49 H49            7.2583     1.6273     9.3111 H       
  50 H50            7.3229     5.8896     9.8056 H       
  51 H51            8.0112     5.5462    11.4686 H       
  52 H52            8.0405     3.9150    13.7740 H       
  53 H53            9.6884     3.9677    13.1033 H       
  54 H54            6.9931     5.9201    14.6556 H       
  55 H55            7.3382     8.1338    15.6773 H       
  56 H56            9.4853     9.3034    15.3850 H       
  57 H57           11.2874     8.2591    14.0718 H       
  58 H58           10.9440     6.0434    13.0540 H       
@<TRIPOS>BOND
   1    1    2 1
   2    1    6 1
   3    1   37 1
   4    1   38 1
   5    2    3 1
   6    2   39 1
   7    2   40 1
   8    3    4 ar
   9    3    7 ar
  10    4    5 1
  11    4   10 ar
  12    5    6 1
  13    5   11 am
  14    6   41 1
  15    6   42 1
  16    7    8 ar
  17    7   43 1
  18    8    9 ar
  19    8   26 1
  20    9   10 ar
  21    9   44 1
  22   10   25 1
  23   11   12 1
  24   11   13 2
  25   12   14 1
  26   14   15 1
  27   14   45 1
  28   14   46 1
  29   15   16 am
  30   15   17 2
  31   16   18 1
  32   16   47 1
  33   18   19 ar
  34   18   23 ar
  35   19   20 ar
  36   19   48 1
  37   20   21 ar
  38   20   49 1
  39   21   22 ar
  40   21   27 1
  41   22   23 ar
  42   22   50 1
  43   23   24 1
  44   27   28 am
  45   27   29 2
  46   28   30 1
  47   28   51 1
  48   30   31 1
  49   30   52 1
  50   30   53 1
  51   31   32 ar
  52   31   36 ar
  53   32   33 ar
  54   32   54 1
  55   33   34 ar
  56   33   55 1
  57   34   35 ar
  58   34   56 1
  59   35   36 ar
  60   35   57 1
  61   36   58 1

#	End of record

