#	Name: ASD01190046
#	Creating user name:	WinNT
#	Creation time:	15. 06. 2019 19:07

#	Modifying user name:	WinNT
#	Modification time:	15. 06. 2019 19:07

#	Program:	/corina/corina34_cracker 3.40 0067  02.08.2006

@<TRIPOS>MOLECULE
ASD01190046
  48   51    0    0    0
SMALL
NO_CHARGES


@<TRIPOS>ATOM
   1 N1            -0.0781     1.9084     0.0344 N.am    
   2 N2            -0.3810     3.2226     0.4052 N.2     
   3 C3             0.7138     3.9089     0.5571 C.2     
   4 C4             1.8421     3.0229     0.2764 C.ar    
   5 C5             3.2302     3.1900     0.2764 C.ar    
   6 C6             4.0400     2.1370    -0.0392 C.ar    
   7 C7             3.4976     0.8995    -0.3608 C.ar    
   8 C8             2.1334     0.7119    -0.3677 C.ar    
   9 C9             1.2896     1.7705    -0.0490 C.ar    
  10 C10           -0.9789     0.9332    -0.1980 C.2     
  11 O11           -0.6033    -0.1773    -0.5154 O.2     
  12 O12           -2.2946     1.1899    -0.0783 O.3     
  13 C13            5.5360     2.3193    -0.0390 C.3     
  14 C14            6.0273     2.5025     1.3983 C.3     
  15 O15            6.1564     1.1661    -0.6111 O.3     
  16 F16            5.6952     1.3719     2.1524 F       
  17 F17            7.4160     2.6717     1.3984 F       
  18 F18            5.4199     3.6315     1.9584 F       
  19 N19            6.6938     5.5234    -1.4354 N.pl3   
  20 C20            6.5521     4.6227    -0.4152 C.2     
  21 C21            5.8937     3.5372    -0.8513 C.2     
  22 C22            5.5888     3.7611    -2.2665 C.ar    
  23 C23            4.9358     3.0137    -3.2487 C.ar    
  24 C24            4.8116     3.5166    -4.5130 C.ar    
  25 C25            5.3295     4.7653    -4.8293 C.ar    
  26 C26            5.9777     5.5191    -3.8759 C.ar    
  27 C27            6.1154     5.0268    -2.5820 C.ar    
  28 C28            7.3568     6.8250    -1.3230 C.3     
  29 C29           -3.2073     0.0922    -0.3437 C.3     
  30 C30           -4.6485     0.5712    -0.1587 C.3     
  31 H31            0.7778     4.9491     0.8405 H       
  32 H32            3.6605     4.1489     0.5249 H       
  33 H33            4.1520     0.0767    -0.6081 H       
  34 H34            1.7202    -0.2537    -0.6197 H       
  35 H35            5.8907     0.9885    -1.5238 H       
  36 H36            6.9164     4.7640     0.5917 H       
  37 H37            4.5307     2.0415    -3.0100 H       
  38 H38            4.3068     2.9380    -5.2724 H       
  39 H39            5.2234     5.1493    -5.8332 H       
  40 H40            6.3775     6.4891    -4.1319 H       
  41 H41            8.4163     6.7142    -1.5540 H       
  42 H42            6.9034     7.5255    -2.0242 H       
  43 H43            7.2441     7.2036    -0.3071 H       
  44 H44           -3.0687    -0.2561    -1.3673 H       
  45 H45           -3.0041    -0.7247     0.3487 H       
  46 H46           -4.7871     0.9195     0.8649 H       
  47 H47           -4.8517     1.3881    -0.8511 H       
  48 H48           -5.3336    -0.2529    -0.3579 H       
@<TRIPOS>BOND
   1    1    2 1
   2    1    9 1
   3    1   10 am
   4    2    3 2
   5    3    4 1
   6    3   31 1
   7    4    5 ar
   8    4    9 ar
   9    5    6 ar
  10    5   32 1
  11    6    7 ar
  12    6   13 1
  13    7    8 ar
  14    7   33 1
  15    8    9 ar
  16    8   34 1
  17   10   11 2
  18   10   12 1
  19   12   29 1
  20   13   14 1
  21   13   15 1
  22   13   21 1
  23   14   16 1
  24   14   17 1
  25   14   18 1
  26   15   35 1
  27   19   20 1
  28   19   27 1
  29   19   28 1
  30   20   21 2
  31   20   36 1
  32   21   22 1
  33   22   23 ar
  34   22   27 ar
  35   23   24 ar
  36   23   37 1
  37   24   25 ar
  38   24   38 1
  39   25   26 ar
  40   25   39 1
  41   26   27 ar
  42   26   40 1
  43   28   41 1
  44   28   42 1
  45   28   43 1
  46   29   30 1
  47   29   44 1
  48   29   45 1
  49   30   46 1
  50   30   47 1
  51   30   48 1

#	End of record

