#	Name: ASD03430291
#	Creating user name:	WinNT
#	Creation time:	15. 06. 2019 20:40

#	Modifying user name:	WinNT
#	Modification time:	15. 06. 2019 20:40

#	Program:	/corina/corina34_cracker 3.40 0067  02.08.2006

@<TRIPOS>MOLECULE
ASD03430291
  45   49    0    0    0
SMALL
NO_CHARGES


@<TRIPOS>ATOM
   1 C1            -0.0167     1.3773     0.0096 C.ar    
   2 C2             0.0021    -0.0041     0.0020 C.ar    
   3 C3             1.2026    -0.6819    -0.0131 C.ar    
   4 C4             2.4101     0.0120    -0.0108 C.ar    
   5 C5             2.3883     1.4027    -0.0082 C.ar    
   6 C6             1.1808     2.0826     0.0020 C.ar    
   7 O7             3.4711    -0.8432     0.0014 O.3     
   8 C8             1.5502    -2.1461    -0.0469 C.3     
   9 C9             3.0362    -2.1466    -0.4312 C.3     
  10 C10            0.4223    -3.8593     1.0087 C.ar    
  11 C11            1.3126    -2.8207     1.2714 C.ar    
  12 C12            0.7168    -2.9058    -1.0387 C.2     
  13 N13            0.0937    -3.8820    -0.3489 N.am    
  14 O14            0.6223    -2.6840    -2.2273 O.2     
  15 C15            1.7787    -2.6040     2.5485 C.ar    
  16 C16            1.3641    -3.4210     3.5857 C.ar    
  17 C17            0.4806    -4.4548     3.3365 C.ar    
  18 C18            0.0105    -4.6762     2.0583 C.ar    
  19 C19           -0.8220    -4.8533    -0.9525 C.3     
  20 N20            1.1672     3.4792     0.0041 N.pl3   
  21 C21           -2.2493    -4.3039    -0.9091 C.3     
  22 C22           -3.2209    -5.3188    -1.5421 C.3     
  23 C23           -4.2338    -5.6293    -0.4133 C.3     
  24 C24           -4.0731    -4.3983     0.5148 C.3     
  25 O25           -2.6588    -4.1143     0.4557 O.3     
  26 H26           -0.9579     1.9069     0.0170 H       
  27 H27           -0.9269    -0.5549     0.0083 H       
  28 H28            3.3163     1.9550    -0.0139 H       
  29 H29            3.1573    -2.2571    -1.5088 H       
  30 H30            3.5737    -2.9307     0.1021 H       
  31 H31            2.4687    -1.7958     2.7411 H       
  32 H32            1.7303    -3.2517     4.5876 H       
  33 H33            0.1571    -5.0923     4.1461 H       
  34 H34           -0.6796    -5.4857     1.8714 H       
  35 H35           -0.5323    -5.0307    -1.9882 H       
  36 H36           -0.7761    -5.7899    -0.3968 H       
  37 H37            0.3225     3.9560     0.0109 H       
  38 H38            2.0025     3.9723    -0.0012 H       
  39 H39           -2.2987    -3.3578    -1.4480 H       
  40 H40           -3.7287    -4.8772    -2.3995 H       
  41 H41           -2.6890    -6.2234    -1.8368 H       
  42 H42           -5.2485    -5.6898    -0.8069 H       
  43 H43           -3.9652    -6.5477     0.1087 H       
  44 H44           -4.6502    -3.5545     0.1366 H       
  45 H45           -4.3731    -4.6440     1.5335 H       
@<TRIPOS>BOND
   1    1    2 ar
   2    1    6 ar
   3    1   26 1
   4    2    3 ar
   5    2   27 1
   6    3    4 ar
   7    3    8 1
   8    4    5 ar
   9    4    7 1
  10    5    6 ar
  11    5   28 1
  12    6   20 1
  13    7    9 1
  14    8    9 1
  15    8   11 1
  16    8   12 1
  17    9   29 1
  18    9   30 1
  19   10   11 ar
  20   10   13 1
  21   10   18 ar
  22   11   15 ar
  23   12   13 am
  24   12   14 2
  25   13   19 1
  26   15   16 ar
  27   15   31 1
  28   16   17 ar
  29   16   32 1
  30   17   18 ar
  31   17   33 1
  32   18   34 1
  33   19   21 1
  34   19   35 1
  35   19   36 1
  36   20   37 1
  37   20   38 1
  38   21   22 1
  39   21   25 1
  40   21   39 1
  41   22   23 1
  42   22   40 1
  43   22   41 1
  44   23   24 1
  45   23   42 1
  46   23   43 1
  47   24   25 1
  48   24   44 1
  49   24   45 1

#	End of record

