#	Name: ASD01470048
#	Creating user name:	WinNT
#	Creation time:	15. 06. 2019 19:21

#	Modifying user name:	WinNT
#	Modification time:	15. 06. 2019 19:21

#	Program:	/corina/corina34_cracker 3.40 0067  02.08.2006

@<TRIPOS>MOLECULE
ASD01470048
  93  100    0    0    0
SMALL
NO_CHARGES


@<TRIPOS>ATOM
   1 N1            -0.8146     1.1809     1.0113 N.am    
   2 C2             0.4709     0.5832     0.6608 C.3     
   3 C3             0.8056    -0.5797     1.6055 C.3     
   4 C4             0.1821    -1.8865     1.1401 C.3     
   5 C5            -1.1283    -1.6491     0.4078 C.3     
   6 N6            -2.0413    -0.8455     1.2217 N.am    
   7 C7            -1.8976     0.4874     1.3236 C.2     
   8 O8            -2.8556     1.1149     1.7320 O.2     
   9 C9            -3.1307    -1.5064     1.9446 C.3     
  10 C10           -0.9098     2.6428     1.0238 C.3     
  11 C11           -0.6633     3.1503     2.4212 C.ar    
  12 C12           -2.6750    -1.8437     3.3409 C.ar    
  13 C13           -2.7166    -0.8884     4.3146 C.ar    
  14 C14           -2.2936    -1.2029     5.6110 C.ar    
  15 C15           -1.8298    -2.5014     5.8968 C.ar    
  16 C16           -1.7993    -3.4556     4.8825 C.ar    
  17 C17           -2.2220    -3.1261     3.6261 C.ar    
  18 C18            0.6308     3.3309     2.8720 C.ar    
  19 C19            0.8582     3.7968     4.1533 C.ar    
  20 C20           -0.2108     4.0826     4.9852 C.ar    
  21 C21           -1.5069     3.9012     4.5325 C.ar    
  22 C22           -1.7318     3.4404     3.2494 C.ar    
  23 C23           -2.2042    -0.4516     6.8589 C.2     
  24 N24           -1.7320    -1.2516     7.7718 N.2     
  25 N25           -1.4896    -2.5156     7.2242 N.pl3   
  26 C26            0.4097     0.0631    -0.7768 C.3     
  27 O27            2.2247    -0.7371     1.6634 O.3     
  28 C28            1.4280     0.7892    -1.6175 C.ar    
  29 C29            2.6796     0.2375    -1.8170 C.ar    
  30 C30            3.6137     0.9036    -2.5882 C.ar    
  31 C31            3.2959     2.1213    -3.1603 C.ar    
  32 C32            2.0439     2.6726    -2.9615 C.ar    
  33 C33            1.1084     2.0044    -2.1939 C.ar    
  34 C34           -1.7833    -2.9965     0.0974 C.3     
  35 O35           -0.0619    -2.7182     2.2762 O.3     
  36 C36           -0.8883    -3.7911    -0.8184 C.ar    
  37 C37            0.1057    -4.5926    -0.2888 C.ar    
  38 C38            0.9267    -5.3214    -1.1289 C.ar    
  39 C39            0.7534    -5.2490    -2.4984 C.ar    
  40 C40           -0.2411    -4.4482    -3.0279 C.ar    
  41 C41           -1.0649    -3.7227    -2.1877 C.ar    
  42 C42           -2.6717     4.2115     5.4370 C.3     
  43 N43           -2.7945     3.1625     6.4523 N.pl3   
  44 C44           -3.8491     3.1827     7.3405 C.2     
  45 N45           -4.0546     2.2986     8.2847 N.2     
  46 C46           -5.1809     2.6205     8.9739 C.ar    
  47 C47           -5.6963     3.7936     8.3988 C.ar    
  48 N48           -4.8313     4.1307     7.3705 N.pl3   
  49 C49           -5.8456     2.0346    10.0541 C.ar    
  50 C50           -6.9963     2.6113    10.5431 C.ar    
  51 C51           -7.5012     3.7696     9.9711 C.ar    
  52 C52           -6.8563     4.3607     8.9043 C.ar    
  53 F53            0.0102     4.5376     6.2379 F       
  54 H54            1.2511     1.3410     0.7337 H       
  55 H55            0.4326    -0.3447     2.6024 H       
  56 H56            0.8769    -2.3943     0.4712 H       
  57 H57           -0.9273    -1.1269    -0.5277 H       
  58 H58           -3.9911    -0.8391     1.9944 H       
  59 H59           -3.4104    -2.4216     1.4227 H       
  60 H60           -0.1637     3.0613     0.3483 H       
  61 H61           -1.9051     2.9448     0.6979 H       
  62 H62           -3.0735     0.1049     4.0859 H       
  63 H63           -1.4453    -4.4546     5.0898 H       
  64 H64           -2.1968    -3.8693     2.8430 H       
  65 H65            1.4646     3.1075     2.2230 H       
  66 H66            1.8694     3.9375     4.5055 H       
  67 H67           -2.7425     3.2989     2.8960 H       
  68 H68           -2.4803     0.5829     7.0001 H       
  69 H69           -1.1374    -3.2798     7.7067 H       
  70 H70            0.6260    -1.0052    -0.7862 H       
  71 H71           -0.5868     0.2356    -1.1834 H       
  72 H72            2.5176    -1.4546     2.2418 H       
  73 H73            2.9279    -0.7138    -1.3701 H       
  74 H74            4.5918     0.4729    -2.7434 H       
  75 H75            4.0259     2.6420    -3.7622 H       
  76 H76            1.7958     3.6240    -3.4082 H       
  77 H77            0.1303     2.4351    -2.0387 H       
  78 H78           -1.9361    -3.5484     1.0248 H       
  79 H79           -2.7446    -2.8298    -0.3888 H       
  80 H80            0.7336    -2.9406     2.7789 H       
  81 H81            0.2410    -4.6492     0.7811 H       
  82 H82            1.7037    -5.9471    -0.7152 H       
  83 H83            1.3954    -5.8179    -3.1547 H       
  84 H84           -0.3762    -4.3913    -4.0979 H       
  85 H85           -1.8420    -3.0970    -2.6014 H       
  86 H86           -2.5069     5.1721     5.9250 H       
  87 H87           -3.5876     4.2557     4.8477 H       
  88 H88           -2.1339     2.4538     6.4997 H       
  89 H89           -4.9117     4.8948     6.7784 H       
  90 H90           -5.4584     1.1323    10.5037 H       
  91 H91           -7.5098     2.1580    11.3781 H       
  92 H92           -8.4050     4.2118    10.3635 H       
  93 H93           -7.2547     5.2623     8.4631 H       
@<TRIPOS>BOND
   1    1    2 1
   2    1   10 1
   3    1    7 am
   4    2    3 1
   5    2   26 1
   6    2   54 1
   7    3    4 1
   8    3   27 1
   9    3   55 1
  10    4    5 1
  11    4   35 1
  12    4   56 1
  13    5    6 1
  14    5   34 1
  15    5   57 1
  16    6    7 am
  17    6    9 1
  18    7    8 2
  19    9   12 1
  20    9   58 1
  21    9   59 1
  22   10   11 1
  23   10   60 1
  24   10   61 1
  25   11   18 ar
  26   11   22 ar
  27   12   13 ar
  28   12   17 ar
  29   13   14 ar
  30   13   62 1
  31   14   15 ar
  32   14   23 1
  33   15   16 ar
  34   15   25 1
  35   16   17 ar
  36   16   63 1
  37   17   64 1
  38   18   19 ar
  39   18   65 1
  40   19   20 ar
  41   19   66 1
  42   20   21 ar
  43   20   53 1
  44   21   22 ar
  45   21   42 1
  46   22   67 1
  47   23   24 2
  48   23   68 1
  49   24   25 1
  50   25   69 1
  51   26   28 1
  52   26   70 1
  53   26   71 1
  54   27   72 1
  55   28   29 ar
  56   28   33 ar
  57   29   30 ar
  58   29   73 1
  59   30   31 ar
  60   30   74 1
  61   31   32 ar
  62   31   75 1
  63   32   33 ar
  64   32   76 1
  65   33   77 1
  66   34   36 1
  67   34   78 1
  68   34   79 1
  69   35   80 1
  70   36   37 ar
  71   36   41 ar
  72   37   38 ar
  73   37   81 1
  74   38   39 ar
  75   38   82 1
  76   39   40 ar
  77   39   83 1
  78   40   41 ar
  79   40   84 1
  80   41   85 1
  81   42   43 1
  82   42   86 1
  83   42   87 1
  84   43   44 1
  85   43   88 1
  86   44   45 2
  87   44   48 1
  88   45   46 1
  89   46   47 ar
  90   46   49 ar
  91   47   48 1
  92   47   52 ar
  93   48   89 1
  94   49   50 ar
  95   49   90 1
  96   50   51 ar
  97   50   91 1
  98   51   52 ar
  99   51   92 1
 100   52   93 1

#	End of record

