#	Name: ASD01882441
#	Creating user name:	WinNT
#	Creation time:	15. 06. 2019 19:44

#	Modifying user name:	WinNT
#	Modification time:	15. 06. 2019 19:44

#	Program:	/corina/corina34_cracker 3.40 0067  02.08.2006

@<TRIPOS>MOLECULE
ASD01882441
  54   58    0    0    0
SMALL
NO_CHARGES


@<TRIPOS>ATOM
   1 C1             1.5484     1.4579    -1.0838 C.2     
   2 C2             1.6032     0.0534    -1.1156 C.2     
   3 C3             1.2066    -0.6546    -0.0130 C.2     
   4 C4             0.7515     0.0354     1.1313 C.2     
   5 C5             0.7072     1.3822     1.1399 C.2     
   6 N6             1.1002     2.0975     0.0463 N.pl3   
   7 N7             1.6255     3.5578    -1.4478 N.2     
   8 N8             1.8579     2.4009    -1.9607 N.2     
   9 C9             1.1652     3.4314    -0.2310 C.2     
  10 N10            1.2514    -2.0467    -0.0204 N.pl3   
  11 C11            2.5313    -2.7602    -0.1465 C.3     
  12 C12            2.6246    -3.7953     0.9796 C.3     
  13 N13            1.4311    -4.6513     0.9536 N.3     
  14 C14            0.2121    -3.8741     1.2140 C.3     
  15 C15            0.0205    -2.8422     0.1037 C.3     
  16 C16            1.5599    -5.7631     1.9050 C.3     
  17 C17            0.2157    -6.4824     2.0339 C.3     
  18 C18            0.3478    -7.6230     3.0100 C.ar    
  19 C19            0.1027    -7.4142     4.3543 C.ar    
  20 C20            0.2240    -8.4604     5.2496 C.ar    
  21 C21            0.5898    -9.7155     4.8006 C.ar    
  22 C22            0.8340    -9.9245     3.4561 C.ar    
  23 C23            0.7085    -8.8793     2.5602 C.ar    
  24 C24            0.7792     4.5543     0.6970 C.3     
  25 C25            1.9966     4.9750     1.5226 C.3     
  26 C26            1.8403     6.1851     2.4457 C.3     
  27 C27            1.9251     4.7770     3.0381 C.3     
  28 Cl28           2.1662    -0.7725    -2.5350 Cl      
  29 H29            0.4372    -0.5184     2.0036 H       
  30 H30            0.3571     1.9003     2.0204 H       
  31 H31            2.5760    -3.2643    -1.1119 H       
  32 H32            3.3553    -2.0517    -0.0618 H       
  33 H33            3.5149    -4.4080     0.8376 H       
  34 H34            2.6843    -3.2834     1.9401 H       
  35 H35           -0.6473    -4.5440     1.2420 H       
  36 H36            0.3053    -3.3612     2.1713 H       
  37 H37           -0.8147    -2.1880     0.3537 H       
  38 H38           -0.1808    -3.3544    -0.8372 H       
  39 H39            2.3138    -6.4635     1.5455 H       
  40 H40            1.8593    -5.3753     2.8787 H       
  41 H41           -0.5382    -5.7820     2.3934 H       
  42 H42           -0.0837    -6.8702     1.0602 H       
  43 H43           -0.1831    -6.4335     4.7052 H       
  44 H44            0.0332    -8.2971     6.3000 H       
  45 H45            0.6852   -10.5327     5.5002 H       
  46 H46            1.1202   -10.9051     3.1053 H       
  47 H47            0.8957    -9.0435     1.5093 H       
  48 H48            0.4256     5.4035     0.1123 H       
  49 H49           -0.0139     4.2175     1.3646 H       
  50 H50            2.9638     4.8309     1.0410 H       
  51 H51            2.7047     6.8370     2.5716 H       
  52 H52            0.8701     6.6815     2.4647 H       
  53 H53            1.0107     4.3471     3.4469 H       
  54 H54            2.8453     4.5025     3.5538 H       
@<TRIPOS>BOND
   1    1    2 1
   2    1    6 1
   3    1    8 2
   4    2    3 2
   5    2   28 1
   6    3    4 1
   7    3   10 1
   8    4    5 2
   9    4   29 1
  10    5    6 1
  11    5   30 1
  12    6    9 1
  13    7    8 1
  14    7    9 2
  15    9   24 1
  16   10   11 1
  17   10   15 1
  18   11   12 1
  19   11   31 1
  20   11   32 1
  21   12   13 1
  22   12   33 1
  23   12   34 1
  24   13   14 1
  25   13   16 1
  26   14   15 1
  27   14   35 1
  28   14   36 1
  29   15   37 1
  30   15   38 1
  31   16   17 1
  32   16   39 1
  33   16   40 1
  34   17   18 1
  35   17   41 1
  36   17   42 1
  37   18   19 ar
  38   18   23 ar
  39   19   20 ar
  40   19   43 1
  41   20   21 ar
  42   20   44 1
  43   21   22 ar
  44   21   45 1
  45   22   23 ar
  46   22   46 1
  47   23   47 1
  48   24   25 1
  49   24   48 1
  50   24   49 1
  51   25   26 1
  52   25   27 1
  53   25   50 1
  54   26   27 1
  55   26   51 1
  56   26   52 1
  57   27   53 1
  58   27   54 1

#	End of record

