#	Name: ASD03331563
#	Creating user name:	WinNT
#	Creation time:	15. 06. 2019 20:39

#	Modifying user name:	WinNT
#	Modification time:	15. 06. 2019 20:39

#	Program:	/corina/corina34_cracker 3.40 0067  02.08.2006

@<TRIPOS>MOLECULE
ASD03331563
  53   55    0    0    0
SMALL
NO_CHARGES


@<TRIPOS>ATOM
   1 C1            -0.1808     0.3196     1.0510 C.ar    
   2 C2             0.0559    -1.0553     1.0455 C.ar    
   3 C3             0.9402     1.2662     0.8624 C.2     
   4 N4             0.8244     2.5685     0.4722 N.pl3   
   5 C5             2.0842     3.0805     0.3954 C.2     
   6 C6             2.9435     2.0942     0.7664 C.2     
   7 N7             2.2106     0.9943     1.0480 N.2     
   8 C8            -0.4142     3.3034     0.2042 C.3     
   9 C9            -0.1295     4.4303    -0.7919 C.3     
  10 O10            0.2842     5.6052    -0.0921 O.3     
  11 C11            1.4817     5.4598     0.6664 C.3     
  12 C12            2.4203     4.4804    -0.0461 C.3     
  13 C13            4.4103     2.2062     0.8515 C.2     
  14 O14            4.9570     3.2570     0.5753 O.2     
  15 N15            5.1461     1.1444     1.2356 N.am    
  16 C16            6.6044     1.2557     1.3202 C.3     
  17 C17            7.2166     0.9961    -0.0577 C.3     
  18 C18            7.1376     0.2252     2.3175 C.3     
  19 C19            6.6378    -1.1675     1.9280 C.3     
  20 C20            8.6674     0.2417     2.2992 C.3     
  21 C21            6.6406     0.5708     3.7227 C.3     
  22 C22           -0.9946    -1.9347     1.2217 C.ar    
  23 C23           -2.2828    -1.4516     1.4037 C.ar    
  24 C24           -2.5211    -0.0868     1.4092 C.ar    
  25 C25           -1.4791     0.7989     1.2293 C.ar    
  26 F26           -3.3077    -2.3148     1.5757 F       
  27 F27           -0.7679    -3.2666     1.2163 F       
  28 O28            6.9057    -0.3351    -0.4739 O.3     
  29 H29            1.0584    -1.4313     0.9035 H       
  30 H30           -1.1561     2.6247    -0.2166 H       
  31 H31           -0.7942     3.7271     1.1339 H       
  32 H32            0.6607     4.1186    -1.4749 H       
  33 H33           -1.0334     4.6474    -1.3610 H       
  34 H34            1.9716     6.4289     0.7615 H       
  35 H35            1.2399     5.0758     1.6574 H       
  36 H36            3.4535     4.7082     0.2158 H       
  37 H37            2.2871     4.5655    -1.1246 H       
  38 H38            4.7101     0.3064     1.4559 H       
  39 H39            6.8735     2.2578     1.6544 H       
  40 H40            6.8079     1.7064    -0.7765 H       
  41 H41            8.2986     1.1164    -0.0031 H       
  42 H42            7.1370    -1.4902     1.0143 H       
  43 H43            6.8594    -1.8707     2.7308 H       
  44 H44            5.5612    -1.1337     1.7614 H       
  45 H45            9.0234     1.2338     2.5767 H       
  46 H46            9.0472    -0.4925     3.0097 H       
  47 H47            9.0214    -0.0045     1.2981 H       
  48 H48            5.5508     0.5590     3.7358 H       
  49 H49            7.0205    -0.1634     4.4332 H       
  50 H50            6.9967     1.5629     4.0002 H       
  51 H51           -3.5254     0.2842     1.5506 H       
  52 H52           -1.6668     1.8624     1.2342 H       
  53 H53            7.2630    -0.5695    -1.3414 H       
@<TRIPOS>BOND
   1    1    2 ar
   2    1    3 1
   3    1   25 ar
   4    2   22 ar
   5    2   29 1
   6    3    4 1
   7    3    7 2
   8    4    5 1
   9    4    8 1
  10    5    6 2
  11    5   12 1
  12    6    7 1
  13    6   13 1
  14    8    9 1
  15    8   30 1
  16    8   31 1
  17    9   10 1
  18    9   32 1
  19    9   33 1
  20   10   11 1
  21   11   12 1
  22   11   34 1
  23   11   35 1
  24   12   36 1
  25   12   37 1
  26   13   14 2
  27   13   15 am
  28   15   16 1
  29   15   38 1
  30   16   18 1
  31   16   17 1
  32   16   39 1
  33   17   28 1
  34   17   40 1
  35   17   41 1
  36   18   19 1
  37   18   20 1
  38   18   21 1
  39   19   42 1
  40   19   43 1
  41   19   44 1
  42   20   45 1
  43   20   46 1
  44   20   47 1
  45   21   48 1
  46   21   49 1
  47   21   50 1
  48   22   23 ar
  49   22   27 1
  50   23   24 ar
  51   23   26 1
  52   24   25 ar
  53   24   51 1
  54   25   52 1
  55   28   53 1

#	End of record

