#	Name: ASD03090158
#	Creating user name:	WinNT
#	Creation time:	15. 06. 2019 20:28

#	Modifying user name:	WinNT
#	Modification time:	15. 06. 2019 20:28

#	Program:	/corina/corina34_cracker 3.40 0067  02.08.2006

@<TRIPOS>MOLECULE
ASD03090158
  40   42    0    0    0
SMALL
NO_CHARGES


@<TRIPOS>ATOM
   1 C1             0.0811     1.2088    -0.5926 C.ar    
   2 C2            -0.0790     0.2201     0.3628 C.ar    
   3 C3            -1.2805    -0.4525     0.4692 C.ar    
   4 C4            -2.3342    -0.1325    -0.3891 C.ar    
   5 C5            -2.1659     0.8657    -1.3496 C.ar    
   6 C6            -0.9630     1.5339    -1.4427 C.ar    
   7 C7            -3.6237    -0.8491    -0.2811 C.2     
   8 N8            -5.6202    -3.7358    -0.0808 N.pl3   
   9 C9            -4.7735    -4.8450    -0.0070 C.ar    
  10 C10           -3.5433    -4.7405     0.6294 C.ar    
  11 C11           -2.7088    -5.8388     0.7006 C.ar    
  12 C12           -3.0968    -7.0413     0.1392 C.ar    
  13 C13           -4.3211    -7.1489    -0.4952 C.ar    
  14 C14           -5.1627    -6.0565    -0.5650 C.ar    
  15 N15           -3.7834    -2.1572    -0.2455 N.2     
  16 C16           -5.0814    -2.4492    -0.1437 C.2     
  17 N17           -5.7705    -1.3321    -0.1127 N.2     
  18 N18           -4.8462    -0.2782    -0.1954 N.pl3   
  19 C19           -5.1475     1.1555    -0.1971 C.3     
  20 C20           -5.0489     1.6911     1.2081 C.2     
  21 N21           -5.2864     2.9955     1.4502 N.am    
  22 O22           -4.7559     0.9484     2.1210 O.2     
  23 Cl23          -1.4800    -1.6931     1.6670 Cl      
  24 Cl24           1.5944     2.0497    -0.7211 Cl      
  25 C25           -4.7395    -8.4615    -1.1060 C.3     
  26 F26           -3.7324    -9.4115    -0.9048 F       
  27 F27           -5.9225    -8.9009    -0.5020 F       
  28 F28           -4.9520    -8.2907    -2.4782 F       
  29 H29            0.7372    -0.0261     1.0258 H       
  30 H30           -2.9775     1.1173    -2.0162 H       
  31 H31           -0.8321     2.3065    -2.1858 H       
  32 H32           -6.5822    -3.8597    -0.0884 H       
  33 H33           -3.2394    -3.8014     1.0678 H       
  34 H34           -1.7520    -5.7581     1.1950 H       
  35 H35           -2.4422    -7.8985     0.1960 H       
  36 H36           -6.1187    -6.1412    -1.0602 H       
  37 H37           -4.4335     1.6761    -0.8353 H       
  38 H38           -6.1569     1.3142    -0.5764 H       
  39 H39           -5.5208     3.5895     0.7201 H       
  40 H40           -5.2230     3.3403     2.3547 H       
@<TRIPOS>BOND
   1    1    2 ar
   2    1   24 1
   3    1    6 ar
   4    2    3 ar
   5    2   29 1
   6    3    4 ar
   7    3   23 1
   8    4    5 ar
   9    4    7 1
  10    5    6 ar
  11    5   30 1
  12    6   31 1
  13    7   15 2
  14    7   18 1
  15    8    9 1
  16    8   16 1
  17    8   32 1
  18    9   10 ar
  19    9   14 ar
  20   10   11 ar
  21   10   33 1
  22   11   12 ar
  23   11   34 1
  24   12   13 ar
  25   12   35 1
  26   13   14 ar
  27   13   25 1
  28   14   36 1
  29   15   16 1
  30   16   17 2
  31   17   18 1
  32   18   19 1
  33   19   20 1
  34   19   37 1
  35   19   38 1
  36   20   21 am
  37   20   22 2
  38   21   39 1
  39   21   40 1
  40   25   26 1
  41   25   27 1
  42   25   28 1

#	End of record

