#	Name: ASD01478001
#	Creating user name:	WinNT
#	Creation time:	15. 06. 2019 19:21

#	Modifying user name:	WinNT
#	Modification time:	15. 06. 2019 19:21

#	Program:	/corina/corina34_cracker 3.40 0067  02.08.2006

@<TRIPOS>MOLECULE
ASD01478001
  79   81    0    0    0
SMALL
NO_CHARGES


@<TRIPOS>ATOM
   1 C1            -0.5173     2.8541    -1.3409 C.3     
   2 C2            -0.6248     1.4019    -1.7900 C.3     
   3 C3             0.9490     3.2451    -1.1605 C.3     
   4 O4             1.7025     2.7472    -2.2712 O.3     
   5 C5             1.5113     3.4850    -3.4781 C.3     
   6 O6             0.2911     3.1068    -4.1034 O.3     
   7 C7             0.0573     1.6995    -4.1638 C.3     
   8 C8            -1.1099     1.3380    -3.2386 C.3     
   9 C9            -1.7639     4.2276     0.1611 C.2     
  10 O10           -1.2180     3.0207    -0.0801 O.3     
  11 N11           -2.4281     4.4488     1.3127 N.am    
  12 O12           -1.6577     5.1173    -0.6596 O.2     
  13 C13           -4.4090     5.8320     0.9328 C.3     
  14 C14           -3.0221     5.7620     1.5751 C.3     
  15 C15           -3.1483     5.9721     3.0854 C.3     
  16 C16           -3.6518     7.3900     3.3627 C.3     
  17 N17           -3.6482     7.6357     4.8070 N.am    
  18 S18           -5.0765     7.8787     5.6090 S.o2    
  19 C19           -5.6496     6.3006     6.1434 C.ar    
  20 C20           -5.2742     5.8129     7.3816 C.ar    
  21 C21           -5.7222     4.5759     7.8029 C.ar    
  22 C22           -6.5495     3.8228     6.9825 C.ar    
  23 C23           -6.9248     4.3143     5.7406 C.ar    
  24 C24           -6.4787     5.5544     5.3263 C.ar    
  25 O25           -4.7569     8.6090     6.7854 O.2     
  26 O26           -6.0085     8.3367     4.6391 O.2     
  27 C27           -2.3811     7.6664     5.5417 C.3     
  28 C28           -1.5652     8.8832     5.1005 C.3     
  29 C29           -2.3203    10.1630     5.4651 C.3     
  30 C30           -0.2090     8.8718     5.8088 C.3     
  31 O31           -4.0735     5.0246     3.6224 O.3     
  32 O32           -6.9912     2.6054     7.3945 O.3     
  33 C33           -7.8398     1.8857     6.4979 C.3     
  34 C34           -4.2734     5.7480    -0.5657 C.ar    
  35 C35           -4.2986     4.5170    -1.1941 C.ar    
  36 C36           -4.1742     4.4399    -2.5687 C.ar    
  37 C37           -4.0249     5.5939    -3.3149 C.ar    
  38 C38           -4.0005     6.8250    -2.6866 C.ar    
  39 C39           -4.1294     6.9024    -1.3125 C.ar    
  40 H40           -0.9730     3.4990    -2.0923 H       
  41 H41            0.3531     0.9265    -1.7145 H       
  42 H42           -1.3317     0.8760    -1.1482 H       
  43 H43            1.0348     4.3309    -1.1187 H       
  44 H44            1.3313     2.8114    -0.2364 H       
  45 H45            1.4838     4.5502    -3.2488 H       
  46 H46            2.3407     3.2867    -4.1570 H       
  47 H47           -0.1883     1.4153    -5.1870 H       
  48 H48            0.9533     1.1679    -3.8435 H       
  49 H49           -1.4563     0.3294    -3.4640 H       
  50 H50           -1.9244     2.0478    -3.3831 H       
  51 H51           -2.5129     3.7385     1.9679 H       
  52 H52           -5.0171     5.0008     1.2897 H       
  53 H53           -4.8870     6.7738     1.2021 H       
  54 H54           -2.3861     6.5395     1.1520 H       
  55 H55           -2.1740     5.8343     3.5541 H       
  56 H56           -2.9987     8.1103     2.8700 H       
  57 H57           -4.6662     7.4971     2.9784 H       
  58 H58           -4.6299     6.3995     8.0197 H       
  59 H59           -5.4284     4.1953     8.7699 H       
  60 H60           -7.5688     3.7299     5.1002 H       
  61 H61           -6.7705     5.9375     4.3596 H       
  62 H62           -2.5826     7.7323     6.6108 H       
  63 H63           -1.8182     6.7566     5.3333 H       
  64 H64           -1.4121     8.8464     4.0220 H       
  65 H65           -2.4733    10.1998     6.5437 H       
  66 H66           -1.7390    11.0298     5.1509 H       
  67 H67           -3.2864    10.1711     4.9606 H       
  68 H68            0.3289     7.9601     5.5490 H       
  69 H69            0.3722     9.7387     5.4945 H       
  70 H70           -0.3621     8.9086     6.8873 H       
  71 H71           -4.9635     5.0893     3.2499 H       
  72 H72           -8.1195     0.9332     6.9481 H       
  73 H73           -8.7375     2.4709     6.2987 H       
  74 H74           -7.3097     1.7039     5.5630 H       
  75 H75           -4.4152     3.6154    -0.6111 H       
  76 H76           -4.1932     3.4781    -3.0596 H       
  77 H77           -3.9269     5.5337    -4.3888 H       
  78 H78           -3.8836     7.7266    -3.2696 H       
  79 H79           -4.1141     7.8644    -0.8220 H       
@<TRIPOS>BOND
   1    1    2 1
   2    1    3 1
   3    1   10 1
   4    1   40 1
   5    2    8 1
   6    2   41 1
   7    2   42 1
   8    3    4 1
   9    3   43 1
  10    3   44 1
  11    4    5 1
  12    5    6 1
  13    5   45 1
  14    5   46 1
  15    6    7 1
  16    7    8 1
  17    7   47 1
  18    7   48 1
  19    8   49 1
  20    8   50 1
  21    9   10 1
  22    9   11 am
  23    9   12 2
  24   11   14 1
  25   11   51 1
  26   13   14 1
  27   13   34 1
  28   13   52 1
  29   13   53 1
  30   14   15 1
  31   14   54 1
  32   15   16 1
  33   15   31 1
  34   15   55 1
  35   16   17 1
  36   16   56 1
  37   16   57 1
  38   17   18 am
  39   17   27 1
  40   18   19 1
  41   18   25 2
  42   18   26 2
  43   19   20 ar
  44   19   24 ar
  45   20   21 ar
  46   20   58 1
  47   21   22 ar
  48   21   59 1
  49   22   23 ar
  50   22   32 1
  51   23   24 ar
  52   23   60 1
  53   24   61 1
  54   27   28 1
  55   27   62 1
  56   27   63 1
  57   28   29 1
  58   28   30 1
  59   28   64 1
  60   29   65 1
  61   29   66 1
  62   29   67 1
  63   30   68 1
  64   30   69 1
  65   30   70 1
  66   31   71 1
  67   32   33 1
  68   33   72 1
  69   33   73 1
  70   33   74 1
  71   34   35 ar
  72   34   39 ar
  73   35   36 ar
  74   35   75 1
  75   36   37 ar
  76   36   76 1
  77   37   38 ar
  78   37   77 1
  79   38   39 ar
  80   38   78 1
  81   39   79 1

#	End of record

