#	Name: ASD04550048
#	Creating user name:	WinNT
#	Creation time:	15. 06. 2019 20:49

#	Modifying user name:	WinNT
#	Modification time:	15. 06. 2019 20:49

#	Program:	/corina/corina34_cracker 3.40 0067  02.08.2006

@<TRIPOS>MOLECULE
ASD04550048
  42   43    0    0    0
SMALL
NO_CHARGES


@<TRIPOS>ATOM
   1 C1            -0.1176     1.5335    -0.0876 C.ar    
   2 C2            -0.0171     0.1509    -0.1767 C.ar    
   3 C3             1.2131    -0.4372    -0.4422 C.ar    
   4 C4             2.3316     0.3538    -0.6167 C.ar    
   5 C5             2.2281     1.7299    -0.5269 C.ar    
   6 C6             1.0049     2.3187    -0.2631 C.ar    
   7 C7             3.4509     2.5898    -0.7173 C.3     
   8 C8             3.2309     3.5344    -1.9007 C.3     
   9 N9            -1.1502    -0.6461     0.0007 N.am    
  10 S10           -1.4694    -1.8790    -1.0579 S.o2    
  11 C11           -0.2060    -3.0888    -0.8457 C.ar    
  12 O12           -2.6794    -2.4812    -0.6193 O.2     
  13 O13           -1.2964    -1.3427    -2.3623 O.2     
  14 C14           -0.0801    -3.7522     0.3602 C.ar    
  15 C15            0.9113    -4.7015     0.5267 C.ar    
  16 C16            1.7760    -4.9873    -0.5129 C.ar    
  17 C17            1.6494    -4.3243    -1.7195 C.ar    
  18 C18            0.6557    -3.3784    -1.8874 C.ar    
  19 C19           -1.0229    -3.4406     1.4938 C.3     
  20 C20           -2.2402    -4.3640     1.4132 C.3     
  21 C21            3.6965     3.3974     0.5311 C.2     
  22 O22            2.9547     3.2861     1.4783 O.2     
  23 O23            4.7394     4.2404     0.5908 O.3     
  24 H24           -1.0733     1.9942     0.1143 H       
  25 H25            1.2947    -1.5119    -0.5118 H       
  26 H26            3.2883    -0.1028    -0.8231 H       
  27 H27            0.9275     3.3936    -0.1936 H       
  28 H28            4.3145     1.9548    -0.9150 H       
  29 H29            4.1153     4.1564    -2.0384 H       
  30 H30            3.0532     2.9503    -2.8036 H       
  31 H31            2.3673     4.1694    -1.7030 H       
  32 H32           -1.7503    -0.4775     0.7440 H       
  33 H33            1.0102    -5.2194     1.4692 H       
  34 H34            2.5508    -5.7283    -0.3827 H       
  35 H35            2.3253    -4.5474    -2.5318 H       
  36 H36            0.5567    -2.8605    -2.8299 H       
  37 H37           -0.5120    -3.5950     2.4442 H       
  38 H38           -1.3485    -2.4029     1.4207 H       
  39 H39           -2.6874    -4.2899     0.4219 H       
  40 H40           -1.9287    -5.3925     1.5953 H       
  41 H41           -2.9716    -4.0674     2.1649 H       
  42 H42            4.8561     4.7368     1.4124 H       
@<TRIPOS>BOND
   1    1    2 ar
   2    1    6 ar
   3    1   24 1
   4    2    3 ar
   5    2    9 1
   6    3    4 ar
   7    3   25 1
   8    4    5 ar
   9    4   26 1
  10    5    6 ar
  11    5    7 1
  12    6   27 1
  13    7    8 1
  14    7   21 1
  15    7   28 1
  16    8   29 1
  17    8   30 1
  18    8   31 1
  19    9   10 am
  20    9   32 1
  21   10   11 1
  22   10   12 2
  23   10   13 2
  24   11   14 ar
  25   11   18 ar
  26   14   15 ar
  27   14   19 1
  28   15   16 ar
  29   15   33 1
  30   16   17 ar
  31   16   34 1
  32   17   18 ar
  33   17   35 1
  34   18   36 1
  35   19   20 1
  36   19   37 1
  37   19   38 1
  38   20   39 1
  39   20   40 1
  40   20   41 1
  41   21   22 2
  42   21   23 1
  43   23   42 1

#	End of record

