#	Name: ASD01912976
#	Creating user name:	WinNT
#	Creation time:	15. 06. 2019 20:00

#	Modifying user name:	WinNT
#	Modification time:	15. 06. 2019 20:00

#	Program:	/corina/corina34_cracker 3.40 0067  02.08.2006

@<TRIPOS>MOLECULE
ASD01912976
  41   44    0    0    0
SMALL
NO_CHARGES


@<TRIPOS>ATOM
   1 C1            -0.0173     1.4278     0.0099 C.2     
   2 C2             0.0021    -0.0041     0.0020 C.1     
   3 C3             0.0180    -1.1779    -0.0044 C.1     
   4 C4             0.0374    -2.6098    -0.0123 C.ar    
   5 C5            -1.1619    -3.3285    -0.0047 C.ar    
   6 C6             1.2551    -3.2952    -0.0334 C.ar    
   7 C7             1.2654    -4.6767    -0.0408 C.ar    
   8 C8             0.0719    -5.3810    -0.0274 C.ar    
   9 C9            -1.1366    -4.7072    -0.0123 C.ar    
  10 N10            1.0315     2.1979     0.0040 N.2     
  11 C11            0.8407     3.5060     0.0148 C.2     
  12 C12           -0.4581     3.8737     0.0251 C.2     
  13 S13           -1.4644     2.4309     0.0214 S.3     
  14 C14            1.9819     4.5147     0.0229 C.3     
  15 C15            1.4543     5.8742    -0.4399 C.3     
  16 N16            0.2053     6.1746     0.2761 N.am    
  17 C17           -0.9550     5.3022     0.0280 C.3     
  18 C18            0.1254     7.2133     1.1311 C.2     
  19 C19           -1.1671     7.4985     1.8516 C.3     
  20 O20            1.0937     7.9186     1.3207 O.2     
  21 F21            2.4409    -5.3421    -0.0617 F       
  22 C22           -1.0942     8.7151     2.7893 C.3     
  23 C23           -2.5066     9.0774     2.3007 C.3     
  24 C24           -2.1747     8.3035     1.0139 C.3     
  25 F25           -3.5283     8.4940     3.0577 F       
  26 F26           -2.6947    10.4486     2.0972 F       
  27 H27           -2.1064    -2.8049     0.0074 H       
  28 H28            2.1853    -2.7466    -0.0442 H       
  29 H29            0.0850    -6.4609    -0.0333 H       
  30 H30           -2.0628    -5.2627    -0.0019 H       
  31 H31            2.3819     4.6039     1.0329 H       
  32 H32            2.7686     4.1800    -0.6532 H       
  33 H33            2.1935     6.6452    -0.2226 H       
  34 H34            1.2615     5.8444    -1.5123 H       
  35 H35           -1.3982     5.5419    -0.9385 H       
  36 H36           -1.6939     5.4355     0.8182 H       
  37 H37           -1.5956     6.6119     2.3190 H       
  38 H38           -1.0523     8.4501     3.8458 H       
  39 H39           -0.3336     9.4417     2.5036 H       
  40 H40           -1.7095     8.9175     0.2428 H       
  41 H41           -3.0050     7.7062     0.6371 H       
@<TRIPOS>BOND
   1    1    2 1
   2    1   10 2
   3    1   13 1
   4    2    3 3
   5    3    4 1
   6    4    5 ar
   7    4    6 ar
   8    5    9 ar
   9    5   27 1
  10    6    7 ar
  11    6   28 1
  12    7    8 ar
  13    7   21 1
  14    8    9 ar
  15    8   29 1
  16    9   30 1
  17   10   11 1
  18   11   12 2
  19   11   14 1
  20   12   13 1
  21   12   17 1
  22   14   15 1
  23   14   31 1
  24   14   32 1
  25   15   16 1
  26   15   33 1
  27   15   34 1
  28   16   17 1
  29   16   18 am
  30   17   35 1
  31   17   36 1
  32   18   19 1
  33   18   20 2
  34   19   22 1
  35   19   24 1
  36   19   37 1
  37   22   23 1
  38   22   38 1
  39   22   39 1
  40   23   24 1
  41   23   25 1
  42   23   26 1
  43   24   40 1
  44   24   41 1

#	End of record

