#	Name: ASD01810626
#	Creating user name:	WinNT
#	Creation time:	15. 06. 2019 19:25

#	Modifying user name:	WinNT
#	Modification time:	15. 06. 2019 19:25

#	Program:	/corina/corina34_cracker 3.40 0067  02.08.2006

@<TRIPOS>MOLECULE
ASD01810626
  45   48    0    0    0
SMALL
NO_CHARGES


@<TRIPOS>ATOM
   1 N1             0.0159     1.4184     0.4089 N.am    
   2 N2             0.1243     0.0898     0.8174 N.2     
   3 C3             1.3433    -0.3552     0.6674 C.2     
   4 C4             2.1503     0.7512     0.1095 C.2     
   5 C5             1.2068     1.8733    -0.0289 C.2     
   6 O6             1.4531     2.9885    -0.4541 O.2     
   7 C7             1.8275    -1.7159     0.9954 C.ar    
   8 C8             2.7812    -1.8982     1.9998 C.ar    
   9 C9             3.2278    -3.1710     2.3005 C.ar    
  10 C10            2.7324    -4.2616     1.6088 C.ar    
  11 C11            1.7879    -4.0863     0.6133 C.ar    
  12 C12            1.3291    -2.8213     0.3070 C.ar    
  13 F13            3.2659    -0.8331     2.6750 F       
  14 C14           -1.1646     2.1719     0.4429 C.ar    
  15 C15           -2.3086     1.7046    -0.1959 C.ar    
  16 C16           -3.4718     2.4513    -0.1594 C.ar    
  17 C17           -3.4974     3.6609     0.5108 C.ar    
  18 C18           -2.3614     4.1274     1.1459 C.ar    
  19 C19           -1.1972     3.3837     1.1188 C.ar    
  20 F20           -2.2831     0.5234    -0.8512 F       
  21 N21            3.4320     0.7365    -0.1959 N.2     
  22 N22            4.0962    -0.3678    -0.1382 N.pl3   
  23 C23            5.5450    -0.3635    -0.3555 C.3     
  24 C24            6.0752    -1.7689    -0.2349 C.ar    
  25 C25            6.1431    -2.5802    -1.3522 C.ar    
  26 C26            6.6290    -3.8695    -1.2419 C.ar    
  27 C27            7.0477    -4.3477    -0.0137 C.ar    
  28 C28            6.9801    -3.5358     1.1038 C.ar    
  29 C29            6.4990    -2.2448     0.9918 C.ar    
  30 I30            7.7835    -6.3021     0.1541 I       
  31 H31            3.9651    -3.3144     3.0766 H       
  32 H32            3.0848    -5.2544     1.8466 H       
  33 H33            1.4056    -4.9422     0.0770 H       
  34 H34            0.5885    -2.6873    -0.4675 H       
  35 H35           -4.3608     2.0900    -0.6548 H       
  36 H36           -4.4069     4.2427     0.5377 H       
  37 H37           -2.3852     5.0727     1.6675 H       
  38 H38           -0.3120     3.7472     1.6195 H       
  39 H39            3.6364    -1.2011     0.0490 H       
  40 H40            5.7619     0.0225    -1.3515 H       
  41 H41            6.0225     0.2704     0.3917 H       
  42 H42            5.8161    -2.2066    -2.3114 H       
  43 H43            6.6813    -4.5034    -2.1147 H       
  44 H44            7.3067    -3.9092     2.0631 H       
  45 H45            6.4500    -1.6094     1.8637 H       
@<TRIPOS>BOND
   1    1    2 1
   2    1    5 am
   3    1   14 1
   4    2    3 2
   5    3    4 1
   6    3    7 1
   7    4    5 1
   8    4   21 2
   9    5    6 2
  10    7    8 ar
  11    7   12 ar
  12    8    9 ar
  13    8   13 1
  14    9   10 ar
  15    9   31 1
  16   10   11 ar
  17   10   32 1
  18   11   12 ar
  19   11   33 1
  20   12   34 1
  21   14   15 ar
  22   14   19 ar
  23   15   16 ar
  24   15   20 1
  25   16   17 ar
  26   16   35 1
  27   17   18 ar
  28   17   36 1
  29   18   19 ar
  30   18   37 1
  31   19   38 1
  32   21   22 1
  33   22   23 1
  34   22   39 1
  35   23   24 1
  36   23   40 1
  37   23   41 1
  38   24   25 ar
  39   24   29 ar
  40   25   26 ar
  41   25   42 1
  42   26   27 ar
  43   26   43 1
  44   27   28 ar
  45   27   30 1
  46   28   29 ar
  47   28   44 1
  48   29   45 1

#	End of record

