#	Name: ASD01900249
#	Creating user name:	WinNT
#	Creation time:	15. 06. 2019 19:51

#	Modifying user name:	WinNT
#	Modification time:	15. 06. 2019 19:51

#	Program:	/corina/corina34_cracker 3.40 0067  02.08.2006

@<TRIPOS>MOLECULE
ASD01900249
  36   38    0    0    0
SMALL
NO_CHARGES


@<TRIPOS>ATOM
   1 S1            -0.0218     1.7567     0.0117 S.3     
   2 C2             0.0021    -0.0041     0.0020 C.2     
   3 N3             1.2428    -0.4104    -0.0120 N.2     
   4 C4             2.1514     0.5294    -0.0156 C.2     
   5 C5             1.6885     1.7891    -0.0045 C.2     
   6 C6            -1.1841    -0.8761     0.0091 C.2     
   7 O7            -2.2982    -0.3876     0.0228 O.2     
   8 N8            -1.0357    -2.2157     0.0004 N.am    
   9 N9            -3.4698    -4.8261     0.0110 N.am    
  10 C10           -2.1694    -4.4021    -0.0001 C.2     
  11 C11           -2.1688    -3.0487     0.0072 C.2     
  12 C12           -3.5172    -2.6279     0.0233 C.2     
  13 C13           -4.2867    -3.7350     0.0253 C.2     
  14 S14           -3.9694    -6.4049     0.0015 S.o2    
  15 O15           -5.2882    -6.4053    -0.5275 O.2     
  16 O16           -2.9054    -7.1591    -0.5628 O.2     
  17 C17           -4.1070    -6.9186     1.6814 C.ar    
  18 C18           -5.3023    -6.7590     2.3572 C.ar    
  19 C19           -5.4103    -7.1619     3.6751 C.ar    
  20 C20           -4.3232    -7.7248     4.3171 C.ar    
  21 C21           -4.4408    -8.1636     5.7540 C.3     
  22 C22           -3.1283    -7.8857     3.6408 C.ar    
  23 C23           -3.0214    -7.4863     2.3217 C.ar    
  24 H24            3.2081     0.3062    -0.0266 H       
  25 H25            2.2982     2.6806    -0.0060 H       
  26 H26           -0.1475    -2.6052    -0.0105 H       
  27 H27           -1.2955    -5.0366    -0.0121 H       
  28 H28           -3.8676    -1.6064     0.0321 H       
  29 H29           -5.3665    -3.7541     0.0363 H       
  30 H30           -6.1517    -6.3192     1.8556 H       
  31 H31           -6.3440    -7.0366     4.2033 H       
  32 H32           -4.7694    -9.2022     5.7910 H       
  33 H33           -3.4707    -8.0719     6.2424 H       
  34 H34           -5.1673    -7.5341     6.2678 H       
  35 H35           -2.2790    -8.3258     4.1423 H       
  36 H36           -2.0889    -7.6150     1.7924 H       
@<TRIPOS>BOND
   1    1    2 1
   2    1    5 1
   3    2    3 2
   4    2    6 1
   5    3    4 1
   6    4    5 2
   7    4   24 1
   8    5   25 1
   9    6    7 2
  10    6    8 am
  11    8   11 1
  12    8   26 1
  13    9   10 1
  14    9   13 1
  15    9   14 am
  16   10   11 2
  17   10   27 1
  18   11   12 1
  19   12   13 2
  20   12   28 1
  21   13   29 1
  22   14   15 2
  23   14   16 2
  24   14   17 1
  25   17   18 ar
  26   17   23 ar
  27   18   19 ar
  28   18   30 1
  29   19   20 ar
  30   19   31 1
  31   20   21 1
  32   20   22 ar
  33   21   32 1
  34   21   33 1
  35   21   34 1
  36   22   23 ar
  37   22   35 1
  38   23   36 1

#	End of record

