#	Name: ASD01200360
#	Creating user name:	WinNT
#	Creation time:	15. 06. 2019 19:09

#	Modifying user name:	WinNT
#	Modification time:	15. 06. 2019 19:09

#	Program:	/corina/corina34_cracker 3.40 0067  02.08.2006

@<TRIPOS>MOLECULE
ASD01200360
  28   29    0    0    0
SMALL
NO_CHARGES


@<TRIPOS>ATOM
   1 N1            -0.1528     1.2501    -0.5538 N.ar    
   2 C2            -0.0811    -0.0464    -0.3281 C.ar    
   3 C3             1.1453    -0.6989    -0.3294 C.ar    
   4 C4             2.3019     0.0373    -0.5736 C.ar    
   5 C5             2.1793     1.3976    -0.8062 C.ar    
   6 C6             0.9236     1.9752    -0.7882 C.ar    
   7 N7             1.2174    -2.0746    -0.0886 N.am    
   8 C8             2.4878    -2.7831    -0.2624 C.3     
   9 C9             0.1181    -2.7487     0.3034 C.2     
  10 O10           -0.9096    -2.1454     0.5510 O.2     
  11 O11            1.2627    -4.9810     0.3415 O.3     
  12 C12            0.1601    -4.2087     0.4316 C.2     
  13 C13           -0.9098    -5.0251     0.6634 C.2     
  14 C14           -0.4132    -6.3370     0.7119 C.2     
  15 C15            0.9210    -6.2650     0.5100 C.2     
  16 C16           -2.3454    -4.5998     0.8342 C.3     
  17 H17           -0.9848    -0.6070    -0.1399 H       
  18 H18            3.2705    -0.4402    -0.5810 H       
  19 H19            3.0549     1.9998    -0.9988 H       
  20 H20            0.8225     3.0351    -0.9693 H       
  21 H21            2.9911    -2.8683     0.7007 H       
  22 H22            2.2967    -3.7791    -0.6619 H       
  23 H23            3.1209    -2.2291    -0.9555 H       
  24 H24           -0.9891    -7.2351     0.8796 H       
  25 H25            1.5999    -7.1046     0.4878 H       
  26 H26           -2.8397    -4.5907    -0.1372 H       
  27 H27           -2.8558    -5.3005     1.4950 H       
  28 H28           -2.3791    -3.6006     1.2684 H       
@<TRIPOS>BOND
   1    1    2 ar
   2    1    6 ar
   3    2    3 ar
   4    2   17 1
   5    3    4 ar
   6    3    7 1
   7    4    5 ar
   8    4   18 1
   9    5    6 ar
  10    5   19 1
  11    6   20 1
  12    7    8 1
  13    7    9 am
  14    8   21 1
  15    8   22 1
  16    8   23 1
  17    9   10 2
  18    9   12 1
  19   11   12 1
  20   11   15 1
  21   12   13 2
  22   13   14 1
  23   13   16 1
  24   14   15 2
  25   14   24 1
  26   15   25 1
  27   16   26 1
  28   16   27 1
  29   16   28 1

#	End of record

