#	Name: ASD01870140
#	Creating user name:	WinNT
#	Creation time:	15. 06. 2019 19:38

#	Modifying user name:	WinNT
#	Modification time:	15. 06. 2019 19:38

#	Program:	/corina/corina34_cracker 3.40 0067  02.08.2006

@<TRIPOS>MOLECULE
ASD01870140
  46   49    0    0    0
SMALL
NO_CHARGES


@<TRIPOS>ATOM
   1 C1            -0.1634     1.4691     0.5843 C.ar    
   2 C2            -0.1467    -0.0089     0.5831 C.2     
   3 N3            -1.1558    -0.6938     0.0094 N.am    
   4 O4             0.7772    -0.6068     1.0996 O.2     
   5 C5            -1.0870    -2.0879    -0.0914 C.ar    
   6 C6            -2.2420    -2.8504     0.0248 C.ar    
   7 C7             0.1356    -2.7085    -0.3133 C.ar    
   8 C8             0.2036    -4.0848    -0.4133 C.ar    
   9 C9            -0.9507    -4.8479    -0.2914 C.ar    
  10 C10           -2.1741    -4.2267    -0.0742 C.ar    
  11 Cl11          -3.6168    -5.1802     0.0782 Cl      
  12 N12           -0.8818    -6.2464    -0.3934 N.am    
  13 C13           -0.6807    -7.0410     0.6651 C.2     
  14 C14           -1.0174    -6.8955    -1.5564 C.2     
  15 C15           -0.8912    -8.3837    -1.3136 C.3     
  16 C16           -0.6606    -8.4833     0.2081 C.3     
  17 O17           -1.2110    -6.3736    -2.6335 O.2     
  18 O18           -0.5370    -6.6646     1.8085 O.2     
  19 C19           -1.9241    -9.0698    -0.4173 C.3     
  20 C20           -3.2416    -8.3327    -0.1684 C.3     
  21 C21           -2.0277   -10.5940    -0.5005 C.3     
  22 C22            0.8802     2.1814     1.1777 C.ar    
  23 Cl23           1.7315    -4.8604    -0.6918 Cl      
  24 C24           -1.2199     2.1587    -0.0129 C.ar    
  25 C25           -1.2293     3.5382    -0.0082 C.ar    
  26 C26           -0.1944     4.2382     0.5863 C.ar    
  27 C27            0.8585     3.5608     1.1754 C.ar    
  28 C28           -0.2109     5.7451     0.5867 C.3     
  29 H29           -1.9298    -0.2203    -0.3337 H       
  30 H30           -3.1932    -2.3674     0.1930 H       
  31 H31            1.0330    -2.1152    -0.4081 H       
  32 H32           -0.3154    -8.9684    -2.0310 H       
  33 H33            0.0915    -9.1429     0.6411 H       
  34 H34           -3.1699    -7.3181    -0.5602 H       
  35 H35           -4.0531    -8.8596    -0.6705 H       
  36 H36           -3.4403    -8.2955     0.9026 H       
  37 H37           -1.9795   -11.0168     0.5030 H       
  38 H38           -2.9744   -10.8690    -0.9656 H       
  39 H39           -1.2030   -10.9821    -1.0983 H       
  40 H40            1.7026     1.6539     1.6378 H       
  41 H41           -2.0279     1.6136    -0.4779 H       
  42 H42           -2.0461     4.0731    -0.4699 H       
  43 H43            1.6630     4.1131     1.6381 H       
  44 H44           -0.7238     6.1026     1.4796 H       
  45 H45            0.8127     6.1197     0.5812 H       
  46 H46           -0.7336     6.1030    -0.3003 H       
@<TRIPOS>BOND
   1    1    2 1
   2    1   22 ar
   3    1   24 ar
   4    2    3 am
   5    2    4 2
   6    3    5 1
   7    3   29 1
   8    5    6 ar
   9    5    7 ar
  10    6   10 ar
  11    6   30 1
  12    7    8 ar
  13    7   31 1
  14    8    9 ar
  15    8   23 1
  16    9   10 ar
  17    9   12 1
  18   10   11 1
  19   12   13 am
  20   12   14 am
  21   13   18 2
  22   13   16 1
  23   14   17 2
  24   14   15 1
  25   15   16 1
  26   15   19 1
  27   15   32 1
  28   16   19 1
  29   16   33 1
  30   19   20 1
  31   19   21 1
  32   20   34 1
  33   20   35 1
  34   20   36 1
  35   21   37 1
  36   21   38 1
  37   21   39 1
  38   22   27 ar
  39   22   40 1
  40   24   25 ar
  41   24   41 1
  42   25   26 ar
  43   25   42 1
  44   26   27 ar
  45   26   28 1
  46   27   43 1
  47   28   44 1
  48   28   45 1
  49   28   46 1

#	End of record

