#	Name: ASD02030226
#	Creating user name:	WinNT
#	Creation time:	15. 06. 2019 20:14

#	Modifying user name:	WinNT
#	Modification time:	15. 06. 2019 20:14

#	Program:	/corina/corina34_cracker 3.40 0067  02.08.2006

@<TRIPOS>MOLECULE
ASD02030226
  56   60    0    0    0
SMALL
NO_CHARGES


@<TRIPOS>ATOM
   1 N1            -1.0030     2.1167    -1.3686 N.am    
   2 C2            -0.9439     0.6888    -1.7111 C.3     
   3 C3            -1.1015    -0.1308    -0.4244 C.3     
   4 N4            -2.2686     0.3729     0.3132 N.am    
   5 C5            -2.3277     1.8009     0.6557 C.3     
   6 C6            -2.1674     2.6194    -0.6261 C.3     
   7 C7            -0.0045     2.9493    -1.7241 C.2     
   8 C8             1.2119     2.4115    -2.3694 C.2     
   9 N9             2.3025     3.0909    -2.6522 N.2     
  10 N10            1.4011     1.1395    -2.7658 N.2     
  11 C11            2.5995     1.0686    -3.2868 C.2     
  12 N12            3.1513     2.2970    -3.2086 N.pl3   
  13 C13            4.4314     2.6500    -3.6568 C.ar    
  14 O14           -0.1043     4.1425    -1.5141 O.2     
  15 C15           -3.2670    -0.4597     0.6687 C.2     
  16 C16           -3.1952    -1.8909     0.3159 C.ar    
  17 O17           -4.2269    -0.0316     1.2801 O.2     
  18 C18            4.8816     3.9555    -3.5166 C.ar    
  19 C19            6.1449     4.3006    -3.9598 C.ar    
  20 C20            6.9593     3.3458    -4.5429 C.ar    
  21 C21            6.5123     2.0448    -4.6838 C.ar    
  22 C22            5.2539     1.6931    -4.2369 C.ar    
  23 C23           -3.6766     2.1179     1.3044 C.3     
  24 Cl24           6.7096     5.9329    -3.7853 Cl      
  25 C25           -4.3645    -2.5967     0.0428 C.ar    
  26 C26           -4.2930    -3.9415    -0.2883 C.ar    
  27 C27           -3.0365    -4.5764    -0.3440 C.ar    
  28 C28           -1.8709    -3.8539    -0.0666 C.ar    
  29 C29           -1.9496    -2.5319     0.2518 C.ar    
  30 N30           -5.2416    -4.8901    -0.6046 N.pl3   
  31 C31           -4.6346    -6.0876    -0.8550 C.2     
  32 C32           -3.3030    -5.9658    -0.7147 C.2     
  33 C33           -6.6855    -4.6499    -0.6629 C.3     
  34 H34           -1.7511     0.4445    -2.4017 H       
  35 H35            0.0171     0.4629    -2.1733 H       
  36 H36           -1.2527    -1.1806    -0.6756 H       
  37 H37           -0.2070    -0.0241     0.1892 H       
  38 H38           -1.5205     2.0451     1.3462 H       
  39 H39           -2.0163     3.6689    -0.3735 H       
  40 H40           -3.0606     2.5136    -1.2418 H       
  41 H41            3.0638     0.1859    -3.7011 H       
  42 H42            4.2458     4.7009    -3.0622 H       
  43 H43            7.9457     3.6173    -4.8889 H       
  44 H44            7.1499     1.3019    -5.1400 H       
  45 H45            4.9059     0.6766    -4.3471 H       
  46 H46           -3.7565     1.5885     2.2539 H       
  47 H47           -3.7524     3.1911     1.4793 H       
  48 H48           -4.4819     1.7999     0.6423 H       
  49 H49           -5.3220    -2.0993     0.0890 H       
  50 H50           -0.9089    -4.3429    -0.1100 H       
  51 H51           -1.0483    -1.9765     0.4652 H       
  52 H52           -5.1485    -6.9982    -1.1253 H       
  53 H53           -2.5689    -6.7463    -0.8503 H       
  54 H54           -6.9620    -4.3407    -1.6709 H       
  55 H55           -7.2170    -5.5660    -0.4052 H       
  56 H56           -6.9520    -3.8641     0.0441 H       
@<TRIPOS>BOND
   1    1    2 1
   2    1    7 am
   3    1    6 1
   4    2    3 1
   5    2   34 1
   6    2   35 1
   7    3    4 1
   8    3   36 1
   9    3   37 1
  10    4    5 1
  11    4   15 am
  12    5    6 1
  13    5   23 1
  14    5   38 1
  15    6   39 1
  16    6   40 1
  17    7    8 1
  18    7   14 2
  19    8    9 2
  20    8   10 1
  21    9   12 1
  22   10   11 2
  23   11   12 1
  24   11   41 1
  25   12   13 1
  26   13   18 ar
  27   13   22 ar
  28   15   16 1
  29   15   17 2
  30   16   25 ar
  31   16   29 ar
  32   18   19 ar
  33   18   42 1
  34   19   20 ar
  35   19   24 1
  36   20   21 ar
  37   20   43 1
  38   21   22 ar
  39   21   44 1
  40   22   45 1
  41   23   46 1
  42   23   47 1
  43   23   48 1
  44   25   26 ar
  45   25   49 1
  46   26   27 ar
  47   26   30 1
  48   27   28 ar
  49   27   32 1
  50   28   29 ar
  51   28   50 1
  52   29   51 1
  53   30   31 1
  54   30   33 1
  55   31   32 2
  56   31   52 1
  57   32   53 1
  58   33   54 1
  59   33   55 1
  60   33   56 1

#	End of record

