#	Name: ASD01028115
#	Creating user name:	WinNT
#	Creation time:	15. 06. 2019 18:56

#	Modifying user name:	WinNT
#	Modification time:	15. 06. 2019 18:56

#	Program:	/corina/corina34_cracker 3.40 0067  02.08.2006

@<TRIPOS>MOLECULE
ASD01028115
  19   20    0    0    0
SMALL
NO_CHARGES


@<TRIPOS>ATOM
   1 N1            -0.0180     1.4760     0.0102 N.pl3   
   2 C2             0.0021    -0.0041     0.0020 C.ar    
   3 C3             0.0232    -0.7118     1.2104 C.ar    
   4 C4             0.0249     0.0121     2.4882 C.2     
   5 C5            -0.0057    -0.6887    -1.1962 C.ar    
   6 C6             0.0131    -2.0850    -1.2030 C.ar    
   7 C7             0.0399    -2.7875    -0.0041 C.ar    
   8 C8             0.0421    -2.1113     1.1963 C.ar    
   9 O9            -0.0299    -0.2477    -2.4882 O.3     
  10 C10            0.3868    -1.3722    -3.2851 C.3     
  11 O11           -0.0002    -2.5132    -2.4972 O.3     
  12 Br12           0.0656    -4.6782    -0.0204 Br      
  13 O13            1.0284     2.0993     0.0035 O.2     
  14 O14           -1.0810     2.0706     0.0184 O.2     
  15 O15            0.0431    -0.6028     3.5336 O.2     
  16 H16            0.0098     1.0920     2.4971 H       
  17 H17            0.0634    -2.6608     2.1258 H       
  18 H18           -0.1319    -1.3752    -4.2438 H       
  19 H19            1.4666    -1.3574    -3.4330 H       
@<TRIPOS>BOND
   1    1    2 1
   2    1   13 2
   3    1   14 2
   4    2    3 ar
   5    2    5 ar
   6    3    4 1
   7    3    8 ar
   8    4   15 2
   9    4   16 1
  10    5    6 ar
  11    5    9 1
  12    6    7 ar
  13    6   11 1
  14    7    8 ar
  15    7   12 1
  16    8   17 1
  17    9   10 1
  18   10   11 1
  19   10   18 1
  20   10   19 1

#	End of record

