#	Name: ASD00310003
#	Creating user name:	WinNT
#	Creation time:	15. 06. 2019 18:33

#	Modifying user name:	WinNT
#	Modification time:	15. 06. 2019 18:33

#	Program:	/corina/corina34_cracker 3.40 0067  02.08.2006

@<TRIPOS>MOLECULE
ASD00310003
  63   66    0    0    0
SMALL
NO_CHARGES


@<TRIPOS>ATOM
   1 C1            -9.8691     0.6871    -0.3868 C.ar    
   2 C2            -8.9000     1.6692    -0.3049 C.ar    
   3 C3            -7.5625     1.3290    -0.3869 C.ar    
   4 C4            -7.1944     0.0069    -0.5504 C.ar    
   5 C5            -8.1638    -0.9756    -0.6315 C.ar    
   6 C6            -9.5008    -0.6361    -0.5451 C.ar    
   7 S7            -5.4898    -0.4265    -0.6561 S.o2    
   8 O8            -5.4393    -1.7121    -1.2594 O.2     
   9 O9            -4.8195     0.7083    -1.1875 O.2     
  10 N10           -4.9349    -0.6146     0.8927 N.am    
  11 C11           -4.9773     0.4554     1.7820 C.ar    
  12 C12           -5.4818     0.2707     3.0665 C.ar    
  13 C13           -5.5255     1.3217     3.9458 C.ar    
  14 C14           -5.0612     2.5829     3.5502 C.ar    
  15 C15           -4.5540     2.7638     2.2569 C.ar    
  16 C16           -4.5097     1.7057     1.3861 C.ar    
  17 C17           -5.1063     3.7113     4.4877 C.2     
  18 C18           -4.2272     4.7377     4.3575 C.2     
  19 S19           -2.8354     4.8508     3.2619 S.3     
  20 C20           -4.2126     6.0110     5.0852 C.2     
  21 N21           -3.2316     6.8332     4.7522 N.am    
  22 C22           -2.3547     6.4659     3.8108 C.2     
  23 O23           -1.4096     7.1168     3.4074 O.2     
  24 O24           -5.0413     6.2902     5.9318 O.2     
  25 C25           -3.1077     8.1376     5.4075 C.3     
  26 C26           -2.2260     8.0022     6.6505 C.3     
  27 C27           -2.0965     9.3645     7.3348 C.3     
  28 C28           -1.2148     9.2291     8.5778 C.3     
  29 C29           -1.8495     8.2298     9.5470 C.3     
  30 C30           -1.9789     6.8675     8.8627 C.3     
  31 C31           -2.8607     7.0029     7.6197 C.3     
  32 C32           -0.8389     7.5039     6.2400 C.3     
  33 N33          -11.3011     1.0513    -0.2991 N.pl3   
  34 O34          -11.6255     2.2164    -0.1546 O.2     
  35 O35          -12.1551     0.1858    -0.3713 O.2     
  36 C36          -10.5574    -1.7069    -0.6335 C.3     
  37 F37           -9.9450    -2.9536    -0.8008 F       
  38 F38          -11.3144    -1.7133     0.5429 F       
  39 F39          -11.3936    -1.4480    -1.7248 F       
  40 H40           -9.1876     2.7023    -0.1771 H       
  41 H41           -6.8052     2.0965    -0.3235 H       
  42 H42           -7.8762    -2.0087    -0.7597 H       
  43 H43           -4.5803    -1.4704     1.1803 H       
  44 H44           -5.8395    -0.7019     3.3705 H       
  45 H45           -5.9177     1.1777     4.9417 H       
  46 H46           -4.1949     3.7342     1.9476 H       
  47 H47           -4.1189     1.8442     0.3888 H       
  48 H48           -5.8389     3.7251     5.2812 H       
  49 H49           -2.6555     8.8496     4.7170 H       
  50 H50           -4.0959     8.4926     5.7000 H       
  51 H51           -1.6443    10.0765     6.6444 H       
  52 H52           -3.0847     9.7195     7.6273 H       
  53 H53           -0.2266     8.8741     8.2854 H       
  54 H54           -1.1226    10.1996     9.0654 H       
  55 H55           -1.2213     8.1333    10.4326 H       
  56 H56           -2.8377     8.5848     9.8395 H       
  57 H57           -0.9907     6.5124     8.5702 H       
  58 H58           -2.4311     6.1555     9.5531 H       
  59 H59           -3.8489     7.3579     7.9121 H       
  60 H60           -2.9529     6.0324     7.1321 H       
  61 H61           -0.3867     8.2158     5.5495 H       
  62 H62           -0.2107     7.4074     7.1255 H       
  63 H63           -0.9311     6.5334     5.7524 H       
@<TRIPOS>BOND
   1    1    2 ar
   2    1   33 1
   3    1    6 ar
   4    2    3 ar
   5    2   40 1
   6    3    4 ar
   7    3   41 1
   8    4    5 ar
   9    4    7 1
  10    5    6 ar
  11    5   42 1
  12    6   36 1
  13    7    8 2
  14    7    9 2
  15    7   10 am
  16   10   11 1
  17   10   43 1
  18   11   12 ar
  19   11   16 ar
  20   12   13 ar
  21   12   44 1
  22   13   14 ar
  23   13   45 1
  24   14   15 ar
  25   14   17 1
  26   15   16 ar
  27   15   46 1
  28   16   47 1
  29   17   18 2
  30   17   48 1
  31   18   19 1
  32   18   20 1
  33   19   22 1
  34   20   21 am
  35   20   24 2
  36   21   22 am
  37   21   25 1
  38   22   23 2
  39   25   26 1
  40   25   49 1
  41   25   50 1
  42   26   27 1
  43   26   32 1
  44   26   31 1
  45   27   28 1
  46   27   51 1
  47   27   52 1
  48   28   29 1
  49   28   53 1
  50   28   54 1
  51   29   30 1
  52   29   55 1
  53   29   56 1
  54   30   31 1
  55   30   57 1
  56   30   58 1
  57   31   59 1
  58   31   60 1
  59   32   61 1
  60   32   62 1
  61   32   63 1
  62   33   34 2
  63   33   35 2
  64   36   37 1
  65   36   38 1
  66   36   39 1

#	End of record

