#	Name: ASD00069012
#	Creating user name:	WinNT
#	Creation time:	15. 06. 2019 18:29

#	Modifying user name:	WinNT
#	Modification time:	15. 06. 2019 18:29

#	Program:	/corina/corina34_cracker 3.40 0067  02.08.2006

@<TRIPOS>MOLECULE
ASD00069012
  41   45    0    0    0
SMALL
NO_CHARGES


@<TRIPOS>ATOM
   1 C1            -0.0099     1.3863     0.0200 C.ar    
   2 C2             0.0044    -0.0080     0.0085 C.ar    
   3 C3             1.2047    -0.6925    -0.0041 C.ar    
   4 C4             2.4038     0.0226    -0.0053 C.ar    
   5 C5             2.3794     1.4288     0.0063 C.ar    
   6 C6             1.1567     2.0957     0.0190 C.ar    
   7 C7             3.8195    -0.3656    -0.0172 C.2     
   8 N8             4.5320     0.7377    -0.0126 N.2     
   9 N9             3.6863     1.8512     0.0017 N.pl3   
  10 C10            4.3462    -1.7444    -0.0313 C.2     
  11 N11            3.6132    -2.8324    -0.0357 N.2     
  12 C12            4.4174    -3.9232    -0.0496 C.ar    
  13 C13            5.7454    -3.4607    -0.0541 C.ar    
  14 N14            5.6738    -2.0808    -0.0478 N.pl3   
  15 C15            4.1690    -5.2997    -0.0593 C.ar    
  16 C16            5.2136    -6.1798    -0.0730 C.ar    
  17 C17            6.5240    -5.7233    -0.0770 C.ar    
  18 C18            6.7932    -4.3707    -0.0680 C.ar    
  19 N19           -1.2035    -0.7181     0.0102 N.am    
  20 C20           -1.3028    -1.8805    -0.6646 C.2     
  21 N21           -2.4277    -2.6176    -0.5753 N.am    
  22 O22           -0.3776    -2.2643    -1.3539 O.2     
  23 C23           -2.5356    -3.8812    -1.3087 C.3     
  24 C24           -3.5015    -4.9346    -0.7627 C.3     
  25 C25           -3.8505    -4.1646    -2.0379 C.3     
  26 H26           -0.9540     1.9108     0.0252 H       
  27 H27            1.2151    -1.7724    -0.0127 H       
  28 H28            1.1313     3.1754     0.0276 H       
  29 H29            3.9770     2.7766     0.0072 H       
  30 H30            6.4237    -1.4655    -0.0491 H       
  31 H31            3.1530    -5.6660    -0.0557 H       
  32 H32            5.0175    -7.2418    -0.0805 H       
  33 H33            7.3387    -6.4321    -0.0875 H       
  34 H34            7.8150    -4.0211    -0.0711 H       
  35 H35           -1.9682    -0.3730     0.4970 H       
  36 H36           -3.1657    -2.3114    -0.0253 H       
  37 H37           -1.6154    -4.2349    -1.7737 H       
  38 H38           -3.2170    -5.9815    -0.8689 H       
  39 H39           -4.0566    -4.6876     0.1422 H       
  40 H40           -4.6352    -3.4110    -1.9719 H       
  41 H41           -3.7955    -4.7048    -2.9830 H       
@<TRIPOS>BOND
   1    1    2 ar
   2    1    6 ar
   3    1   26 1
   4    2    3 ar
   5    2   19 1
   6    3    4 ar
   7    3   27 1
   8    4    5 ar
   9    4    7 1
  10    5    6 ar
  11    5    9 1
  12    6   28 1
  13    7    8 2
  14    7   10 1
  15    8    9 1
  16    9   29 1
  17   10   11 2
  18   10   14 1
  19   11   12 1
  20   12   13 ar
  21   12   15 ar
  22   13   14 1
  23   13   18 ar
  24   14   30 1
  25   15   16 ar
  26   15   31 1
  27   16   17 ar
  28   16   32 1
  29   17   18 ar
  30   17   33 1
  31   18   34 1
  32   19   20 am
  33   19   35 1
  34   20   21 am
  35   20   22 2
  36   21   23 1
  37   21   36 1
  38   23   24 1
  39   23   25 1
  40   23   37 1
  41   24   25 1
  42   24   38 1
  43   24   39 1
  44   25   40 1
  45   25   41 1

#	End of record

