#	Name: ASD01813550
#	Creating user name:	WinNT
#	Creation time:	15. 06. 2019 19:30

#	Modifying user name:	WinNT
#	Modification time:	15. 06. 2019 19:30

#	Program:	/corina/corina34_cracker 3.40 0067  02.08.2006

@<TRIPOS>MOLECULE
ASD01813550
  39   41    0    0    0
SMALL
NO_CHARGES


@<TRIPOS>ATOM
   1 C1            -0.0168     1.3825    -0.0479 C.ar    
   2 C2             0.0020    -0.0038    -0.0549 C.ar    
   3 C3             1.1975    -0.6931    -0.0505 C.ar    
   4 C4             2.4040     0.0044    -0.0394 C.ar    
   5 C5             2.3834     1.4096    -0.0328 C.ar    
   6 C6             1.1657     2.0946    -0.0369 C.ar    
   7 N7             3.6050    -0.6734    -0.0339 N.pl3   
   8 C8             4.7898    -0.0496    -0.0223 C.2     
   9 C9             4.8962     1.3266    -0.0145 C.2     
  10 C10            3.6660     2.1351    -0.0211 C.2     
  11 O11            3.7066     3.3531    -0.0151 O.2     
  12 C12            6.2155     1.9737    -0.0008 C.2     
  13 O13            6.3065     3.3187     0.0067 O.3     
  14 O14            7.2249     1.2962     0.0037 O.2     
  15 C15            3.5837    -2.1382    -0.0406 C.3     
  16 C16            3.4403    -2.6321    -1.4571 C.ar    
  17 N17            2.2399    -2.7352    -1.9929 N.ar    
  18 C18            2.0663    -3.1624    -3.2285 C.ar    
  19 C19            3.1474    -3.5204    -4.0111 C.ar    
  20 C20            4.4257    -3.4253    -3.4818 C.ar    
  21 C21            4.5690    -2.9664    -2.1816 C.ar    
  22 C22            2.9400    -4.0086    -5.4216 C.3     
  23 F23            1.1984    -2.0441    -0.0566 F       
  24 F24            1.1457     3.4455    -0.0310 F       
  25 C25            2.9686    -2.8183    -6.3826 C.3     
  26 H26           -0.9606     1.9075    -0.0556 H       
  27 H27           -0.9294    -0.5504    -0.0636 H       
  28 H28            5.6921    -0.6430    -0.0186 H       
  29 H29            7.1957     3.6986     0.0157 H       
  30 H30            4.5134    -2.5171     0.3839 H       
  31 H31            2.7418    -2.4920     0.5545 H       
  32 H32            1.0676    -3.2336    -3.6333 H       
  33 H33            5.2893    -3.6986    -4.0700 H       
  34 H34            5.5496    -2.8792    -1.7374 H       
  35 H35            3.7342    -4.7072    -5.6848 H       
  36 H36            1.9754    -4.5109    -5.4941 H       
  37 H37            3.9333    -2.3160    -6.3101 H       
  38 H38            2.8186    -3.1714    -7.4029 H       
  39 H39            2.1745    -2.1197    -6.1194 H       
@<TRIPOS>BOND
   1    1    2 ar
   2    1    6 ar
   3    1   26 1
   4    2    3 ar
   5    2   27 1
   6    3    4 ar
   7    3   23 1
   8    4    5 ar
   9    4    7 1
  10    5    6 ar
  11    5   10 1
  12    6   24 1
  13    7    8 1
  14    7   15 1
  15    8    9 2
  16    8   28 1
  17    9   10 1
  18    9   12 1
  19   10   11 2
  20   12   13 1
  21   12   14 2
  22   13   29 1
  23   15   16 1
  24   15   30 1
  25   15   31 1
  26   16   17 ar
  27   16   21 ar
  28   17   18 ar
  29   18   19 ar
  30   18   32 1
  31   19   20 ar
  32   19   22 1
  33   20   21 ar
  34   20   33 1
  35   21   34 1
  36   22   25 1
  37   22   35 1
  38   22   36 1
  39   25   37 1
  40   25   38 1
  41   25   39 1

#	End of record

