#	Name: ASD01900073
#	Creating user name:	WinNT
#	Creation time:	15. 06. 2019 19:51

#	Modifying user name:	WinNT
#	Modification time:	15. 06. 2019 19:51

#	Program:	/corina/corina34_cracker 3.40 0067  02.08.2006

@<TRIPOS>MOLECULE
ASD01900073
  38   40    0    0    0
SMALL
NO_CHARGES


@<TRIPOS>ATOM
   1 C1            -0.0162     1.3436     0.0094 C.2     
   2 N2             0.0021    -0.0041     0.0020 N.am    
   3 O3             1.0289     1.9661     0.0028 O.2     
   4 C4             1.2298    -0.6908    -0.0134 C.2     
   5 C5             1.3919    -2.0389    -0.0222 C.2     
   6 N6             2.7265    -2.2909    -0.0371 N.am    
   7 N7             3.3968    -1.0610    -0.0374 N.2     
   8 C8             2.5041    -0.1047    -0.0286 C.2     
   9 S9             3.4356    -3.7873    -0.0518 S.o2    
  10 O10            4.7423    -3.6174     0.4802 O.2     
  11 O11            2.4837    -4.6878     0.4980 O.2     
  12 C12            3.6417    -4.2503    -1.7393 C.ar    
  13 C13            4.8041    -3.9193    -2.4097 C.ar    
  14 C14            4.9658    -4.2826    -3.7339 C.ar    
  15 C15            3.9652    -4.9772    -4.3871 C.ar    
  16 C16            2.8027    -5.3091    -3.7162 C.ar    
  17 C17            2.6429    -4.9497    -2.3912 C.ar    
  18 C18            4.1410    -5.3722    -5.8307 C.3     
  19 C19           -1.3011     2.0623     0.0194 C.2     
  20 C20            6.2328    -3.9208    -4.4651 C.3     
  21 N21           -1.4448     3.3600     0.0272 N.2     
  22 C22           -2.6765     3.7980     0.0354 C.2     
  23 C23           -3.6315     2.8550     0.0348 C.2     
  24 S24           -2.8940     1.3116     0.0153 S.3     
  25 H25           -0.8313    -0.5005     0.0073 H       
  26 H26            0.6032    -2.7766    -0.0177 H       
  27 H27            2.7127     0.9549    -0.0270 H       
  28 H28            5.5860    -3.3766    -1.8993 H       
  29 H29            2.0207    -5.8515    -4.2267 H       
  30 H30            1.7349    -5.2090    -1.8671 H       
  31 H31            4.6076    -6.3559    -5.8839 H       
  32 H32            3.1673    -5.4050    -6.3196 H       
  33 H33            4.7752    -4.6416    -6.3327 H       
  34 H34            6.9624    -4.7218    -4.3460 H       
  35 H35            6.0144    -3.7828    -5.5241 H       
  36 H36            6.6381    -2.9961    -4.0543 H       
  37 H37           -2.9107     4.8523     0.0426 H       
  38 H38           -4.6954     3.0409     0.0412 H       
@<TRIPOS>BOND
   1    1    2 am
   2    1    3 2
   3    1   19 1
   4    2    4 1
   5    2   25 1
   6    4    5 2
   7    4    8 1
   8    5    6 1
   9    5   26 1
  10    6    7 1
  11    6    9 am
  12    7    8 2
  13    8   27 1
  14    9   10 2
  15    9   11 2
  16    9   12 1
  17   12   13 ar
  18   12   17 ar
  19   13   14 ar
  20   13   28 1
  21   14   15 ar
  22   14   20 1
  23   15   16 ar
  24   15   18 1
  25   16   17 ar
  26   16   29 1
  27   17   30 1
  28   18   31 1
  29   18   32 1
  30   18   33 1
  31   19   21 2
  32   19   24 1
  33   20   34 1
  34   20   35 1
  35   20   36 1
  36   21   22 1
  37   22   23 2
  38   22   37 1
  39   23   24 1
  40   23   38 1

#	End of record

