#	Name: ASD02560034
#	Creating user name:	WinNT
#	Creation time:	15. 06. 2019 20:24

#	Modifying user name:	WinNT
#	Modification time:	15. 06. 2019 20:24

#	Program:	/corina/corina34_cracker 3.40 0067  02.08.2006

@<TRIPOS>MOLECULE
ASD02560034
  43   46    0    0    0
SMALL
NO_CHARGES


@<TRIPOS>ATOM
   1 C1            -0.0167     1.3797     0.0096 C.ar    
   2 C2             0.0021    -0.0041     0.0020 C.ar    
   3 C3             1.2009    -0.6845    -0.0285 C.ar    
   4 C4             2.4121     0.0078    -0.0521 C.ar    
   5 C5             2.3910     1.4036    -0.0140 C.ar    
   6 C6             1.1690     2.0827     0.0021 C.ar    
   7 N7             3.5759    -0.7346    -0.1556 N.am    
   8 C8             4.7320    -0.5476     0.4735 C.2     
   9 C9             4.9423     0.5757     1.4568 C.3     
  10 N10            4.7697     1.8420     0.7338 N.pl3   
  11 C11            3.6358     2.1970     0.0506 C.2     
  12 C12            5.6865     2.8412     0.6108 C.2     
  13 C13            5.1564     3.8115    -0.1665 C.2     
  14 C14            3.8585     3.4078    -0.5299 C.2     
  15 O15            5.6500    -1.3078     0.2487 O.2     
  16 C16            3.9120     0.4777     2.5837 C.3     
  17 C17            4.1475    -0.7855     3.3711 C.2     
  18 C18            3.2610    -1.1190     4.5433 C.3     
  19 O19            5.0465    -1.5305     3.0627 O.2     
  20 C20            3.7043    -2.4238     5.1531 C.ar    
  21 C21            4.6491    -2.4294     6.1622 C.ar    
  22 C22            5.0558    -3.6263     6.7216 C.ar    
  23 C23            4.5174    -4.8176     6.2723 C.ar    
  24 C24            3.5720    -4.8119     5.2638 C.ar    
  25 C25            3.1621    -3.6147     4.7074 C.ar    
  26 H26           -0.9587     1.9078     0.0170 H       
  27 H27           -0.9273    -0.5539     0.0204 H       
  28 H28            1.2025    -1.7645    -0.0338 H       
  29 H29            1.1539     3.1625     0.0082 H       
  30 H30            3.5436    -1.4883    -0.7653 H       
  31 H31            5.9493     0.5208     1.8703 H       
  32 H32            6.6694     2.8559     1.0580 H       
  33 H33            5.6419     4.7316    -0.4568 H       
  34 H34            3.1680     3.9566    -1.1531 H       
  35 H35            4.0111     1.3403     3.2426 H       
  36 H36            2.9087     0.4589     2.1581 H       
  37 H37            3.3313    -0.3270     5.2888 H       
  38 H38            2.2289    -1.2084     4.2044 H       
  39 H39            5.0697    -1.4987     6.5133 H       
  40 H40            5.7945    -3.6307     7.5095 H       
  41 H41            4.8357    -5.7527     6.7088 H       
  42 H42            3.1516    -5.7426     4.9125 H       
  43 H43            2.4234    -3.6102     3.9195 H       
@<TRIPOS>BOND
   1    1    2 ar
   2    1    6 ar
   3    1   26 1
   4    2    3 ar
   5    2   27 1
   6    3    4 ar
   7    3   28 1
   8    4    5 ar
   9    4    7 1
  10    5    6 ar
  11    5   11 1
  12    6   29 1
  13    7    8 am
  14    7   30 1
  15    8    9 1
  16    8   15 2
  17    9   10 1
  18    9   16 1
  19    9   31 1
  20   10   11 1
  21   10   12 1
  22   11   14 2
  23   12   13 2
  24   12   32 1
  25   13   14 1
  26   13   33 1
  27   14   34 1
  28   16   17 1
  29   16   35 1
  30   16   36 1
  31   17   18 1
  32   17   19 2
  33   18   20 1
  34   18   37 1
  35   18   38 1
  36   20   21 ar
  37   20   25 ar
  38   21   22 ar
  39   21   39 1
  40   22   23 ar
  41   22   40 1
  42   23   24 ar
  43   23   41 1
  44   24   25 ar
  45   24   42 1
  46   25   43 1

#	End of record

