#	Name: ASD01811226
#	Creating user name:	WinNT
#	Creation time:	15. 06. 2019 19:26

#	Modifying user name:	WinNT
#	Modification time:	15. 06. 2019 19:26

#	Program:	/corina/corina34_cracker 3.40 0067  02.08.2006

@<TRIPOS>MOLECULE
ASD01811226
  19   17    0    0    0
SMALL
NO_CHARGES


@<TRIPOS>ATOM
   1 C1            -0.0184     1.5028     0.0103 C.2     
   2 C2             0.0021    -0.0041     0.0020 C.3     
   3 C3             1.4513    -0.4944    -0.0145 C.3     
   4 N4             1.0927     2.1646     0.0033 N.2     
   5 N5            -1.2140     2.1716     0.0196 N.pl3   
   6 O6             1.4707    -1.9232    -0.0223 O.3     
   7 C7             2.7838    -2.4866    -0.0379 C.3     
   8 H8            -0.4983    -0.3791     0.8948 H       
   9 H9            -0.5153    -0.3696    -0.8850 H       
  10 H10            1.9516    -0.1193    -0.9073 H       
  11 H11            1.9686    -0.1289     0.8726 H       
  12 H12            1.0795     3.1345     0.0086 H       
  13 H13           -2.0474     1.6752     0.0209 H       
  14 H14           -1.2271     3.1415     0.0249 H       
  15 H15            3.3118    -2.1529    -0.9312 H       
  16 H16            3.3288    -2.1624     0.8487 H       
  17 H17            2.7125    -3.5743    -0.0430 H       
  18 Cl18           8.3288     8.1415     5.8948 Cl      
  19 H19            8.3288     9.5115     5.8948 H       
@<TRIPOS>BOND
   1    1    2 1
   2    1    4 2
   3    1    5 1
   4    2    3 1
   5    2    8 1
   6    2    9 1
   7    3    6 1
   8    3   10 1
   9    3   11 1
  10    4   12 1
  11    5   13 1
  12    5   14 1
  13    6    7 1
  14    7   15 1
  15    7   16 1
  16    7   17 1
  17   18   19 1

#	End of record

