#	Name: ASD01148900
#	Creating user name:	WinNT
#	Creation time:	15. 06. 2019 19:03

#	Modifying user name:	WinNT
#	Modification time:	15. 06. 2019 19:03

#	Program:	/corina/corina34_cracker 3.40 0067  02.08.2006

@<TRIPOS>MOLECULE
ASD01148900
  41   43    0    0    0
SMALL
NO_CHARGES


@<TRIPOS>ATOM
   1 C1            -0.2740     1.2807     0.3786 C.ar    
   2 C2            -0.1722    -0.0957     0.3206 C.ar    
   3 C3             1.0596    -0.6897     0.0817 C.ar    
   4 C4             2.1860     0.1024    -0.0982 C.ar    
   5 C5             2.0777     1.4778    -0.0391 C.ar    
   6 C6             0.8492     2.0666     0.1991 C.ar    
   7 S7            -1.8383     2.0357     0.6745 S.o2    
   8 O8            -1.7551     3.3519     0.1455 O.2     
   9 O9            -2.8217     1.0947     0.2663 O.2     
  10 N10           -2.0009     2.2002     2.3143 N.am    
  11 N11            1.1663    -2.0857     0.0227 N.pl3   
  12 C12            0.6420    -2.8848    -0.9522 C.2     
  13 C13            0.9516    -4.1680    -0.6662 C.2     
  14 C14            1.6940    -4.1735     0.5264 C.2     
  15 C15            1.8209    -2.8792     0.9328 C.2     
  16 C16            2.5334    -2.4122     2.1410 C.ar    
  17 C17            2.2444    -1.1595     2.6850 C.ar    
  18 C18            2.9125    -0.7300     3.8128 C.ar    
  19 C19            3.8676    -1.5377     4.4046 C.ar    
  20 C20            4.1590    -2.7800     3.8703 C.ar    
  21 C21            3.4936    -3.2243     2.7461 C.ar    
  22 C22            2.6018     0.6220     4.4014 C.3     
  23 F23            1.5744     0.4960     5.3426 F       
  24 F24            3.7452     1.1331     5.0248 F       
  25 F25            2.1975     1.4922     3.3833 F       
  26 C26           -0.1494    -2.4146    -2.1454 C.3     
  27 H27           -1.0499    -0.7092     0.4612 H       
  28 H28            3.1457    -0.3569    -0.2839 H       
  29 H29            2.9534     2.0943    -0.1786 H       
  30 H30            0.7670     3.1425     0.2449 H       
  31 H31           -2.5233     2.9317     2.6789 H       
  32 H32           -1.5737     1.5652     2.9102 H       
  33 H33            0.6773    -5.0344    -1.2496 H       
  34 H34            2.0943    -5.0431     1.0264 H       
  35 H35            1.4997    -0.5279     2.2237 H       
  36 H36            4.3881    -1.1966     5.2872 H       
  37 H37            4.9058    -3.4054     4.3368 H       
  38 H38            3.7187    -4.1963     2.3328 H       
  39 H39            0.5289    -2.2114    -2.9741 H       
  40 H40           -0.8593    -3.1881    -2.4382 H       
  41 H41           -0.6901    -1.5041    -1.8869 H       
@<TRIPOS>BOND
   1    1    2 ar
   2    1    6 ar
   3    1    7 1
   4    2    3 ar
   5    2   27 1
   6    3    4 ar
   7    3   11 1
   8    4    5 ar
   9    4   28 1
  10    5    6 ar
  11    5   29 1
  12    6   30 1
  13    7    8 2
  14    7    9 2
  15    7   10 am
  16   10   31 1
  17   10   32 1
  18   11   12 1
  19   11   15 1
  20   12   13 2
  21   12   26 1
  22   13   14 1
  23   13   33 1
  24   14   15 2
  25   14   34 1
  26   15   16 1
  27   16   17 ar
  28   16   21 ar
  29   17   18 ar
  30   17   35 1
  31   18   19 ar
  32   18   22 1
  33   19   20 ar
  34   19   36 1
  35   20   21 ar
  36   20   37 1
  37   21   38 1
  38   22   23 1
  39   22   24 1
  40   22   25 1
  41   26   39 1
  42   26   40 1
  43   26   41 1

#	End of record

