#	Name: ASD01720185
#	Creating user name:	WinNT
#	Creation time:	15. 06. 2019 19:23

#	Modifying user name:	WinNT
#	Modification time:	15. 06. 2019 19:23

#	Program:	/corina/corina34_cracker 3.40 0067  02.08.2006

@<TRIPOS>MOLECULE
ASD01720185
  55   58    0    0    0
SMALL
NO_CHARGES


@<TRIPOS>ATOM
   1 C1             1.9058     2.1271     1.3053 C.ar    
   2 N2             1.5297     0.8612     1.2052 N.ar    
   3 C3             2.4242    -0.1049     1.0565 C.ar    
   4 N4             3.7222     0.1524     1.0025 N.ar    
   5 C5             4.1695     1.3999     1.0965 C.ar    
   6 C6             3.2514     2.4387     1.2533 C.ar    
   7 N7             5.5327     1.6664     1.0398 N.am    
   8 C8             6.1650     2.9593     1.3435 C.3     
   9 C9             7.6668     2.6940     1.1234 C.3     
  10 O10            7.7227     1.2942     0.7230 O.3     
  11 C11            6.4857     0.7857     0.7052 C.2     
  12 N12            1.9914    -1.4156     0.9555 N.pl3   
  13 C13            0.5597    -1.7207     1.0135 C.3     
  14 C14            0.3668    -3.1367     1.4920 C.ar    
  15 C15           -0.0517    -1.5657    -0.3805 C.3     
  16 N16           -0.5477    -3.3836     2.4083 N.ar    
  17 C17           -0.7476    -4.6130     2.8539 C.ar    
  18 C18            0.0238    -5.6508     2.3409 C.ar    
  19 C19            0.9781    -5.3477     1.3751 C.ar    
  20 N20            1.1138    -4.0932     0.9782 N.ar    
  21 C21            5.8972     3.3606     2.7955 C.3     
  22 C22            6.4665     2.2936     3.7328 C.3     
  23 C23            6.5685     4.7046     3.0852 C.3     
  24 O24            6.2475    -0.3684     0.4093 O.2     
  25 O25           -0.1502    -6.9277     2.7724 O.3     
  26 C26           -1.1098    -7.1605     3.7065 C.ar    
  27 C27           -2.4443    -7.2180     3.3317 C.ar    
  28 C28           -3.4184    -7.4551     4.2820 C.ar    
  29 C29           -3.0634    -7.6355     5.6082 C.ar    
  30 C30           -1.7319    -7.5784     5.9838 C.ar    
  31 C31           -0.7552    -7.3466     5.0348 C.ar    
  32 F32           -4.0172    -7.8669     6.5366 F       
  33 H33            1.1688     2.9080     1.4219 H       
  34 H34            3.5846     3.4629     1.3325 H       
  35 H35            5.8081     3.7299     0.6602 H       
  36 H36            8.0558     3.3339     0.3314 H       
  37 H37            8.2219     2.8493     2.0486 H       
  38 H38            2.6360    -2.1322     0.8463 H       
  39 H39            0.0695    -1.0340     1.7036 H       
  40 H40           -1.1169    -1.7928    -0.3373 H       
  41 H41            0.0878    -0.5416    -0.7266 H       
  42 H42            0.4385    -2.2524    -1.0706 H       
  43 H43           -1.4986    -4.8080     3.6052 H       
  44 H44            1.5967    -6.1259     0.9530 H       
  45 H45            4.8227     3.4491     2.9558 H       
  46 H46            7.5530     2.2773     3.6473 H       
  47 H47            6.1863     2.5257     4.7602 H       
  48 H48            6.0657     1.3178     3.4584 H       
  49 H49            7.6313     4.6375     2.8527 H       
  50 H50            6.1103     5.4795     2.4707 H       
  51 H51            6.4421     4.9542     4.1387 H       
  52 H52           -2.7215    -7.0770     2.2974 H       
  53 H53           -4.4573    -7.4996     3.9906 H       
  54 H54           -1.4565    -7.7189     7.0186 H       
  55 H55            0.2837    -7.3062     5.3274 H       
@<TRIPOS>BOND
   1    1    2 ar
   2    1    6 ar
   3    1   33 1
   4    2    3 ar
   5    3    4 ar
   6    3   12 1
   7    4    5 ar
   8    5    6 ar
   9    5    7 1
  10    6   34 1
  11    7    8 1
  12    7   11 am
  13    8    9 1
  14    8   21 1
  15    8   35 1
  16    9   10 1
  17    9   36 1
  18    9   37 1
  19   10   11 1
  20   11   24 2
  21   12   13 1
  22   12   38 1
  23   13   14 1
  24   13   15 1
  25   13   39 1
  26   14   16 ar
  27   14   20 ar
  28   15   40 1
  29   15   41 1
  30   15   42 1
  31   16   17 ar
  32   17   18 ar
  33   17   43 1
  34   18   19 ar
  35   18   25 1
  36   19   20 ar
  37   19   44 1
  38   21   22 1
  39   21   23 1
  40   21   45 1
  41   22   46 1
  42   22   47 1
  43   22   48 1
  44   23   49 1
  45   23   50 1
  46   23   51 1
  47   25   26 1
  48   26   27 ar
  49   26   31 ar
  50   27   28 ar
  51   27   52 1
  52   28   29 ar
  53   28   53 1
  54   29   30 ar
  55   29   32 1
  56   30   31 ar
  57   30   54 1
  58   31   55 1

#	End of record

