#	Name: ASD03331063
#	Creating user name:	WinNT
#	Creation time:	15. 06. 2019 20:38

#	Modifying user name:	WinNT
#	Modification time:	15. 06. 2019 20:38

#	Program:	/corina/corina34_cracker 3.40 0067  02.08.2006

@<TRIPOS>MOLECULE
ASD03331063
  49   52    0    0    0
SMALL
NO_CHARGES


@<TRIPOS>ATOM
   1 C1            -0.0127     1.2111    -0.0699 C.2     
   2 O2             0.0038    -0.0049    -0.0531 O.2     
   3 N3             3.3812     2.4705     0.0543 N.pl3   
   4 C4             2.5039     1.4320     0.0200 C.2     
   5 C5             2.8723    -0.0287     0.0274 C.3     
   6 N6             3.8687    -0.2692     1.0829 N.3     
   7 C7             5.2305    -0.0794     0.5797 C.3     
   8 C8             5.2741     1.0222    -0.4754 C.3     
   9 C9             4.8392     2.3524     0.1456 C.3     
  10 C10            2.6524     3.6230     0.0006 C.2     
  11 N11            1.3783     3.3110    -0.0466 N.2     
  12 C12            1.2525     1.9656    -0.0333 C.2     
  13 C13            3.2057     4.9943    -0.0034 C.ar    
  14 C14            2.7436     5.9342    -0.9286 C.ar    
  15 C15            3.2637     7.2143    -0.9275 C.ar    
  16 C16            4.2415     7.5662    -0.0120 C.ar    
  17 C17            4.7042     6.6364     0.9087 C.ar    
  18 C18            4.1868     5.3561     0.9204 C.ar    
  19 F19            5.6585     6.9862     1.7987 F       
  20 F20            4.7470     8.8191    -0.0154 F       
  21 F21            1.7904     5.5918    -1.8228 F       
  22 C22            3.7049    -1.6074     1.6664 C.3     
  23 N23           -1.1878     1.8684    -0.1277 N.am    
  24 C24           -2.5178     1.2435    -0.1748 C.3     
  25 C25           -3.5562     2.3819    -0.2596 C.3     
  26 C26           -2.7285     3.5658    -0.8258 C.3     
  27 C27           -1.3529     3.3333    -0.1476 C.3     
  28 O28           -4.6165     2.0337    -1.1521 O.3     
  29 H29            1.9829    -0.6278     0.2227 H       
  30 H30            3.2928    -0.3033    -0.9400 H       
  31 H31            5.8839     0.1928     1.4087 H       
  32 H32            5.5826    -1.0119     0.1387 H       
  33 H33            6.2899     1.1164    -0.8593 H       
  34 H34            4.6007     0.7670    -1.2937 H       
  35 H35            5.3061     3.1764    -0.3940 H       
  36 H36            5.1425     2.3825     1.1921 H       
  37 H37            2.9074     7.9416    -1.6420 H       
  38 H38            4.5444     4.6347     1.6402 H       
  39 H39            3.8306    -2.3607     0.8888 H       
  40 H40            4.4539    -1.7590     2.4437 H       
  41 H41            2.7086    -1.6953     2.0997 H       
  42 H42           -2.5960     0.6041    -1.0542 H       
  43 H43           -2.6839     0.6567     0.7286 H       
  44 H44           -3.9465     2.6223     0.7293 H       
  45 H45           -2.6485     3.5029    -1.9110 H       
  46 H46           -3.1554     4.5216    -0.5219 H       
  47 H47           -1.3565     3.7285     0.8683 H       
  48 H48           -0.5586     3.7966    -0.7329 H       
  49 H49           -5.1164     1.2511    -0.8826 H       
@<TRIPOS>BOND
   1    1    2 2
   2    1   12 1
   3    1   23 am
   4    3    4 1
   5    3    9 1
   6    3   10 1
   7    4    5 1
   8    4   12 2
   9    5    6 1
  10    5   29 1
  11    5   30 1
  12    6    7 1
  13    6   22 1
  14    7    8 1
  15    7   31 1
  16    7   32 1
  17    8    9 1
  18    8   33 1
  19    8   34 1
  20    9   35 1
  21    9   36 1
  22   10   11 2
  23   10   13 1
  24   11   12 1
  25   13   14 ar
  26   13   18 ar
  27   14   15 ar
  28   14   21 1
  29   15   16 ar
  30   15   37 1
  31   16   17 ar
  32   16   20 1
  33   17   18 ar
  34   17   19 1
  35   18   38 1
  36   22   39 1
  37   22   40 1
  38   22   41 1
  39   23   24 1
  40   23   27 1
  41   24   25 1
  42   24   42 1
  43   24   43 1
  44   25   26 1
  45   25   28 1
  46   25   44 1
  47   26   27 1
  48   26   45 1
  49   26   46 1
  50   27   47 1
  51   27   48 1
  52   28   49 1

#	End of record

