#	Name: ASD03730717
#	Creating user name:	WinNT
#	Creation time:	15. 06. 2019 20:44

#	Modifying user name:	WinNT
#	Modification time:	15. 06. 2019 20:44

#	Program:	/corina/corina34_cracker 3.40 0067  02.08.2006

@<TRIPOS>MOLECULE
ASD03730717
  65   71    0    0    0
SMALL
NO_CHARGES


@<TRIPOS>ATOM
   1 C1             1.1431    -1.7368    -2.6113 C.2     
   2 C2             0.3530    -1.6296    -1.3666 C.ar    
   3 C3             0.9139    -2.0079    -0.1454 C.ar    
   4 C4             0.1712    -1.9054     1.0124 C.ar    
   5 C5            -1.1272    -1.4289     0.9653 C.ar    
   6 C6            -1.6890    -1.0523    -0.2415 C.ar    
   7 C7            -0.9550    -1.1444    -1.4063 C.ar    
   8 O8             2.3148    -2.0568    -2.5618 O.2     
   9 N9             0.5629    -1.4850    -3.8014 N.am    
  10 C10            2.3275    -2.5275    -0.0922 C.3     
  11 O11           -1.4676    -4.6998     5.6147 O.3     
  12 C12           -1.5810    -5.1482     6.9782 C.3     
  13 O13           -0.4482    -6.0207     7.1470 O.3     
  14 C14            0.4919    -5.5747     6.2626 C.ar    
  15 C15           -0.1357    -4.7634     5.3201 C.ar    
  16 C16            1.8549    -5.7982     6.1849 C.ar    
  17 C17            2.6076    -5.2187     5.1679 C.ar    
  18 C18            1.9680    -4.4169     4.2274 C.ar    
  19 C19            0.6103    -4.1871     4.3057 C.ar    
  20 O20            3.9471    -5.2952     4.9226 O.3     
  21 C21            3.0266    -3.9673     3.2562 C.3     
  22 C22            4.2037    -4.9040     3.5601 C.3     
  23 N23            2.6778    -2.8492     1.2934 N.am    
  24 C24            2.5739    -4.0818     1.8291 C.2     
  25 C25            3.3964    -2.5255     3.4418 C.ar    
  26 C26            3.8762    -1.7958     4.5064 C.ar    
  27 C27            4.1284    -0.4432     4.3619 C.ar    
  28 C28            3.8969     0.1741     3.1461 C.ar    
  29 C29            3.4154    -0.5523     2.0770 C.ar    
  30 C30            3.1591    -1.9144     2.2133 C.ar    
  31 O31            2.1905    -5.0865     1.2681 O.2     
  32 C32            1.3287    -1.5082    -4.9714 C.ar    
  33 C33            0.9381    -2.3005    -6.0432 C.ar    
  34 C34            1.6966    -2.3212    -7.1972 C.ar    
  35 C35            2.8440    -1.5545    -7.2860 C.ar    
  36 C36            3.2357    -0.7646    -6.2207 C.ar    
  37 C37            2.4783    -0.7347    -5.0662 C.ar    
  38 C38            2.9025     0.1312    -3.9080 C.3     
  39 C39           -0.3117    -3.1370    -5.9469 C.3     
  40 H40            0.6038    -2.1980     1.9577 H       
  41 H41           -1.7045    -1.3509     1.8747 H       
  42 H42           -2.7028    -0.6812    -0.2714 H       
  43 H43           -1.3931    -0.8456    -2.3471 H       
  44 H44           -0.3857    -1.2878    -3.8465 H       
  45 H45            2.4079    -3.4252    -0.7051 H       
  46 H46            3.0090    -1.7661    -0.4719 H       
  47 H47           -1.5201    -4.3042     7.6652 H       
  48 H48           -2.5117    -5.6963     7.1249 H       
  49 H49            2.3381    -6.4267     6.9183 H       
  50 H50            0.1276    -3.5564     3.5738 H       
  51 H51            5.1519    -4.3720     3.4821 H       
  52 H52            4.1894    -5.7707     2.8992 H       
  53 H53            4.0561    -2.2799     5.4550 H       
  54 H54            4.5056     0.1292     5.1965 H       
  55 H55            4.0937     1.2300     3.0334 H       
  56 H56            3.2366    -0.0631     1.1310 H       
  57 H57            1.3934    -2.9370    -8.0310 H       
  58 H58            3.4358    -1.5730    -8.1893 H       
  59 H59            4.1326    -0.1673    -6.2931 H       
  60 H60            3.6531    -0.3941    -3.3174 H       
  61 H61            3.3241     1.0626    -4.2860 H       
  62 H62            2.0372     0.3514    -3.2829 H       
  63 H63           -1.1648    -2.5577    -6.3000 H       
  64 H64           -0.1995    -4.0300    -6.5618 H       
  65 H65           -0.4748    -3.4285    -4.9094 H       
@<TRIPOS>BOND
   1    1    2 1
   2    1    8 2
   3    1    9 am
   4    2    3 ar
   5    2    7 ar
   6    3    4 ar
   7    3   10 1
   8    4    5 ar
   9    4   40 1
  10    5    6 ar
  11    5   41 1
  12    6    7 ar
  13    6   42 1
  14    7   43 1
  15    9   32 1
  16    9   44 1
  17   10   23 1
  18   10   45 1
  19   10   46 1
  20   11   12 1
  21   11   15 1
  22   12   13 1
  23   12   47 1
  24   12   48 1
  25   13   14 1
  26   14   15 ar
  27   14   16 ar
  28   15   19 ar
  29   16   17 ar
  30   16   49 1
  31   17   18 ar
  32   17   20 1
  33   18   19 ar
  34   18   21 1
  35   19   50 1
  36   20   22 1
  37   21   22 1
  38   21   24 1
  39   21   25 1
  40   22   51 1
  41   22   52 1
  42   23   24 am
  43   23   30 1
  44   24   31 2
  45   25   26 ar
  46   25   30 ar
  47   26   27 ar
  48   26   53 1
  49   27   28 ar
  50   27   54 1
  51   28   29 ar
  52   28   55 1
  53   29   30 ar
  54   29   56 1
  55   32   33 ar
  56   32   37 ar
  57   33   34 ar
  58   33   39 1
  59   34   35 ar
  60   34   57 1
  61   35   36 ar
  62   35   58 1
  63   36   37 ar
  64   36   59 1
  65   37   38 1
  66   38   60 1
  67   38   61 1
  68   38   62 1
  69   39   63 1
  70   39   64 1
  71   39   65 1

#	End of record

