#	Name: ASD03331834
#	Creating user name:	WinNT
#	Creation time:	15. 06. 2019 20:39

#	Modifying user name:	WinNT
#	Modification time:	15. 06. 2019 20:39

#	Program:	/corina/corina34_cracker 3.40 0067  02.08.2006

@<TRIPOS>MOLECULE
ASD03331834
  61   63    0    0    0
SMALL
NO_CHARGES


@<TRIPOS>ATOM
   1 C1             0.2635     2.0656     1.2485 C.2     
   2 N2             0.4820     0.7753     1.6146 N.pl3   
   3 C3            -0.7125     0.1447     1.6330 C.2     
   4 N4            -1.6431     0.9940     1.2926 N.2     
   5 C5            -1.0694     2.2037     1.0489 C.2     
   6 C6             1.3555     3.0953     1.1174 C.3     
   7 N7             2.5562     2.5750     1.7963 N.3     
   8 C8             2.8607     1.2053     1.3592 C.3     
   9 C9             1.8112     0.2360     1.9176 C.3     
  10 C10           -1.7677     3.4341     0.6376 C.2     
  11 O11           -1.1375     4.4573     0.4503 O.2     
  12 N12           -3.1048     3.4257     0.4688 N.am    
  13 C13           -3.7992     4.6492     0.0598 C.3     
  14 C14           -3.7549     4.7755    -1.4644 C.3     
  15 C15           -0.9342    -1.3030     1.9878 C.3     
  16 C16           -1.5325    -1.3961     3.3679 C.ar    
  17 O17           -1.8264    -1.8943     1.0410 O.3     
  18 C18            3.7070     3.4632     1.5848 C.3     
  19 C19           -4.3210     3.5033    -2.0982 C.3     
  20 C20           -5.2338     4.5895     0.5174 C.2     
  21 C21           -4.5925     5.9791    -1.9009 C.3     
  22 C22           -2.3067     4.9704    -1.9181 C.3     
  23 O23           -5.7686     3.5160     0.6978 O.2     
  24 N24           -5.9225     5.7290     0.7262 N.am    
  25 C25           -7.2781     5.6748     1.2789 C.3     
  26 C26           -0.7141    -1.5950     4.4640 C.ar    
  27 C27           -1.2628    -1.6804     5.7299 C.ar    
  28 C28           -2.6300    -1.5665     5.8996 C.ar    
  29 C29           -3.4483    -1.3667     4.8036 C.ar    
  30 C30           -2.8991    -1.2769     3.5382 C.ar    
  31 H31            1.5740     3.2685     0.0637 H       
  32 H32            1.0414     4.0273     1.5873 H       
  33 H33            2.8507     1.1618     0.2701 H       
  34 H34            3.8476     0.9198     1.7231 H       
  35 H35            1.9331     0.1438     2.9969 H       
  36 H36            1.9271    -0.7414     1.4492 H       
  37 H37           -3.6074     2.6096     0.6181 H       
  38 H38           -3.3097     5.5126     0.5103 H       
  39 H39            0.0187    -1.8319     1.9685 H       
  40 H40           -2.6961    -1.4732     1.0040 H       
  41 H41            3.4809     4.4521     1.9837 H       
  42 H42            4.5791     3.0558     2.0962 H       
  43 H43            3.9149     3.5407     0.5176 H       
  44 H44           -5.3527     3.3644    -1.7750 H       
  45 H45           -4.2895     3.5933    -3.1840 H       
  46 H46           -3.7243     2.6458    -1.7872 H       
  47 H47           -4.1673     6.8898    -1.4792 H       
  48 H48           -4.5911     6.0474    -2.9888 H       
  49 H49           -5.6158     5.8576    -1.5458 H       
  50 H50           -1.7100     4.1130    -1.6071 H       
  51 H51           -2.2752     5.0604    -3.0039 H       
  52 H52           -1.9034     5.8768    -1.4665 H       
  53 H53           -5.5206     6.5851     0.5104 H       
  54 H54           -7.2519     5.1996     2.2595 H       
  55 H55           -7.6717     6.6866     1.3760 H       
  56 H56           -7.9194     5.0979     0.6126 H       
  57 H57            0.3541    -1.6840     4.3314 H       
  58 H58           -0.6235    -1.8365     6.5862 H       
  59 H59           -3.0588    -1.6339     6.8886 H       
  60 H60           -4.5165    -1.2780     4.9362 H       
  61 H61           -3.5384    -1.1208     2.6819 H       
@<TRIPOS>BOND
   1    1    2 1
   2    1    6 1
   3    1    5 2
   4    2    3 1
   5    2    9 1
   6    3    4 2
   7    3   15 1
   8    4    5 1
   9    5   10 1
  10    6    7 1
  11    6   31 1
  12    6   32 1
  13    7    8 1
  14    7   18 1
  15    8    9 1
  16    8   33 1
  17    8   34 1
  18    9   35 1
  19    9   36 1
  20   10   11 2
  21   10   12 am
  22   12   13 1
  23   12   37 1
  24   13   14 1
  25   13   20 1
  26   13   38 1
  27   14   19 1
  28   14   21 1
  29   14   22 1
  30   15   16 1
  31   15   17 1
  32   15   39 1
  33   16   26 ar
  34   16   30 ar
  35   17   40 1
  36   18   41 1
  37   18   42 1
  38   18   43 1
  39   19   44 1
  40   19   45 1
  41   19   46 1
  42   20   23 2
  43   20   24 am
  44   21   47 1
  45   21   48 1
  46   21   49 1
  47   22   50 1
  48   22   51 1
  49   22   52 1
  50   24   25 1
  51   24   53 1
  52   25   54 1
  53   25   55 1
  54   25   56 1
  55   26   27 ar
  56   26   57 1
  57   27   28 ar
  58   27   58 1
  59   28   29 ar
  60   28   59 1
  61   29   30 ar
  62   29   60 1
  63   30   61 1

#	End of record

