#	Name: ASD07930272
#	Creating user name:	WinNT
#	Creation time:	15. 06. 2019 21:12

#	Modifying user name:	WinNT
#	Modification time:	15. 06. 2019 21:12

#	Program:	/corina/corina34_cracker 3.40 0067  02.08.2006

@<TRIPOS>MOLECULE
ASD07930272
  70   74    0    0    0
SMALL
NO_CHARGES


@<TRIPOS>ATOM
   1 C1             0.3718     1.4888     0.4351 C.2     
   2 C2             0.4278     0.1229     0.4862 C.2     
   3 C3             1.7370    -0.5328     0.4396 C.2     
   4 N4             2.8472     0.2200     0.3501 N.am    
   5 C5             2.7645     1.5931     0.2982 C.2     
   6 C6             1.5596     2.2244     0.3397 C.2     
   7 C7             4.1761    -0.4050     0.3075 C.3     
   8 C8             5.0296     0.3607    -0.7145 C.3     
   9 N9             5.1256     1.7630    -0.2849 N.am    
  10 C10            4.0164     2.3750     0.1944 C.2     
  11 C11            6.3972     2.4853    -0.3735 C.3     
  12 O12            4.0487     3.5425     0.5322 O.2     
  13 O13            1.8189    -1.7486     0.4821 O.2     
  14 N14           -0.7436    -0.6338     0.5816 N.pl3   
  15 C15           -1.2249    -1.4987    -0.3497 C.2     
  16 N16           -2.3375    -2.0138     0.0976 N.2     
  17 C17           -2.6060    -1.5074     1.3105 C.2     
  18 C18           -1.6213    -0.6483     1.6352 C.2     
  19 C19           -3.8003    -1.8462     2.1649 C.3     
  20 C20            6.5016     3.1685    -1.7385 C.3     
  21 O21            5.4890     4.1709    -1.8481 O.3     
  22 C22            5.4429     4.8770    -3.0085 C.ar    
  23 C23            6.3549     4.6090    -4.0204 C.ar    
  24 C24            6.3130     5.3242    -5.2036 C.ar    
  25 C25            5.3645     6.3089    -5.3863 C.ar    
  26 C26            4.4426     6.5858    -4.3740 C.ar    
  27 C27            4.4827     5.8593    -3.1829 C.ar    
  28 C28            3.4247     7.6401    -4.5658 C.2     
  29 C29            2.7980     8.2817    -3.3951 C.ar    
  30 O30            3.1041     7.9784    -5.6888 O.2     
  31 C31            3.4496     8.2724    -2.1576 C.ar    
  32 C32            2.8610     8.8724    -1.0676 C.ar    
  33 C33            1.6202     9.4868    -1.1954 C.ar    
  34 C34            0.9688     9.4985    -2.4238 C.ar    
  35 C35            1.5530     8.9063    -3.5205 C.ar    
  36 O36            1.0431    10.0764    -0.1180 O.3     
  37 C37           -0.2321    10.6892    -0.3193 C.3     
  38 C38           -0.7198    11.2961     0.9978 C.3     
  39 C39           -2.0851    11.9522     0.7823 C.3     
  40 C40           -2.5543    12.5361     2.0494 C.1     
  41 N41           -2.9165    12.9867     3.0273 N.1     
  42 H42           -0.5814     1.9957     0.4635 H       
  43 H43            1.5190     3.3028     0.2986 H       
  44 H44            4.6413    -0.3485     1.2917 H       
  45 H45            4.0833    -1.4473     0.0026 H       
  46 H46            6.0266    -0.0774    -0.7604 H       
  47 H47            4.5586     0.3098    -1.6962 H       
  48 H48            6.4433     3.2376     0.4139 H       
  49 H49            7.2227     1.7835    -0.2544 H       
  50 H50           -0.7643    -1.7218    -1.3007 H       
  51 H51           -1.5417    -0.0753     2.5471 H       
  52 H52           -3.5588    -2.6927     2.8077 H       
  53 H53           -4.0625    -0.9857     2.7804 H       
  54 H54           -4.6434    -2.1053     1.5244 H       
  55 H55            7.4833     3.6313    -1.8390 H       
  56 H56            6.3666     2.4280    -2.5268 H       
  57 H57            7.1001     3.8395    -3.8831 H       
  58 H58            7.0255     5.1112    -5.9868 H       
  59 H59            5.3348     6.8656    -6.3112 H       
  60 H60            3.7728     6.0686    -2.3965 H       
  61 H61            4.4130     7.7947    -2.0574 H       
  62 H62            3.3634     8.8656    -0.1116 H       
  63 H63            0.0052     9.9769    -2.5186 H       
  64 H64            1.0464     8.9159    -4.4743 H       
  65 H65           -0.1435    11.4742    -1.0703 H       
  66 H66           -0.9458     9.9392    -0.6601 H       
  67 H67           -0.8084    10.5111     1.7488 H       
  68 H68           -0.0060    12.0461     1.3386 H       
  69 H69           -1.9965    12.7372     0.0313 H       
  70 H70           -2.7989    11.2022     0.4415 H       
@<TRIPOS>BOND
   1    1    2 2
   2    1    6 1
   3    1   42 1
   4    2    3 1
   5    2   14 1
   6    3    4 am
   7    3   13 2
   8    4    5 1
   9    4    7 1
  10    5    6 2
  11    5   10 1
  12    6   43 1
  13    7    8 1
  14    7   44 1
  15    7   45 1
  16    8    9 1
  17    8   46 1
  18    8   47 1
  19    9   10 am
  20    9   11 1
  21   10   12 2
  22   11   20 1
  23   11   48 1
  24   11   49 1
  25   14   15 1
  26   14   18 1
  27   15   16 2
  28   15   50 1
  29   16   17 1
  30   17   18 2
  31   17   19 1
  32   18   51 1
  33   19   52 1
  34   19   53 1
  35   19   54 1
  36   20   21 1
  37   20   55 1
  38   20   56 1
  39   21   22 1
  40   22   23 ar
  41   22   27 ar
  42   23   24 ar
  43   23   57 1
  44   24   25 ar
  45   24   58 1
  46   25   26 ar
  47   25   59 1
  48   26   27 ar
  49   26   28 1
  50   27   60 1
  51   28   29 1
  52   28   30 2
  53   29   31 ar
  54   29   35 ar
  55   31   32 ar
  56   31   61 1
  57   32   33 ar
  58   32   62 1
  59   33   34 ar
  60   33   36 1
  61   34   35 ar
  62   34   63 1
  63   35   64 1
  64   36   37 1
  65   37   38 1
  66   37   65 1
  67   37   66 1
  68   38   39 1
  69   38   67 1
  70   38   68 1
  71   39   40 1
  72   39   69 1
  73   39   70 1
  74   40   41 3

#	End of record

