#	Name: ASD01151030
#	Creating user name:	WinNT
#	Creation time:	15. 06. 2019 19:05

#	Modifying user name:	WinNT
#	Modification time:	15. 06. 2019 19:05

#	Program:	/corina/corina34_cracker 3.40 0067  02.08.2006

@<TRIPOS>MOLECULE
ASD01151030
  16   15    0    0    0
SMALL
NO_CHARGES


@<TRIPOS>ATOM
   1 C1            -0.0157     1.3058     0.0092 C.2     
   2 C2             0.0021    -0.0041     0.0020 C.2     
   3 C3            -1.2926    -0.7753     0.0102 C.3     
   4 O4            -2.3912     0.1385     0.0256 O.3     
   5 C5            -1.3737    -1.6492    -1.2430 C.3     
   6 C6            -1.3498    -1.6626     1.2553 C.3     
   7 H7             0.9122     1.8585     0.0033 H       
   8 H8            -0.9582     1.8330     0.0166 H       
   9 H9             0.9446    -0.5313    -0.0098 H       
  10 H10           -2.4185     0.7337    -0.7360 H       
  11 H11           -0.5357    -2.3461    -1.2547 H       
  12 H12           -2.3101    -2.2070    -1.2371 H       
  13 H13           -1.3329    -1.0170    -2.1300 H       
  14 H14           -1.2921    -1.0400     2.1482 H       
  15 H15           -2.2863    -2.2204     1.2613 H       
  16 H16           -0.5118    -2.3596     1.2436 H       
@<TRIPOS>BOND
   1    1    2 2
   2    1    7 1
   3    1    8 1
   4    2    3 1
   5    2    9 1
   6    3    4 1
   7    3    5 1
   8    3    6 1
   9    4   10 1
  10    5   11 1
  11    5   12 1
  12    5   13 1
  13    6   14 1
  14    6   15 1
  15    6   16 1

#	End of record

