#	Name: ASD01001215
#	Creating user name:	WinNT
#	Creation time:	15. 06. 2019 18:55

#	Modifying user name:	WinNT
#	Modification time:	15. 06. 2019 18:55

#	Program:	/corina/corina34_cracker 3.40 0067  02.08.2006

@<TRIPOS>MOLECULE
ASD01001215
  47   50    0    0    0
SMALL
NO_CHARGES


@<TRIPOS>ATOM
   1 C1            -0.0256     1.3570     0.1128 C.2     
   2 N2            -0.0171    -0.0118     0.1243 N.pl3   
   3 C3             1.3027    -0.4138     0.2231 C.ar    
   4 C4             2.0682     0.7662     0.2692 C.ar    
   5 N5             1.1999     1.8103     0.1980 N.2     
   6 C6             3.4549     0.6818     0.3710 C.ar    
   7 C7             4.0641    -0.5701     0.4258 C.ar    
   8 C8             3.2861    -1.7340     0.3786 C.ar    
   9 C9             1.9265    -1.6534     0.2785 C.ar    
  10 C10            5.5321    -0.6701     0.5331 C.2     
  11 O11            6.2083     0.3385     0.5737 O.2     
  12 O12            6.1229    -1.8799     0.5862 O.3     
  13 C13           -1.1375    -0.8501     0.0505 C.ar    
  14 C14           -1.7802    -1.2564     1.2125 C.ar    
  15 C15           -2.8844    -2.0822     1.1365 C.ar    
  16 C16           -3.3500    -2.5049    -0.0953 C.ar    
  17 C17           -2.7120    -2.1025    -1.2540 C.ar    
  18 C18           -1.6107    -1.2715    -1.1847 C.ar    
  19 C19           -1.2729    -0.7970     2.5551 C.3     
  20 F20           -2.0777    -1.3330     3.5661 F       
  21 F21            0.0455    -1.2315     2.7290 F       
  22 F22           -1.3155     0.6000     2.6166 F       
  23 N23           -1.1563     2.1418     0.0194 N.pl3   
  24 C24           -1.0536     3.5336     0.1321 C.ar    
  25 C25           -1.9538     4.3530    -0.5368 C.ar    
  26 C26           -1.8518     5.7270    -0.4243 C.ar    
  27 C27           -0.8490     6.2871     0.3576 C.ar    
  28 C28            0.0491     5.4686     1.0243 C.ar    
  29 C29           -0.0556     4.0950     0.9171 C.ar    
  30 O30           -0.7484     7.6392     0.4684 O.3     
  31 C31            0.3061     8.1462     1.2886 C.3     
  32 F32           -2.7266     6.5250    -1.0748 F       
  33 H33            4.0534     1.5801     0.4069 H       
  34 H34            3.7646    -2.7013     0.4215 H       
  35 H35            1.3347    -2.5561     0.2432 H       
  36 H36            7.0873    -1.8948     0.6563 H       
  37 H37           -3.3847    -2.3985     2.0398 H       
  38 H38           -4.2136    -3.1510    -0.1522 H       
  39 H39           -3.0775    -2.4349    -2.2144 H       
  40 H40           -1.1154    -0.9539    -2.0904 H       
  41 H41           -2.0224     1.7294    -0.1244 H       
  42 H42           -2.7328     3.9170    -1.1446 H       
  43 H43            0.8287     5.9047     1.6313 H       
  44 H44            0.6419     3.4579     1.4405 H       
  45 H45            0.2731     9.2357     1.2905 H       
  46 H46            0.1839     7.7772     2.3069 H       
  47 H47            1.2658     7.8125     0.8940 H       
@<TRIPOS>BOND
   1    1    2 1
   2    1    5 2
   3    1   23 1
   4    2    3 1
   5    2   13 1
   6    3    4 ar
   7    3    9 ar
   8    4    5 1
   9    4    6 ar
  10    6    7 ar
  11    6   33 1
  12    7    8 ar
  13    7   10 1
  14    8    9 ar
  15    8   34 1
  16    9   35 1
  17   10   11 2
  18   10   12 1
  19   12   36 1
  20   13   14 ar
  21   13   18 ar
  22   14   15 ar
  23   14   19 1
  24   15   16 ar
  25   15   37 1
  26   16   17 ar
  27   16   38 1
  28   17   18 ar
  29   17   39 1
  30   18   40 1
  31   19   20 1
  32   19   21 1
  33   19   22 1
  34   23   24 1
  35   23   41 1
  36   24   25 ar
  37   24   29 ar
  38   25   26 ar
  39   25   42 1
  40   26   27 ar
  41   26   32 1
  42   27   28 ar
  43   27   30 1
  44   28   29 ar
  45   28   43 1
  46   29   44 1
  47   30   31 1
  48   31   45 1
  49   31   46 1
  50   31   47 1

#	End of record

