#	Name: ASD03331110
#	Creating user name:	WinNT
#	Creation time:	15. 06. 2019 20:38

#	Modifying user name:	WinNT
#	Modification time:	15. 06. 2019 20:38

#	Program:	/corina/corina34_cracker 3.40 0067  02.08.2006

@<TRIPOS>MOLECULE
ASD03331110
  57   59    0    0    0
SMALL
NO_CHARGES


@<TRIPOS>ATOM
   1 N1             0.1553     0.9733    -0.0293 N.pl3   
   2 C2             0.0397    -0.3636     0.1897 C.2     
   3 C3             1.1630    -1.2901     0.5756 C.3     
   4 N4             1.9335    -0.6832     1.6722 N.3     
   5 C5             3.0083     0.1675     1.1577 C.3     
   6 C6             2.5910     0.8475    -0.1431 C.3     
   7 C7             1.3858     1.7571     0.1109 C.3     
   8 C8            -1.0773     1.4369    -0.3866 C.2     
   9 N9            -1.9229     0.4333    -0.3715 N.2     
  10 C10           -1.2654    -0.6924    -0.0168 C.2     
  11 C11           -1.8552    -2.0357     0.1216 C.2     
  12 O12           -1.1564    -2.9759     0.4489 O.2     
  13 N13           -3.1689    -2.2225    -0.1143 N.am    
  14 C14           -4.9884    -3.6564    -0.8372 C.2     
  15 C15           -3.7552    -3.5580     0.0234 C.3     
  16 C16           -4.1333    -3.8007     1.4859 C.3     
  17 C17           -5.2016    -2.7912     1.9108 C.3     
  18 O18           -5.6238    -2.6580    -1.1027 O.2     
  19 N19           -5.3852    -4.8538    -1.3118 N.am    
  20 C20           -6.6415    -4.9666    -2.0569 C.3     
  21 C21           -4.6823    -5.2203     1.6420 C.3     
  22 C22           -2.8941    -3.6333     2.3676 C.3     
  23 C23           -1.4057     2.8369    -0.7326 C.ar    
  24 C24           -2.1809     3.1175    -1.8609 C.ar    
  25 C25           -2.4842     4.4279    -2.1787 C.ar    
  26 C26           -2.0223     5.4602    -1.3828 C.ar    
  27 C27           -1.2533     5.1886    -0.2628 C.ar    
  28 C28           -0.9478     3.8824     0.0692 C.ar    
  29 F29           -0.8058     6.2027     0.5096 F       
  30 F30           -2.6325     2.1101    -2.6395 F       
  31 H31            0.7516    -2.2445     0.9040 H       
  32 H32            1.8151    -1.4495    -0.2832 H       
  33 H33            1.3306    -0.1670     2.2952 H       
  34 H34            3.2480     0.9295     1.8993 H       
  35 H35            3.8922    -0.4436     0.9748 H       
  36 H36            3.4209     1.4433    -0.5230 H       
  37 H37            2.3239     0.0891    -0.8790 H       
  38 H38            1.3842     2.5708    -0.6143 H       
  39 H39            1.4443     2.1664     1.1194 H       
  40 H40           -3.7262    -1.4727    -0.3753 H       
  41 H41           -3.0302    -4.3076    -0.2937 H       
  42 H42           -6.0844    -2.9104     1.2828 H       
  43 H43           -5.4709    -2.9641     2.9528 H       
  44 H44           -4.8105    -1.7799     1.7997 H       
  45 H45           -4.8390    -5.6409    -1.1600 H       
  46 H46           -6.7937    -6.0032    -2.3578 H       
  47 H47           -7.4693    -4.6468    -1.4240 H       
  48 H48           -6.5963    -4.3339    -2.9433 H       
  49 H49           -3.9002    -5.9407     1.4023 H       
  50 H50           -5.0127    -5.3711     2.6697 H       
  51 H51           -5.5251    -5.3603     0.9651 H       
  52 H52           -2.5030    -2.6220     2.2564 H       
  53 H53           -3.1634    -3.8062     3.4095 H       
  54 H54           -2.1330    -4.3525     2.0649 H       
  55 H55           -3.0830     4.6462    -3.0506 H       
  56 H56           -2.2618     6.4825    -1.6356 H       
  57 H57           -0.3520     3.6718     0.9450 H       
@<TRIPOS>BOND
   1    1    2 1
   2    1    7 1
   3    1    8 1
   4    2    3 1
   5    2   10 2
   6    3    4 1
   7    3   31 1
   8    3   32 1
   9    4    5 1
  10    4   33 1
  11    5    6 1
  12    5   34 1
  13    5   35 1
  14    6    7 1
  15    6   36 1
  16    6   37 1
  17    7   38 1
  18    7   39 1
  19    8    9 2
  20    8   23 1
  21    9   10 1
  22   10   11 1
  23   11   12 2
  24   11   13 am
  25   13   15 1
  26   13   40 1
  27   14   18 2
  28   14   19 am
  29   14   15 1
  30   15   16 1
  31   15   41 1
  32   16   17 1
  33   16   21 1
  34   16   22 1
  35   17   42 1
  36   17   43 1
  37   17   44 1
  38   19   20 1
  39   19   45 1
  40   20   46 1
  41   20   47 1
  42   20   48 1
  43   21   49 1
  44   21   50 1
  45   21   51 1
  46   22   52 1
  47   22   53 1
  48   22   54 1
  49   23   24 ar
  50   23   28 ar
  51   24   25 ar
  52   24   30 1
  53   25   26 ar
  54   25   55 1
  55   26   27 ar
  56   26   56 1
  57   27   28 ar
  58   27   29 1
  59   28   57 1

#	End of record

