#	Name: ASD01148763
#	Creating user name:	WinNT
#	Creation time:	15. 06. 2019 19:03

#	Modifying user name:	WinNT
#	Modification time:	15. 06. 2019 19:03

#	Program:	/corina/corina34_cracker 3.40 0067  02.08.2006

@<TRIPOS>MOLECULE
ASD01148763
  62   64    0    0    0
SMALL
NO_CHARGES


@<TRIPOS>ATOM
   1 N1            -0.0155     1.3410     0.0828 N.pl3   
   2 C2             0.0021     0.0054    -0.1102 C.2     
   3 C3             1.3176    -0.4068    -0.1563 C.2     
   4 C4             2.1210     0.7505     0.0194 C.2     
   5 C5             1.2772     1.8040     0.1631 C.2     
   6 C6             1.7972    -1.7843    -0.3503 C.2     
   7 O7             1.0001    -2.6914    -0.4893 O.2     
   8 O8             3.1203    -2.0403    -0.3738 O.3     
   9 C9            -1.1680     2.1318     0.1800 C.ar    
  10 C10           -2.0093     2.0034     1.2771 C.ar    
  11 C11           -3.1445     2.7846     1.3703 C.ar    
  12 C12           -3.4438     3.6936     0.3722 C.ar    
  13 C13           -2.6079     3.8238    -0.7217 C.ar    
  14 C14           -1.4682     3.0495    -0.8178 C.ar    
  15 S15           -4.8935     4.6876     0.4941 S.o2    
  16 O16           -5.2281     5.0735    -0.8319 O.2     
  17 O17           -5.7880     3.9894     1.3495 O.2     
  18 N18           -4.4705     6.0755     1.2924 N.am    
  19 C19            1.6798     3.2118     0.3709 C.ar    
  20 C20            0.7826     4.1217     0.9316 C.ar    
  21 C21            1.1645     5.4335     1.1233 C.ar    
  22 C22            2.4338     5.8476     0.7605 C.ar    
  23 C23            3.3281     4.9504     0.2042 C.ar    
  24 C24            2.9605     3.6345     0.0126 C.ar    
  25 C25            2.8439     7.2822     0.9719 C.3     
  26 C26            3.4677     7.4351     2.3606 C.3     
  27 C27            3.8840     8.8916     2.5751 C.3     
  28 C28            4.5077     9.0445     3.9638 C.3     
  29 C29            4.9241    10.5010     4.1784 C.3     
  30 C30           -1.2073    -0.8826    -0.2512 C.3     
  31 C31            3.5210    -3.4222    -0.5691 C.3     
  32 C32            5.0482    -3.5155    -0.5670 C.3     
  33 H33            3.2003     0.7858     0.0361 H       
  34 H34           -1.7765     1.2931     2.0566 H       
  35 H35           -3.7992     2.6852     2.2234 H       
  36 H36           -2.8445     4.5344    -1.4998 H       
  37 H37           -0.8136     3.1546    -1.6703 H       
  38 H38           -3.5566     6.2040     1.5908 H       
  39 H39           -5.1367     6.7599     1.4616 H       
  40 H40           -0.2088     3.7998     1.2145 H       
  41 H41            0.4711     6.1387     1.5571 H       
  42 H42            4.3175     5.2799    -0.0768 H       
  43 H43            3.6609     2.9342    -0.4180 H       
  44 H44            3.5725     7.5674     0.2130 H       
  45 H45            1.9676     7.9258     0.8943 H       
  46 H46            2.7391     7.1499     3.1195 H       
  47 H47            4.3440     6.7915     2.4381 H       
  48 H48            4.6126     9.1768     1.8162 H       
  49 H49            3.0077     9.5352     2.4976 H       
  50 H50            3.7792     8.7593     4.7228 H       
  51 H51            5.3840     8.4009     4.0414 H       
  52 H52            4.0478    11.1446     4.1009 H       
  53 H53            5.3685    10.6099     5.1677 H       
  54 H54            5.6527    10.7862     3.4195 H       
  55 H55           -1.4884    -0.9496    -1.3022 H       
  56 H56           -0.9732    -1.8780     0.1264 H       
  57 H57           -2.0350    -0.4626     0.3203 H       
  58 H58            3.1185    -4.0347     0.2376 H       
  59 H59            3.1364    -3.7805    -1.5240 H       
  60 H60            5.4507    -2.9029    -1.3738 H       
  61 H61            5.4328    -3.1572     0.3878 H       
  62 H62            5.3490    -4.5528    -0.7137 H       
@<TRIPOS>BOND
   1    1    2 1
   2    1    5 1
   3    1    9 1
   4    2    3 2
   5    2   30 1
   6    3    4 1
   7    3    6 1
   8    4    5 2
   9    4   33 1
  10    5   19 1
  11    6    7 2
  12    6    8 1
  13    8   31 1
  14    9   10 ar
  15    9   14 ar
  16   10   11 ar
  17   10   34 1
  18   11   12 ar
  19   11   35 1
  20   12   13 ar
  21   12   15 1
  22   13   14 ar
  23   13   36 1
  24   14   37 1
  25   15   16 2
  26   15   17 2
  27   15   18 am
  28   18   38 1
  29   18   39 1
  30   19   20 ar
  31   19   24 ar
  32   20   21 ar
  33   20   40 1
  34   21   22 ar
  35   21   41 1
  36   22   23 ar
  37   22   25 1
  38   23   24 ar
  39   23   42 1
  40   24   43 1
  41   25   26 1
  42   25   44 1
  43   25   45 1
  44   26   27 1
  45   26   46 1
  46   26   47 1
  47   27   28 1
  48   27   48 1
  49   27   49 1
  50   28   29 1
  51   28   50 1
  52   28   51 1
  53   29   52 1
  54   29   53 1
  55   29   54 1
  56   30   55 1
  57   30   56 1
  58   30   57 1
  59   31   32 1
  60   31   58 1
  61   31   59 1
  62   32   60 1
  63   32   61 1
  64   32   62 1

#	End of record

