#	Name: ASD08150656
#	Creating user name:	WinNT
#	Creation time:	15. 06. 2019 21:16

#	Modifying user name:	WinNT
#	Modification time:	15. 06. 2019 21:16

#	Program:	/corina/corina34_cracker 3.40 0067  02.08.2006

@<TRIPOS>MOLECULE
ASD08150656
  57   62    0    0    0
SMALL
NO_CHARGES


@<TRIPOS>ATOM
   1 N1             0.2605     1.8530    -0.5479 N.am    
   2 C2             0.4016     0.7580    -1.3198 C.2     
   3 C3             1.6163     0.0432    -1.3466 C.2     
   4 C4             2.6664     0.4520    -0.5898 C.2     
   5 C5             2.5215     1.6039     0.2231 C.ar    
   6 C6             3.5793     2.0709     1.0267 C.ar    
   7 N7             3.4428     3.1338     1.7756 N.ar    
   8 C8             2.3007     3.8363     1.8234 C.ar    
   9 C9             1.1840     3.4393     1.0473 C.ar    
  10 C10            1.2987     2.2926     0.2268 C.ar    
  11 C11           -0.0020     4.1777     1.1049 C.ar    
  12 C12           -0.0720     5.2933     1.9234 C.ar    
  13 C13            1.0373     5.6802     2.6882 C.ar    
  14 C14            2.1977     4.9724     2.6427 C.ar    
  15 O15           -0.5340     0.3799    -2.0041 O.2     
  16 C16           -1.3263     6.0822     1.9905 C.ar    
  17 C17           -0.9550     2.5490    -0.5429 C.ar    
  18 C18           -1.1163     3.6707    -1.3461 C.ar    
  19 C19           -2.3140     4.3565    -1.3411 C.ar    
  20 C20           -3.3580     3.9251    -0.5329 C.ar    
  21 C21           -3.1965     2.8037     0.2707 C.ar    
  22 C22           -2.0009     2.1142     0.2611 C.ar    
  23 N23           -4.5729     4.6208    -0.5278 N.am    
  24 C24           -1.3564     7.3120     2.6568 C.ar    
  25 C25           -2.5479     8.0108     2.6921 C.ar    
  26 C26           -3.6686     7.4739     2.0699 C.ar    
  27 N27           -3.6071     6.3078     1.4477 N.ar    
  28 C28           -2.4895     5.6121     1.3862 C.ar    
  29 C29           -5.6813     4.2069     0.1101 C.2     
  30 C30           -6.8058     5.1956    -0.1058 C.3     
  31 C31           -6.3346     6.0498    -1.3056 C.3     
  32 C32           -4.7981     5.8989    -1.2131 C.3     
  33 O33           -5.7675     3.1886     0.7634 O.2     
  34 O34           -4.8417     8.1544     2.1011 O.3     
  35 C35           -5.9876     7.4975     1.5557 C.3     
  36 H36            1.7116    -0.8328    -1.9711 H       
  37 H37            3.5987    -0.0928    -0.6066 H       
  38 H38            4.5204     1.5411     1.0246 H       
  39 H39           -0.8569     3.8808     0.5156 H       
  40 H40            0.9697     6.5524     3.3216 H       
  41 H41            3.0423     5.2844     3.2391 H       
  42 H42           -0.3044     4.0064    -1.9743 H       
  43 H43           -2.4393     5.2289    -1.9654 H       
  44 H44           -4.0082     2.4685     0.8993 H       
  45 H45           -1.8770     1.2395     0.8822 H       
  46 H46           -0.4700     7.7053     3.1322 H       
  47 H47           -2.6077     8.9632     3.1979 H       
  48 H48           -2.4776     4.6641     0.8690 H       
  49 H49           -7.7312     4.6737    -0.3492 H       
  50 H50           -6.9398     5.8198     0.7776 H       
  51 H51           -6.7143     5.6467    -2.2444 H       
  52 H52           -6.6297     7.0918    -1.1824 H       
  53 H53           -4.3722     6.7219    -0.6391 H       
  54 H54           -4.3614     5.8686    -2.2114 H       
  55 H55           -5.7766     7.1894     0.5317 H       
  56 H56           -6.2241     6.6201     2.1577 H       
  57 H57           -6.8359     8.1818     1.5619 H       
@<TRIPOS>BOND
   1    1    2 am
   2    1   10 1
   3    1   17 1
   4    2    3 1
   5    2   15 2
   6    3    4 2
   7    3   36 1
   8    4    5 1
   9    4   37 1
  10    5    6 ar
  11    5   10 ar
  12    6    7 ar
  13    6   38 1
  14    7    8 ar
  15    8    9 ar
  16    8   14 ar
  17    9   10 ar
  18    9   11 ar
  19   11   12 ar
  20   11   39 1
  21   12   13 ar
  22   12   16 1
  23   13   14 ar
  24   13   40 1
  25   14   41 1
  26   16   24 ar
  27   16   28 ar
  28   17   18 ar
  29   17   22 ar
  30   18   19 ar
  31   18   42 1
  32   19   20 ar
  33   19   43 1
  34   20   21 ar
  35   20   23 1
  36   21   22 ar
  37   21   44 1
  38   22   45 1
  39   23   29 am
  40   23   32 1
  41   24   25 ar
  42   24   46 1
  43   25   26 ar
  44   25   47 1
  45   26   27 ar
  46   26   34 1
  47   27   28 ar
  48   28   48 1
  49   29   30 1
  50   29   33 2
  51   30   31 1
  52   30   49 1
  53   30   50 1
  54   31   32 1
  55   31   51 1
  56   31   52 1
  57   32   53 1
  58   32   54 1
  59   34   35 1
  60   35   55 1
  61   35   56 1
  62   35   57 1

#	End of record

