#	Name: ASD03240503
#	Creating user name:	WinNT
#	Creation time:	15. 06. 2019 20:35

#	Modifying user name:	WinNT
#	Modification time:	15. 06. 2019 20:35

#	Program:	/corina/corina34_cracker 3.40 0067  02.08.2006

@<TRIPOS>MOLECULE
ASD03240503
  43   45    0    0    0
SMALL
NO_CHARGES


@<TRIPOS>ATOM
   1 C1            -0.0903     1.3994     0.3171 C.ar    
   2 C2            -0.0288     0.0451     0.0428 C.ar    
   3 C3             1.0657     2.1530     0.3481 C.ar    
   4 C4             2.2958     1.5472     0.1024 C.ar    
   5 C5             2.3521     0.1829    -0.1734 C.ar    
   6 C6             1.1901    -0.5614    -0.2014 C.ar    
   7 C7             3.5426     2.3529     0.1340 C.2     
   8 C8             4.8071     1.8907    -0.0869 C.2     
   9 N9             5.6502     2.9359     0.0328 N.pl3   
  10 N10            4.8946     4.0752     0.3350 N.2     
  11 C11            3.6343     3.7347     0.3913 C.2     
  12 C12           -1.2942    -0.7726     0.0103 C.3     
  13 C13           -1.3628    -1.5543    -1.3031 C.3     
  14 C14           -1.2996    -1.7360     1.1691 C.ar    
  15 C15           -2.2103    -1.5760     2.1968 C.ar    
  16 C16           -2.2152    -2.4597     3.2597 C.ar    
  17 C17           -1.3097    -3.5037     3.2949 C.ar    
  18 C18           -0.3997    -3.6642     2.2668 C.ar    
  19 C19           -0.3976    -2.7830     1.2017 C.ar    
  20 N20           -2.6499    -2.2571    -1.3881 N.3     
  21 C21           -3.7640    -1.3050    -1.4895 C.3     
  22 C22           -2.6607    -3.2018    -2.5130 C.3     
  23 H23           -1.0449     1.8689     0.5030 H       
  24 H24            1.0166     3.2104     0.5621 H       
  25 H25            3.3033    -0.2916    -0.3645 H       
  26 H26            1.2326    -1.6193    -0.4148 H       
  27 H27            5.0827     0.8719    -0.3160 H       
  28 H28            6.6140     2.9041    -0.0720 H       
  29 H29            2.8077     4.3961     0.6050 H       
  30 H30           -2.1568    -0.1103     0.0844 H       
  31 H31           -1.2695    -0.8644    -2.1418 H       
  32 H32           -0.5498    -2.2796    -1.3371 H       
  33 H33           -2.9177    -0.7604     2.1693 H       
  34 H34           -2.9262    -2.3343     4.0629 H       
  35 H35           -1.3131    -4.1937     4.1257 H       
  36 H36            0.3079    -4.4796     2.2944 H       
  37 H37            0.3134    -2.9084     0.3985 H       
  38 H38           -3.6396    -0.6942    -2.3837 H       
  39 H39           -4.7048    -1.8518    -1.5510 H       
  40 H40           -3.7740    -0.6624    -0.6091 H       
  41 H41           -1.8687    -3.9382    -2.3767 H       
  42 H42           -3.6250    -3.7084    -2.5528 H       
  43 H43           -2.4964    -2.6597    -3.4443 H       
@<TRIPOS>BOND
   1    1    2 ar
   2    1    3 ar
   3    1   23 1
   4    2   12 1
   5    2    6 ar
   6    3    4 ar
   7    3   24 1
   8    4    5 ar
   9    4    7 1
  10    5    6 ar
  11    5   25 1
  12    6   26 1
  13    7    8 2
  14    7   11 1
  15    8    9 1
  16    8   27 1
  17    9   10 1
  18    9   28 1
  19   10   11 2
  20   11   29 1
  21   12   13 1
  22   12   14 1
  23   12   30 1
  24   13   20 1
  25   13   31 1
  26   13   32 1
  27   14   15 ar
  28   14   19 ar
  29   15   16 ar
  30   15   33 1
  31   16   17 ar
  32   16   34 1
  33   17   18 ar
  34   17   35 1
  35   18   19 ar
  36   18   36 1
  37   19   37 1
  38   20   21 1
  39   20   22 1
  40   21   38 1
  41   21   39 1
  42   21   40 1
  43   22   41 1
  44   22   42 1
  45   22   43 1

#	End of record

