#	Name: ASD00170549
#	Creating user name:	WinNT
#	Creation time:	15. 06. 2019 18:32

#	Modifying user name:	WinNT
#	Modification time:	15. 06. 2019 18:32

#	Program:	/corina/corina34_cracker 3.40 0067  02.08.2006

@<TRIPOS>MOLECULE
ASD00170549
  49   52    0    0    0
SMALL
NO_CHARGES


@<TRIPOS>ATOM
   1 C1             0.3772     1.7337     0.7068 C.ar    
   2 N2             0.3357     0.3469     0.5433 N.3     
   3 C3            -1.0507    -0.1308     0.4472 C.3     
   4 C4            -1.0510    -1.6395     0.1897 C.3     
   5 N5            -0.3369    -2.3199     1.2791 N.3     
   6 C6             1.0496    -1.8422     1.3752 C.3     
   7 C7             1.0498    -0.3335     1.6327 C.3     
   8 C8            -0.3805    -3.7781     1.1072 C.3     
   9 C9             0.5576    -4.4283     2.0911 C.2     
  10 C10            1.7698    -4.8533     1.7707 C.2     
  11 S11            2.5763    -5.5538     3.1624 S.3     
  12 C12            1.2417    -5.2590     4.1807 C.2     
  13 C13            0.2267    -4.6455     3.4838 C.2     
  14 C14           -1.0519    -4.2629     4.0824 C.2     
  15 O15           -1.1990    -3.1445     4.5413 O.2     
  16 C16           -2.1660    -5.2342     4.1304 C.ar    
  17 C17           -3.3494    -4.9108     4.7967 C.ar    
  18 C18           -4.3848    -5.8206     4.8381 C.ar    
  19 C19           -4.2524    -7.0532     4.2204 C.ar    
  20 C20           -3.0807    -7.3798     3.5579 C.ar    
  21 C21           -2.0406    -6.4759     3.5048 C.ar    
  22 Cl22          -5.5600    -8.1937     4.2773 Cl      
  23 N23            1.1888    -5.5856     5.5206 N.pl3   
  24 C24            1.5973     2.3958     0.8196 C.ar    
  25 C25            1.5868     3.7718     0.9804 C.ar    
  26 C26            0.3761     4.4375     1.0233 C.ar    
  27 N27           -0.7625     3.7813     0.9136 N.ar    
  28 C28           -0.7978     2.4736     0.7535 C.ar    
  29 H29           -1.5731     0.0789     1.3806 H       
  30 H30           -1.5547     0.3784    -0.3743 H       
  31 H31           -2.0784    -2.0009     0.1469 H       
  32 H32           -0.5525    -1.8469    -0.7572 H       
  33 H33            1.5536    -2.3514     2.1966 H       
  34 H34            1.5720    -2.0518     0.4418 H       
  35 H35            2.0773     0.0280     1.6754 H       
  36 H36            0.5513    -0.1261     2.5795 H       
  37 H37           -1.3955    -4.1345     1.2829 H       
  38 H38           -0.0765    -4.0335     0.0921 H       
  39 H39            2.2038    -4.7793     0.7845 H       
  40 H40           -3.4537    -3.9501     5.2790 H       
  41 H41           -5.3007    -5.5716     5.3535 H       
  42 H42           -2.9831    -8.3424     3.0781 H       
  43 H43           -1.1275    -6.7314     2.9876 H       
  44 H44            1.9150    -6.0837     5.9274 H       
  45 H45            0.4255    -5.3170     6.0555 H       
  46 H46            2.5285     1.8500     0.7830 H       
  47 H47            2.5140     4.3181     1.0716 H       
  48 H48            0.3625     5.5101     1.1489 H       
  49 H49           -1.7498     1.9710     0.6673 H       
@<TRIPOS>BOND
   1    1    2 1
   2    1   24 ar
   3    1   28 ar
   4    2    3 1
   5    2    7 1
   6    3    4 1
   7    3   29 1
   8    3   30 1
   9    4    5 1
  10    4   31 1
  11    4   32 1
  12    5    6 1
  13    5    8 1
  14    6    7 1
  15    6   33 1
  16    6   34 1
  17    7   35 1
  18    7   36 1
  19    8    9 1
  20    8   37 1
  21    8   38 1
  22    9   10 2
  23    9   13 1
  24   10   11 1
  25   10   39 1
  26   11   12 1
  27   12   13 2
  28   12   23 1
  29   13   14 1
  30   14   15 2
  31   14   16 1
  32   16   17 ar
  33   16   21 ar
  34   17   18 ar
  35   17   40 1
  36   18   19 ar
  37   18   41 1
  38   19   20 ar
  39   19   22 1
  40   20   21 ar
  41   20   42 1
  42   21   43 1
  43   23   44 1
  44   23   45 1
  45   24   25 ar
  46   24   46 1
  47   25   26 ar
  48   25   47 1
  49   26   27 ar
  50   26   48 1
  51   27   28 ar
  52   28   49 1

#	End of record

