#	Name: ASD01910624
#	Creating user name:	WinNT
#	Creation time:	15. 06. 2019 19:56

#	Modifying user name:	WinNT
#	Modification time:	15. 06. 2019 19:56

#	Program:	/corina/corina34_cracker 3.40 0067  02.08.2006

@<TRIPOS>MOLECULE
ASD01910624
  43   46    0    0    0
SMALL
NO_CHARGES


@<TRIPOS>ATOM
   1 C1            -0.5460     2.2511     0.3279 C.ar    
   2 C2            -0.6673     0.8710     0.3757 C.ar    
   3 C3             0.4643     0.0702     0.3750 C.ar    
   4 C4             1.7173     0.6433     0.3263 C.ar    
   5 C5             1.8452     2.0328     0.2776 C.ar    
   6 C6             0.7021     2.8346     0.2790 C.ar    
   7 C7             3.1854     2.6525     0.2254 C.2     
   8 N8             3.4560     3.9452     0.1765 N.2     
   9 C9             4.7948     4.0312     0.1417 C.2     
  10 N10            5.2682     2.8203     0.1702 N.2     
  11 O11            4.3650     2.0126     0.2241 O.3     
  12 C12            5.6035     5.3014     0.0803 C.3     
  13 C13            6.5157     5.3859     1.3062 C.3     
  14 C14            7.3134     6.6912     1.2614 C.3     
  15 C15            8.1895     6.7068     0.0048 C.3     
  16 N16            7.3360     6.4807    -1.1695 N.am    
  17 C17            6.4601     5.3012    -1.1897 C.3     
  18 C18            7.3561     7.3389    -2.2085 C.2     
  19 C19            6.6229     7.0126    -3.4525 C.ar    
  20 O20            7.9761     8.3808    -2.1241 O.2     
  21 F21           -1.8928     0.3043     0.4235 F       
  22 C22            6.4802     7.9812    -4.4440 C.ar    
  23 C23            5.7923     7.6624    -5.6031 C.ar    
  24 C24            5.2692     6.3826    -5.7315 C.ar    
  25 C25            5.4501     5.4677    -4.7018 C.ar    
  26 N26            6.1120     5.7978    -3.6154 N.ar    
  27 F27            4.5911     6.0309    -6.8459 F       
  28 H28           -1.4310     2.8702     0.3245 H       
  29 H29            0.3642    -1.0044     0.4131 H       
  30 H30            2.5982     0.0186     0.3262 H       
  31 H31            0.7955     3.9099     0.2411 H       
  32 H32            4.9320     6.1599     0.0666 H       
  33 H33            5.9099     5.3614     2.2120 H       
  34 H34            7.2032     4.5400     1.3063 H       
  35 H35            6.6262     7.5369     1.2363 H       
  36 H36            7.9456     6.7617     2.1466 H       
  37 H37            8.6842     7.6740    -0.0838 H       
  38 H38            8.9371     5.9163     0.0708 H       
  39 H39            7.0667     4.3961    -1.2212 H       
  40 H40            5.8138     5.3410    -2.0665 H       
  41 H41            6.9001     8.9673    -4.3103 H       
  42 H42            5.6655     8.3925    -6.3888 H       
  43 H43            5.0450     4.4711    -4.7970 H       
@<TRIPOS>BOND
   1    1    2 ar
   2    1    6 ar
   3    1   28 1
   4    2    3 ar
   5    2   21 1
   6    3    4 ar
   7    3   29 1
   8    4    5 ar
   9    4   30 1
  10    5    6 ar
  11    5    7 1
  12    6   31 1
  13    7    8 2
  14    7   11 1
  15    8    9 1
  16    9   10 2
  17    9   12 1
  18   10   11 1
  19   12   13 1
  20   12   17 1
  21   12   32 1
  22   13   14 1
  23   13   33 1
  24   13   34 1
  25   14   15 1
  26   14   35 1
  27   14   36 1
  28   15   16 1
  29   15   37 1
  30   15   38 1
  31   16   17 1
  32   16   18 am
  33   17   39 1
  34   17   40 1
  35   18   19 1
  36   18   20 2
  37   19   22 ar
  38   19   26 ar
  39   22   23 ar
  40   22   41 1
  41   23   24 ar
  42   23   42 1
  43   24   25 ar
  44   24   27 1
  45   25   26 ar
  46   25   43 1

#	End of record

