#	Name: ASD03730746
#	Creating user name:	WinNT
#	Creation time:	15. 06. 2019 20:44

#	Modifying user name:	WinNT
#	Modification time:	15. 06. 2019 20:44

#	Program:	/corina/corina34_cracker 3.40 0067  02.08.2006

@<TRIPOS>MOLECULE
ASD03730746
  59   65    0    0    0
SMALL
NO_CHARGES


@<TRIPOS>ATOM
   1 C1             1.8820    -0.8619    -2.2327 C.2     
   2 C2             0.9797    -1.1038    -1.0868 C.ar    
   3 C3             1.3651    -0.7266     0.2007 C.ar    
   4 C4             0.5183    -0.9547     1.2655 C.ar    
   5 C5            -0.7106    -1.5564     1.0595 C.ar    
   6 C6            -1.0987    -1.9327    -0.2139 C.ar    
   7 C7            -0.2635    -1.7050    -1.2885 C.ar    
   8 O8             2.9193    -0.2494    -2.0708 O.2     
   9 N9             1.5570    -1.3254    -3.4559 N.am    
  10 C10            2.7035    -0.0720     0.4271 C.3     
  11 O11            0.0080    -2.6962     6.5540 O.3     
  12 C12           -0.1137    -2.7226     7.9884 C.3     
  13 O13            1.2267    -2.4719     8.4503 O.3     
  14 C14            1.8253    -1.7467     7.4600 C.ar    
  15 C15            1.0759    -1.8858     6.2940 C.ar    
  16 C16            2.9669    -0.9655     7.4595 C.ar    
  17 C17            3.3763    -0.3160     6.2988 C.ar    
  18 C18            2.6241    -0.4692     5.1381 C.ar    
  19 C19            1.4820    -1.2425     5.1370 C.ar    
  20 O20            4.4461     0.5038     6.0896 O.3     
  21 C21            3.3264     0.3186     4.0648 C.3     
  22 C22            4.7076     0.5922     4.6756 C.3     
  23 N23            2.8259     0.3154     1.8346 N.am    
  24 C24            3.4258    -0.4425     2.7742 C.2     
  25 C25            2.6042     1.5881     3.7234 C.ar    
  26 C26            2.2110     2.6856     4.4562 C.ar    
  27 C27            1.5434     3.7283     3.8387 C.ar    
  28 C28            1.2715     3.6651     2.4841 C.ar    
  29 C29            1.6624     2.5675     1.7459 C.ar    
  30 C30            2.3353     1.5135     2.3592 C.ar    
  31 O31            3.9445    -1.5264     2.6094 O.2     
  32 C32            2.3985    -0.9997    -4.6100 C.3     
  33 C33            2.2165    -1.9614    -5.7961 C.3     
  34 C34            2.3081    -0.7274    -6.7092 C.3     
  35 C35            1.8096     0.0983    -5.5115 C.3     
  36 H36            0.8153    -0.6633     2.2621 H       
  37 H37           -1.3696    -1.7334     1.8966 H       
  38 H38           -2.0592    -2.4019    -0.3680 H       
  39 H39           -0.5693    -1.9955    -2.2827 H       
  40 H40            0.7660    -1.8746    -3.5720 H       
  41 H41            3.4985    -0.7731     0.1727 H       
  42 H42            2.7856     0.8142    -0.2022 H       
  43 H43           -0.7894    -1.9385     8.3299 H       
  44 H44           -0.4584    -3.7002     8.3255 H       
  45 H45            3.5444    -0.8590     8.3659 H       
  46 H46            0.9030    -1.3467     4.2312 H       
  47 H47            5.0585     1.5889     4.4084 H       
  48 H48            5.4251    -0.1679     4.3664 H       
  49 H49            2.4242     2.7327     5.5139 H       
  50 H50            1.2357     4.5896     4.4129 H       
  51 H51            0.7503     4.4790     2.0020 H       
  52 H52            1.4460     2.5252     0.6887 H       
  53 H53            3.4411    -0.8320    -4.3398 H       
  54 H54            3.0433    -2.6604    -5.9223 H       
  55 H55            1.2418    -2.4489    -5.8173 H       
  56 H56            3.3260    -0.4843    -7.0138 H       
  57 H57            1.6090    -0.7500    -7.5452 H       
  58 H58            0.7237     0.1739    -5.4549 H       
  59 H59            2.3080     1.0621    -5.4079 H       
@<TRIPOS>BOND
   1    1    2 1
   2    1    8 2
   3    1    9 am
   4    2    3 ar
   5    2    7 ar
   6    3    4 ar
   7    3   10 1
   8    4    5 ar
   9    4   36 1
  10    5    6 ar
  11    5   37 1
  12    6    7 ar
  13    6   38 1
  14    7   39 1
  15    9   32 1
  16    9   40 1
  17   10   23 1
  18   10   41 1
  19   10   42 1
  20   11   12 1
  21   11   15 1
  22   12   13 1
  23   12   43 1
  24   12   44 1
  25   13   14 1
  26   14   15 ar
  27   14   16 ar
  28   15   19 ar
  29   16   17 ar
  30   16   45 1
  31   17   18 ar
  32   17   20 1
  33   18   19 ar
  34   18   21 1
  35   19   46 1
  36   20   22 1
  37   21   22 1
  38   21   24 1
  39   21   25 1
  40   22   47 1
  41   22   48 1
  42   23   24 am
  43   23   30 1
  44   24   31 2
  45   25   26 ar
  46   25   30 ar
  47   26   27 ar
  48   26   49 1
  49   27   28 ar
  50   27   50 1
  51   28   29 ar
  52   28   51 1
  53   29   30 ar
  54   29   52 1
  55   32   33 1
  56   32   35 1
  57   32   53 1
  58   33   34 1
  59   33   54 1
  60   33   55 1
  61   34   35 1
  62   34   56 1
  63   34   57 1
  64   35   58 1
  65   35   59 1

#	End of record

