#	Name: ASD03490004
#	Creating user name:	WinNT
#	Creation time:	15. 06. 2019 20:42

#	Modifying user name:	WinNT
#	Modification time:	15. 06. 2019 20:42

#	Program:	/corina/corina34_cracker 3.40 0067  02.08.2006

@<TRIPOS>MOLECULE
ASD03490004
  73   77    0    0    0
SMALL
NO_CHARGES


@<TRIPOS>ATOM
   1 C1            -0.0142     1.3512    -0.0173 C.2     
   2 C2             0.0066    -0.0097    -0.0732 C.2     
   3 C3            -1.3164    -0.4592    -0.0728 C.2     
   4 N4            -2.1087     0.5813    -0.0190 N.2     
   5 N5            -1.3191     1.7376     0.0230 N.pl3   
   6 N6             1.0948     2.1918     0.0013 N.am    
   7 C7             2.3368     1.6699    -0.0382 C.2     
   8 C8             3.5238     2.5698    -0.0183 C.2     
   9 C9             4.8705     2.0031     0.0758 C.ar    
  10 C10            6.0507     2.8631    -0.0389 C.ar    
  11 C11            7.3355     2.2796     0.0571 C.ar    
  12 C12            7.4518     0.8868     0.2599 C.ar    
  13 C13            6.3220     0.0966     0.3644 C.ar    
  14 C14            5.0526     0.6331     0.2822 C.ar    
  15 C15            5.9309     4.2413    -0.2406 C.ar    
  16 C16            7.0551     5.0088    -0.3427 C.ar    
  17 C17            8.3201     4.4375    -0.2491 C.ar    
  18 C18            8.4708     3.0970    -0.0517 C.ar    
  19 O19            8.6786     0.3211     0.3523 O.3     
  20 C20            8.7275    -1.0923     0.5575 C.3     
  21 C21           10.1865    -1.5461     0.6356 C.3     
  22 N22           10.8191    -0.9587     1.8243 N.3     
  23 C23           12.1415    -1.5539     2.0658 C.3     
  24 C24           12.7885    -0.8729     3.2747 C.3     
  25 O25           11.9231    -0.9991     4.4063 O.3     
  26 C26           10.6267    -0.4295     4.2060 C.3     
  27 C27            9.9577    -1.1060     3.0065 C.3     
  28 C28           -1.7569    -1.8994    -0.1258 C.3     
  29 C29           -1.5290    -2.5530     1.2386 C.3     
  30 C30           -3.2437    -1.9652    -0.4810 C.3     
  31 C31           -0.9452    -2.6421    -1.1891 C.3     
  32 O32            2.4882     0.4662    -0.0900 O.2     
  33 O33            3.3743     3.7746    -0.0801 O.2     
  34 C34           -1.7885     3.0566     0.0862 C.ar    
  35 C35           -2.9563     3.4119    -0.5755 C.ar    
  36 C36           -3.4166     4.7125    -0.5110 C.ar    
  37 C37           -2.7154     5.6605     0.2113 C.ar    
  38 C38           -1.5518     5.3099     0.8711 C.ar    
  39 C39           -1.0898     4.0095     0.8154 C.ar    
  40 H40            0.8891    -0.6311    -0.1112 H       
  41 H41            0.9738     3.1534     0.0427 H       
  42 H42            6.4354    -0.9662     0.5190 H       
  43 H43            4.1920    -0.0138     0.3682 H       
  44 H44            4.9543     4.6962    -0.3156 H       
  45 H45            6.9612     6.0734    -0.4986 H       
  46 H46            9.1952     5.0649    -0.3333 H       
  47 H47            9.4587     2.6664     0.0195 H       
  48 H48            8.2189    -1.3420     1.4887 H       
  49 H49            8.2338    -1.5973    -0.2728 H       
  50 H50           10.2257    -2.6333     0.7030 H       
  51 H51           10.7174    -1.2181    -0.2580 H       
  52 H52           12.0300    -2.6197     2.2649 H       
  53 H53           12.7709    -1.4109     1.1874 H       
  54 H54           13.7443    -1.3495     3.4925 H       
  55 H55           12.9490     0.1826     3.0552 H       
  56 H56           10.0190    -0.5853     5.0974 H       
  57 H57           10.7243     0.6389     4.0136 H       
  58 H58            8.9931    -0.6360     2.8149 H       
  59 H59            9.8114    -2.1647     3.2207 H       
  60 H60           -2.1073    -2.0239     1.9961 H       
  61 H61           -1.8476    -3.5947     1.2002 H       
  62 H62           -0.4698    -2.5061     1.4916 H       
  63 H63           -3.4060    -1.4995    -1.4530 H       
  64 H64           -3.5623    -3.0069    -0.5193 H       
  65 H65           -3.8219    -1.4361     0.2765 H       
  66 H66            0.1140    -2.5952    -0.9361 H       
  67 H67           -1.2638    -3.6838    -1.2274 H       
  68 H68           -1.1076    -2.1765    -2.1611 H       
  69 H69           -3.5040     2.6721    -1.1405 H       
  70 H70           -4.3249     4.9894    -1.0255 H       
  71 H71           -3.0772     6.6770     0.2600 H       
  72 H72           -1.0060     6.0527     1.4339 H       
  73 H73           -0.1809     3.7362     1.3308 H       
@<TRIPOS>BOND
   1    1    2 2
   2    1    6 1
   3    1    5 1
   4    2    3 1
   5    2   40 1
   6    3    4 2
   7    3   28 1
   8    4    5 1
   9    5   34 1
  10    6    7 am
  11    6   41 1
  12    7    8 1
  13    7   32 2
  14    8    9 1
  15    8   33 2
  16    9   10 ar
  17    9   14 ar
  18   10   11 ar
  19   10   15 ar
  20   11   12 ar
  21   11   18 ar
  22   12   13 ar
  23   12   19 1
  24   13   14 ar
  25   13   42 1
  26   14   43 1
  27   15   16 ar
  28   15   44 1
  29   16   17 ar
  30   16   45 1
  31   17   18 ar
  32   17   46 1
  33   18   47 1
  34   19   20 1
  35   20   21 1
  36   20   48 1
  37   20   49 1
  38   21   22 1
  39   21   50 1
  40   21   51 1
  41   22   23 1
  42   22   27 1
  43   23   24 1
  44   23   52 1
  45   23   53 1
  46   24   25 1
  47   24   54 1
  48   24   55 1
  49   25   26 1
  50   26   27 1
  51   26   56 1
  52   26   57 1
  53   27   58 1
  54   27   59 1
  55   28   29 1
  56   28   30 1
  57   28   31 1
  58   29   60 1
  59   29   61 1
  60   29   62 1
  61   30   63 1
  62   30   64 1
  63   30   65 1
  64   31   66 1
  65   31   67 1
  66   31   68 1
  67   34   35 ar
  68   34   39 ar
  69   35   36 ar
  70   35   69 1
  71   36   37 ar
  72   36   70 1
  73   37   38 ar
  74   37   71 1
  75   38   39 ar
  76   38   72 1
  77   39   73 1

#	End of record

