#	Name: ASD03930204
#	Creating user name:	WinNT
#	Creation time:	15. 06. 2019 20:47

#	Modifying user name:	WinNT
#	Modification time:	15. 06. 2019 20:47

#	Program:	/corina/corina34_cracker 3.40 0067  02.08.2006

@<TRIPOS>MOLECULE
ASD03930204
  57   59    0    0    0
SMALL
NO_CHARGES


@<TRIPOS>ATOM
   1 S1            -0.0776     4.0231    -0.9961 S.o2    
   2 N2            -0.7569     2.5387    -1.3322 N.am    
   3 C3            -0.4954     1.9084    -2.6225 C.3     
   4 C4             0.9728     1.5709    -2.8333 C.3     
   5 O5             1.7773     2.7557    -2.8726 O.3     
   6 C6             2.3626     3.1101    -1.7006 C.ar    
   7 C7             1.6329     3.6772    -0.6649 C.ar    
   8 C8             3.7223     2.8873    -1.5121 C.ar    
   9 C9             4.3089     3.1883    -0.2991 C.ar    
  10 C10            3.5557     3.7133     0.7406 C.ar    
  11 C11            2.2002     3.9641     0.5486 C.ar    
  12 C12           -1.5394     1.9263    -0.4216 C.2     
  13 O13           -2.0315     0.8441    -0.6730 O.2     
  14 O14           -1.7757     2.5136     0.7666 O.3     
  15 O15            4.1379     3.9817     1.9396 O.3     
  16 C16            3.3389     4.3927     2.9590 C.ar    
  17 C17            3.1154     5.7446     3.1615 C.ar    
  18 C18            2.2939     6.1620     4.2093 C.ar    
  19 C19            1.7027     5.2134     5.0467 C.ar    
  20 C20            1.9323     3.8696     4.8357 C.ar    
  21 C21            2.7424     3.4571     3.7937 C.ar    
  22 C22            2.0507     7.6021     4.4323 C.2     
  23 O23            2.5664     8.4252     3.7029 O.2     
  24 O24            1.2572     8.0023     5.4446 O.3     
  25 C25            1.0630     9.4324     5.6042 C.3     
  26 C26            0.1394     9.6918     6.7961 C.3     
  27 O27           -0.1178     4.7746    -2.2014 O.2     
  28 O28           -0.6498     4.4684     0.2260 O.2     
  29 C29           -2.6277     1.7965     1.6985 C.3     
  30 C30           -1.9968     0.4420     2.0276 C.3     
  31 C31           -2.7799     2.6138     2.9829 C.3     
  32 C32           -4.0040     1.5781     1.0668 C.3     
  33 H33           -1.0794     0.9905    -2.6892 H       
  34 H34           -0.8171     2.5844    -3.4147 H       
  35 H35            1.3139     0.9347    -2.0165 H       
  36 H36            1.0839     1.0324    -3.7744 H       
  37 H37            4.3190     2.4786    -2.3142 H       
  38 H38            5.3652     3.0129    -0.1582 H       
  39 H39            1.6029     4.3799     1.3466 H       
  40 H40            3.5757     6.4733     2.5107 H       
  41 H41            1.0664     5.5318     5.8591 H       
  42 H42            1.4745     3.1371     5.4840 H       
  43 H43            2.9151     2.4035     3.6310 H       
  44 H44            2.0258     9.9125     5.7794 H       
  45 H45            0.6125     9.8411     4.6997 H       
  46 H46           -0.8234     9.2117     6.6209 H       
  47 H47            0.5899     9.2831     7.7006 H       
  48 H48           -0.0063    10.7654     6.9159 H       
  49 H49           -1.0163     0.5976     2.4776 H       
  50 H50           -2.6363    -0.0963     2.7272 H       
  51 H51           -1.8883    -0.1402     1.1126 H       
  52 H52           -3.2293     3.5787     2.7484 H       
  53 H53           -3.4194     2.0755     3.6824 H       
  54 H54           -1.7994     2.7694     3.4329 H       
  55 H55           -3.8955     0.9958     0.1518 H       
  56 H56           -4.6435     1.0398     1.7664 H       
  57 H57           -4.4534     2.5430     0.8324 H       
@<TRIPOS>BOND
   1    1    2 am
   2    1    7 1
   3    1   27 2
   4    1   28 2
   5    2    3 1
   6    2   12 am
   7    3    4 1
   8    3   33 1
   9    3   34 1
  10    4    5 1
  11    4   35 1
  12    4   36 1
  13    5    6 1
  14    6    7 ar
  15    6    8 ar
  16    7   11 ar
  17    8    9 ar
  18    8   37 1
  19    9   10 ar
  20    9   38 1
  21   10   11 ar
  22   10   15 1
  23   11   39 1
  24   12   13 2
  25   12   14 1
  26   14   29 1
  27   15   16 1
  28   16   17 ar
  29   16   21 ar
  30   17   18 ar
  31   17   40 1
  32   18   19 ar
  33   18   22 1
  34   19   20 ar
  35   19   41 1
  36   20   21 ar
  37   20   42 1
  38   21   43 1
  39   22   23 2
  40   22   24 1
  41   24   25 1
  42   25   26 1
  43   25   44 1
  44   25   45 1
  45   26   46 1
  46   26   47 1
  47   26   48 1
  48   29   30 1
  49   29   32 1
  50   29   31 1
  51   30   49 1
  52   30   50 1
  53   30   51 1
  54   31   52 1
  55   31   53 1
  56   31   54 1
  57   32   55 1
  58   32   56 1
  59   32   57 1

#	End of record

