#	Name: ASD01910268
#	Creating user name:	WinNT
#	Creation time:	15. 06. 2019 19:55

#	Modifying user name:	WinNT
#	Modification time:	15. 06. 2019 19:55

#	Program:	/corina/corina34_cracker 3.40 0067  02.08.2006

@<TRIPOS>MOLECULE
ASD01910268
  44   47    0    0    0
SMALL
NO_CHARGES


@<TRIPOS>ATOM
   1 C1            -0.6184     2.1611    -0.3953 C.2     
   2 C2             0.6036     3.0431    -0.3940 C.3     
   3 C3             1.0837     3.2485     1.0445 C.3     
   4 C4             2.3051     4.1706     1.0497 C.3     
   5 C5             3.4370     3.5167     0.2509 C.3     
   6 N6             2.9381     3.1836    -1.0903 N.am    
   7 C7             1.7162     2.3764    -1.2092 C.3     
   8 C8             3.5889     3.6104    -2.1907 C.2     
   9 O9             3.2058     3.2711    -3.2934 O.2     
  10 O10           -0.6943     0.9090     0.0665 O.3     
  11 N11           -1.8187     0.4791    -0.0815 N.2     
  12 C12           -2.5762     1.3856    -0.6426 C.2     
  13 N13           -1.8070     2.4795    -0.8440 N.2     
  14 C14            4.7678     4.4906    -2.0567 C.ar    
  15 C15            5.8062     4.1434    -1.1905 C.ar    
  16 C16            6.9050     4.9675    -1.0688 C.ar    
  17 C17            6.9809     6.1394    -1.8043 C.ar    
  18 C18            5.9514     6.4906    -2.6678 C.ar    
  19 C19            4.8498     5.6698    -2.8006 C.ar    
  20 F20            8.0597     6.9432    -1.6807 F       
  21 C21           -4.0118     1.2426    -0.9885 C.ar    
  22 C22           -4.6827     0.0499    -0.7156 C.ar    
  23 C23           -6.0212    -0.0762    -1.0404 C.ar    
  24 C24           -6.6924     0.9762    -1.6342 C.ar    
  25 C25           -6.0310     2.1607    -1.9066 C.ar    
  26 C26           -4.6972     2.3008    -1.5821 C.ar    
  27 F27           -4.0265    -0.9790    -0.1360 F       
  28 F28            6.0308     7.6344    -3.3824 F       
  29 H29            0.3562     4.0081    -0.8363 H       
  30 H30            0.2851     3.7003     1.6329 H       
  31 H31            1.3539     2.2856     1.4782 H       
  32 H32            2.0423     5.1251     0.5937 H       
  33 H33            2.6323     4.3352     2.0763 H       
  34 H34            4.2736     4.2105     0.1677 H       
  35 H35            3.7626     2.6073     0.7559 H       
  36 H36            1.9015     1.3740    -0.8232 H       
  37 H37            1.4174     2.3178    -2.2558 H       
  38 H38            5.7488     3.2306    -0.6162 H       
  39 H39            7.7082     4.6992    -0.3985 H       
  40 H40            4.0492     5.9429    -3.4721 H       
  41 H41           -6.5426    -0.9984    -0.8301 H       
  42 H42           -7.7374     0.8734    -1.8869 H       
  43 H43           -6.5610     2.9791    -2.3710 H       
  44 H44           -4.1830     3.2261    -1.7956 H       
@<TRIPOS>BOND
   1    1   10 1
   2    1    2 1
   3    1   13 2
   4    2    3 1
   5    2    7 1
   6    2   29 1
   7    3    4 1
   8    3   30 1
   9    3   31 1
  10    4    5 1
  11    4   32 1
  12    4   33 1
  13    5    6 1
  14    5   34 1
  15    5   35 1
  16    6    7 1
  17    6    8 am
  18    7   36 1
  19    7   37 1
  20    8    9 2
  21    8   14 1
  22   10   11 1
  23   11   12 2
  24   12   13 1
  25   12   21 1
  26   14   15 ar
  27   14   19 ar
  28   15   16 ar
  29   15   38 1
  30   16   17 ar
  31   16   39 1
  32   17   18 ar
  33   17   20 1
  34   18   19 ar
  35   18   28 1
  36   19   40 1
  37   21   22 ar
  38   21   26 ar
  39   22   23 ar
  40   22   27 1
  41   23   24 ar
  42   23   41 1
  43   24   25 ar
  44   24   42 1
  45   25   26 ar
  46   25   43 1
  47   26   44 1

#	End of record

