#	Name: ASD03930237
#	Creating user name:	WinNT
#	Creation time:	15. 06. 2019 20:47

#	Modifying user name:	WinNT
#	Modification time:	15. 06. 2019 20:47

#	Program:	/corina/corina34_cracker 3.40 0067  02.08.2006

@<TRIPOS>MOLECULE
ASD03930237
  44   46    0    0    0
SMALL
NO_CHARGES


@<TRIPOS>ATOM
   1 C1            -0.0187     1.5258     0.0104 C.3     
   2 C2             0.0021    -0.0041     0.0020 C.3     
   3 C3             0.7309    -0.5033     1.2229 C.2     
   4 C4             2.0873    -0.7461     1.3005 C.2     
   5 C5             3.0511    -0.5746     0.2554 C.1     
   6 N6             3.8156    -0.4386    -0.5738 N.1     
   7 C7             2.3456    -1.2144     2.6668 C.2     
   8 C8             1.1116    -1.2151     3.3060 C.2     
   9 C9             0.8636    -1.6078     4.6931 C.2     
  10 O10           -0.3887    -1.5624     5.1935 O.3     
  11 O11            1.7864    -1.9755     5.3954 O.2     
  12 N12            0.1645    -0.7767     2.4091 N.pl3   
  13 C13           -1.2628    -0.6322     2.7059 C.3     
  14 C14            3.6498    -1.6053     3.2443 C.ar    
  15 C15            3.8728    -2.9278     3.6342 C.ar    
  16 C16            5.0869    -3.2914     4.1712 C.ar    
  17 C17            6.0951    -2.3385     4.3265 C.ar    
  18 C18            5.8726    -1.0166     3.9369 C.ar    
  19 C19            4.6607    -0.6534     3.3945 C.ar    
  20 C20            7.4007    -2.7298     4.9051 C.ar    
  21 C21            7.4517    -3.4516     6.0946 C.ar    
  22 C22            8.6711    -3.8144     6.6305 C.ar    
  23 C23            9.8498    -3.4658     5.9925 C.ar    
  24 C24            9.8207    -2.7511     4.8127 C.ar    
  25 C25            8.5980    -2.3795     4.2530 C.ar    
  26 C26            8.5613    -1.6424     3.0258 C.1     
  27 N27            8.5322    -1.0577     2.0523 N.1     
  28 H28            1.0039     1.9031     0.0027 H       
  29 H29           -0.5459     1.8868    -0.8726 H       
  30 H30           -0.5289     1.8773     0.9072 H       
  31 H31           -1.0205    -0.3814     0.0098 H       
  32 H32            0.5123    -0.3556    -0.8948 H       
  33 H33           -0.4533    -1.8402     6.1175 H       
  34 H34           -1.7774    -1.5660     2.4793 H       
  35 H35           -1.3921    -0.3930     3.7614 H       
  36 H36           -1.6810     0.1699     2.0977 H       
  37 H37            3.0926    -3.6650     3.5147 H       
  38 H38            5.2594    -4.3140     4.4727 H       
  39 H39            6.6527    -0.2795     4.0576 H       
  40 H40            4.4902     0.3683     3.0890 H       
  41 H41            6.5370    -3.7274     6.5983 H       
  42 H42            8.7061    -4.3737     7.5538 H       
  43 H43           10.7979    -3.7548     6.4215 H       
  44 H44           10.7440    -2.4824     4.3209 H       
@<TRIPOS>BOND
   1    1    2 1
   2    1   28 1
   3    1   29 1
   4    1   30 1
   5    2    3 1
   6    2   31 1
   7    2   32 1
   8    3   12 1
   9    3    4 2
  10    4    5 1
  11    4    7 1
  12    5    6 3
  13    7    8 2
  14    7   14 1
  15    8    9 1
  16    8   12 1
  17    9   10 1
  18    9   11 2
  19   10   33 1
  20   12   13 1
  21   13   34 1
  22   13   35 1
  23   13   36 1
  24   14   19 ar
  25   14   15 ar
  26   15   16 ar
  27   15   37 1
  28   16   17 ar
  29   16   38 1
  30   17   18 ar
  31   17   20 1
  32   18   19 ar
  33   18   39 1
  34   19   40 1
  35   20   25 ar
  36   20   21 ar
  37   21   22 ar
  38   21   41 1
  39   22   23 ar
  40   22   42 1
  41   23   24 ar
  42   23   43 1
  43   24   25 ar
  44   24   44 1
  45   25   26 1
  46   26   27 3

#	End of record

