#	Name: ASD03092964
#	Creating user name:	WinNT
#	Creation time:	15. 06. 2019 20:33

#	Modifying user name:	WinNT
#	Modification time:	15. 06. 2019 20:33

#	Program:	/corina/corina34_cracker 3.40 0067  02.08.2006

@<TRIPOS>MOLECULE
ASD03092964
  44   46    0    0    0
SMALL
NO_CHARGES


@<TRIPOS>ATOM
   1 F1             0.0485    -0.0067     0.0105 F       
   2 C2             0.0267     1.3441     0.0167 C.ar    
   3 C3            -1.1831     2.0174     0.0362 C.ar    
   4 C4            -1.2042     3.3992     0.0424 C.ar    
   5 C5            -0.0181     4.1092     0.0293 C.ar    
   6 C6            -0.0425     5.6160     0.0367 C.3     
   7 N7            -0.0312     6.0978     1.4201 N.pl3   
   8 C8            -0.0497     7.4559     1.6794 C.ar    
   9 N9             0.0298     8.3186     0.6783 N.ar    
  10 C10            0.0152     9.6215     0.8815 C.ar    
  11 C11           -0.0844    10.1473     2.1571 C.ar    
  12 C12           -0.1705     9.2924     3.2418 C.ar    
  13 C13           -0.1586     7.9133     3.0041 C.ar    
  14 C14           -0.2532     6.9580     4.1227 C.2     
  15 O15           -0.3493     5.7666     3.8984 O.2     
  16 N16           -0.2332     7.4049     5.3941 N.am    
  17 C17           -0.4162     6.5085     6.4543 C.ar    
  18 C18            0.0896     5.2182     6.3683 C.ar    
  19 C19           -0.0909     4.3350     7.4143 C.ar    
  20 C20           -0.7777     4.7364     8.5508 C.ar    
  21 O21           -0.9550     3.8662     9.5804 O.3     
  22 C22           -1.6717     4.3464    10.7196 C.3     
  23 F23           -2.9579     4.7362    10.3311 F       
  24 F24           -1.7616     3.3299    11.6766 F       
  25 F25           -0.9972     5.4433    11.2664 F       
  26 C26           -1.2834     6.0252     8.6375 C.ar    
  27 C27           -1.0987     6.9113     7.5946 C.ar    
  28 C28            1.1904     3.4381     0.0099 C.ar    
  29 C29            1.2140     2.0563     0.0094 C.ar    
  30 H30           -2.1098     1.4629     0.0461 H       
  31 H31           -2.1477     3.9245     0.0573 H       
  32 H32            0.8343     5.9961    -0.4876 H       
  33 H33           -0.9452     5.9672    -0.4630 H       
  34 H34           -0.0108     5.4641     2.1542 H       
  35 H35            0.0827    10.2905     0.0363 H       
  36 H36           -0.0946    11.2170     2.3054 H       
  37 H37           -0.2486     9.6800     4.2468 H       
  38 H38           -0.0920     8.3474     5.5747 H       
  39 H39            0.6238     4.9053     5.4833 H       
  40 H40            0.3025     3.3314     7.3475 H       
  41 H41           -1.8183     6.3369     9.5224 H       
  42 H42           -1.4886     7.9161     7.6641 H       
  43 H43            2.1163     3.9938    -0.0007 H       
  44 H44            2.1583     1.5321    -0.0013 H       
@<TRIPOS>BOND
   1    1    2 1
   2    2   29 ar
   3    2    3 ar
   4    3    4 ar
   5    3   30 1
   6    4    5 ar
   7    4   31 1
   8    5    6 1
   9    5   28 ar
  10    6    7 1
  11    6   32 1
  12    6   33 1
  13    7    8 1
  14    7   34 1
  15    8   13 ar
  16    8    9 ar
  17    9   10 ar
  18   10   11 ar
  19   10   35 1
  20   11   12 ar
  21   11   36 1
  22   12   13 ar
  23   12   37 1
  24   13   14 1
  25   14   15 2
  26   14   16 am
  27   16   17 1
  28   16   38 1
  29   17   27 ar
  30   17   18 ar
  31   18   19 ar
  32   18   39 1
  33   19   20 ar
  34   19   40 1
  35   20   21 1
  36   20   26 ar
  37   21   22 1
  38   22   23 1
  39   22   24 1
  40   22   25 1
  41   26   27 ar
  42   26   41 1
  43   27   42 1
  44   28   29 ar
  45   28   43 1
  46   29   44 1

#	End of record

