#	Name: ASD03731765
#	Creating user name:	WinNT
#	Creation time:	15. 06. 2019 20:46

#	Modifying user name:	WinNT
#	Modification time:	15. 06. 2019 20:46

#	Program:	/corina/corina34_cracker 3.40 0067  02.08.2006

@<TRIPOS>MOLECULE
ASD03731765
  40   41    0    0    0
SMALL
NO_CHARGES


@<TRIPOS>ATOM
   1 C1             0.3760     1.0883     1.9843 C.2     
   2 C2             0.2923    -0.2845     1.4567 C.ar    
   3 C3             1.3791    -0.8406     0.7653 C.ar    
   4 C4             1.2919    -2.1325     0.2723 C.ar    
   5 C5             0.1318    -2.8717     0.4633 C.ar    
   6 C6            -0.9460    -2.3201     1.1485 C.ar    
   7 C7            -0.8685    -1.0403     1.6480 C.ar    
   8 O8             1.3886     1.7419     1.8209 O.2     
   9 N9            -0.6716     1.6220     2.6432 N.am    
  10 S10           -0.5775     3.1653     3.2364 S.o2    
  11 O11           -1.8292     3.3715     3.8767 O.2     
  12 O12            0.6356     3.1830     3.9762 O.2     
  13 C13           -0.4380     4.2100     1.7600 C.3     
  14 O14            0.0491    -4.1373    -0.0208 O.3     
  15 C15           -1.1392    -4.7868     0.0912 C.ar    
  16 C16           -2.0931    -4.6681    -0.9096 C.ar    
  17 C17           -3.3003    -5.3294    -0.7933 C.ar    
  18 C18           -3.5588    -6.1086     0.3193 C.ar    
  19 C19           -2.6102    -6.2281     1.3182 C.ar    
  20 C20           -1.3987    -5.5743     1.2037 C.ar    
  21 C21           -4.8769    -6.8284     0.4437 C.3     
  22 O22            2.5114    -0.1157     0.5797 O.3     
  23 C23            3.5199    -0.2184     1.5868 C.3     
  24 F24            2.3351    -2.6729    -0.3946 F       
  25 H25           -1.8453    -2.9004     1.2932 H       
  26 H26           -1.7058    -0.6179     2.1834 H       
  27 H27           -1.4806     1.1022     2.7701 H       
  28 H28           -1.3167     4.0687     1.1306 H       
  29 H29           -0.3702     5.2557     2.0599 H       
  30 H30            0.4566     3.9332     1.2022 H       
  31 H31           -1.8919    -4.0591    -1.7785 H       
  32 H32           -4.0430    -5.2374    -1.5719 H       
  33 H33           -2.8147    -6.8371     2.1864 H       
  34 H34           -0.6563    -5.6719     1.9820 H       
  35 H35           -4.7940    -7.8183    -0.0050 H       
  36 H36           -5.1387    -6.9277     1.4971 H       
  37 H37           -5.6514    -6.2598    -0.0711 H       
  38 H38            4.3690     0.4092     1.3161 H       
  39 H39            3.1138     0.1123     2.5427 H       
  40 H40            3.8462    -1.2551     1.6698 H       
@<TRIPOS>BOND
   1    1    2 1
   2    1    8 2
   3    1    9 am
   4    2    3 ar
   5    2    7 ar
   6    3    4 ar
   7    3   22 1
   8    4    5 ar
   9    4   24 1
  10    5    6 ar
  11    5   14 1
  12    6    7 ar
  13    6   25 1
  14    7   26 1
  15    9   10 am
  16    9   27 1
  17   10   11 2
  18   10   12 2
  19   10   13 1
  20   13   28 1
  21   13   29 1
  22   13   30 1
  23   14   15 1
  24   15   16 ar
  25   15   20 ar
  26   16   17 ar
  27   16   31 1
  28   17   18 ar
  29   17   32 1
  30   18   19 ar
  31   18   21 1
  32   19   20 ar
  33   19   33 1
  34   20   34 1
  35   21   35 1
  36   21   36 1
  37   21   37 1
  38   22   23 1
  39   23   38 1
  40   23   39 1
  41   23   40 1

#	End of record

