#	Name: ASD00170446
#	Creating user name:	WinNT
#	Creation time:	15. 06. 2019 18:32

#	Modifying user name:	WinNT
#	Modification time:	15. 06. 2019 18:32

#	Program:	/corina/corina34_cracker 3.40 0067  02.08.2006

@<TRIPOS>MOLECULE
ASD00170446
  68   70    0    0    0
SMALL
NO_CHARGES


@<TRIPOS>ATOM
   1 C1            -1.9041     0.5075     0.6086 C.2     
   2 C2            -1.9069    -0.8680     0.5265 C.2     
   3 C3            -3.0664    -1.4633     1.1468 C.2     
   4 C4            -3.9002    -0.5582     1.6740 C.2     
   5 S5            -3.2864     1.0676     1.4328 S.3     
   6 C6            -3.3132    -2.9492     1.1951 C.3     
   7 N7            -0.9144     1.3198     0.0985 N.pl3   
   8 C8            -0.8472    -1.6427    -0.1207 C.2     
   9 C9            -0.9751    -2.0263    -1.5430 C.ar    
  10 O10            0.1399    -1.9715     0.5121 O.2     
  11 C11            0.0800    -2.6692    -2.1931 C.ar    
  12 C12           -0.0454    -3.0249    -3.5195 C.ar    
  13 C13           -1.2151    -2.7455    -4.2068 C.ar    
  14 C14           -2.2653    -2.1079    -3.5671 C.ar    
  15 C15           -2.1537    -1.7521    -2.2395 C.ar    
  16 Cl16          -1.3654    -3.1958    -5.8766 Cl      
  17 C17           -5.1628    -0.8844     2.3691 C.ar    
  18 C18           -5.4247    -0.3531     3.6333 C.ar    
  19 C19           -6.6053    -0.6617     4.2766 C.ar    
  20 C20           -7.5289    -1.4957     3.6717 C.ar    
  21 C21           -7.2755    -2.0260     2.4191 C.ar    
  22 C22           -6.1016    -1.7205     1.7620 C.ar    
  23 N23           -2.5639    -3.5338     2.3153 N.3     
  24 C24           -3.0873    -3.0594     3.6033 C.3     
  25 C25           -1.9302    -2.8738     4.5869 C.3     
  26 C26           -0.8858    -1.9380     3.9749 C.3     
  27 C27           -2.4590    -2.2665     5.8879 C.3     
  28 C28           -1.2885    -4.2311     4.8815 C.3     
  29 C29           -2.5784    -5.0012     2.2496 C.3     
  30 C30           -1.4537    -5.4816     1.3302 C.3     
  31 C31           -0.1214    -4.9002     1.8075 C.3     
  32 C32           -1.3847    -7.0097     1.3643 C.3     
  33 C33           -1.7302    -5.0154    -0.1005 C.3     
  34 H34           -4.3781    -3.1363     1.3332 H       
  35 H35           -2.9827    -3.4030     0.2608 H       
  36 H36           -0.1176     0.9272    -0.2912 H       
  37 H37           -1.0147     2.2841     0.1292 H       
  38 H38            0.9927    -2.8872    -1.6584 H       
  39 H39            0.7702    -3.5219    -4.0236 H       
  40 H40           -3.1748    -1.8923    -4.1081 H       
  41 H41           -2.9733    -1.2553    -1.7417 H       
  42 H42           -4.7045     0.2977     4.1067 H       
  43 H43           -6.8090    -0.2517     5.2548 H       
  44 H44           -8.4517    -1.7341     4.1797 H       
  45 H45           -8.0004    -2.6766     1.9527 H       
  46 H46           -5.9050    -2.1351     0.7843 H       
  47 H47           -3.5982    -2.1073     3.4595 H       
  48 H48           -3.7893    -3.7917     4.0022 H       
  49 H49           -1.3181    -0.9458     3.8460 H       
  50 H50           -0.0221    -1.8749     4.6369 H       
  51 H51           -0.5730    -2.3268     3.0058 H       
  52 H52           -3.2031    -2.9332     6.3239 H       
  53 H53           -1.6346    -2.1343     6.5886 H       
  54 H54           -2.9161    -1.2995     5.6780 H       
  55 H55           -0.7449    -4.5747     4.0014 H       
  56 H56           -0.5983    -4.1325     5.7193 H       
  57 H57           -2.0652    -4.9531     5.1336 H       
  58 H58           -2.4310    -5.4112     3.2487 H       
  59 H59           -3.5377    -5.3379     1.8565 H       
  60 H60            0.1409    -5.3364     2.7714 H       
  61 H61            0.6571    -5.1309     1.0803 H       
  62 H62           -0.2130    -3.8190     1.9109 H       
  63 H63           -2.3338    -7.4239     1.0243 H       
  64 H64           -0.5834    -7.3519     0.7094 H       
  65 H65           -1.1876    -7.3418     2.3836 H       
  66 H66           -1.5845    -3.9371    -0.1659 H       
  67 H67           -1.0457    -5.5167    -0.7848 H       
  68 H68           -2.7576    -5.2602    -0.3702 H       
@<TRIPOS>BOND
   1    1    2 2
   2    1    7 1
   3    1    5 1
   4    2    3 1
   5    2    8 1
   6    3    4 2
   7    3    6 1
   8    4    5 1
   9    4   17 1
  10    6   23 1
  11    6   34 1
  12    6   35 1
  13    7   36 1
  14    7   37 1
  15    8    9 1
  16    8   10 2
  17    9   11 ar
  18    9   15 ar
  19   11   12 ar
  20   11   38 1
  21   12   13 ar
  22   12   39 1
  23   13   14 ar
  24   13   16 1
  25   14   15 ar
  26   14   40 1
  27   15   41 1
  28   17   18 ar
  29   17   22 ar
  30   18   19 ar
  31   18   42 1
  32   19   20 ar
  33   19   43 1
  34   20   21 ar
  35   20   44 1
  36   21   22 ar
  37   21   45 1
  38   22   46 1
  39   23   24 1
  40   23   29 1
  41   24   25 1
  42   24   47 1
  43   24   48 1
  44   25   26 1
  45   25   27 1
  46   25   28 1
  47   26   49 1
  48   26   50 1
  49   26   51 1
  50   27   52 1
  51   27   53 1
  52   27   54 1
  53   28   55 1
  54   28   56 1
  55   28   57 1
  56   29   30 1
  57   29   58 1
  58   29   59 1
  59   30   31 1
  60   30   32 1
  61   30   33 1
  62   31   60 1
  63   31   61 1
  64   31   62 1
  65   32   63 1
  66   32   64 1
  67   32   65 1
  68   33   66 1
  69   33   67 1
  70   33   68 1

#	End of record

