#	Name: ASD07931948
#	Creating user name:	WinNT
#	Creation time:	15. 06. 2019 21:13

#	Modifying user name:	WinNT
#	Modification time:	15. 06. 2019 21:13

#	Program:	/corina/corina34_cracker 3.40 0067  02.08.2006

@<TRIPOS>MOLECULE
ASD07931948
  20   20    0    0    0
SMALL
NO_CHARGES


@<TRIPOS>ATOM
   1 C1            -0.0168     1.3906     0.0097 C.ar    
   2 C2             0.0021    -0.0041     0.0020 C.ar    
   3 N3             1.1285     2.0674     0.0024 N.ar    
   4 N4             1.1562    -0.6462    -0.0125 N.ar    
   5 C5             2.2907     0.0311    -0.0196 C.ar    
   6 C6             2.2754     1.4186    -0.0120 C.ar    
   7 C7            -1.3076     2.1156     0.0197 C.2     
   8 O8            -2.3520     1.4960     0.0213 O.2     
   9 O9            -1.3236     3.4622     0.0271 O.3     
  10 C10            3.6053    -0.7055    -0.0362 C.3     
  11 O11            4.6794     0.2370    -0.0413 O.3     
  12 C12            5.9772    -0.3610    -0.0570 C.3     
  13 H13           -0.9251    -0.5578     0.0083 H       
  14 H14            3.2053     1.9678    -0.0183 H       
  15 H15           -2.1903     3.8910     0.0336 H       
  16 H16            3.6796    -1.3362     0.8498 H       
  17 H17            3.6626    -1.3266    -0.9301 H       
  18 H18            6.0837    -0.9749    -0.9513 H       
  19 H19            6.7372     0.4204    -0.0600 H       
  20 H20            6.1007    -0.9844     0.8286 H       
@<TRIPOS>BOND
   1    1    2 ar
   2    1    3 ar
   3    1    7 1
   4    2    4 ar
   5    2   13 1
   6    3    6 ar
   7    4    5 ar
   8    5    6 ar
   9    5   10 1
  10    6   14 1
  11    7    8 2
  12    7    9 1
  13    9   15 1
  14   10   11 1
  15   10   16 1
  16   10   17 1
  17   11   12 1
  18   12   18 1
  19   12   19 1
  20   12   20 1

#	End of record

