#	Name: ASD01940494
#	Creating user name:	WinNT
#	Creation time:	15. 06. 2019 20:12

#	Modifying user name:	WinNT
#	Modification time:	15. 06. 2019 20:12

#	Program:	/corina/corina34_cracker 3.40 0067  02.08.2006

@<TRIPOS>MOLECULE
ASD01940494
  28   29    0    0    0
SMALL
NO_CHARGES


@<TRIPOS>ATOM
   1 C1            -0.7307     0.5582    -2.0411 C.2     
   2 C2            -0.3487    -0.4383    -1.0379 C.ar    
   3 C3            -1.0834    -0.5601     0.1568 C.ar    
   4 C4            -0.7100    -1.5096     1.0985 C.ar    
   5 C5             0.3761    -2.3292     0.8643 C.ar    
   6 C6             1.1041    -2.2151    -0.3085 C.ar    
   7 C7             0.7486    -1.2830    -1.2626 C.ar    
   8 O8            -0.1595     0.5919    -3.1111 O.2     
   9 N9            -1.4780    -1.6431     2.3569 N.pl3   
  10 O10           -1.0969    -2.4082     3.2247 O.2     
  11 O11           -2.4910    -0.9880     2.5246 O.2     
  12 N12           -2.1742     0.2643     0.3921 N.pl3   
  13 C13           -1.9820     1.5439     0.9238 C.ar    
  14 C14           -3.0785     2.3458     1.2247 C.ar    
  15 C15           -2.8842     3.6095     1.7504 C.ar    
  16 C16           -1.6012     4.0761     1.9764 C.ar    
  17 C17           -0.5101     3.2808     1.6775 C.ar    
  18 C18           -0.6972     2.0143     1.1576 C.ar    
  19 I19           -1.3111     5.9921     2.7726 I       
  20 F20           -4.3310     1.8904     1.0032 F       
  21 F21            1.4589    -1.1807    -2.4072 F       
  22 H22           -1.5239     1.2603    -1.8301 H       
  23 H23            0.6605    -3.0651     1.6018 H       
  24 H24            1.9518    -2.8620    -0.4794 H       
  25 H25           -3.0701    -0.0465     0.1879 H       
  26 H26           -3.7343     4.2331     1.9846 H       
  27 H27            0.4898     3.6486     1.8546 H       
  28 H28            0.1558     1.3925     0.9292 H       
@<TRIPOS>BOND
   1    1    2 1
   2    1    8 2
   3    1   22 1
   4    2    3 ar
   5    2    7 ar
   6    3    4 ar
   7    3   12 1
   8    4    5 ar
   9    4    9 1
  10    5    6 ar
  11    5   23 1
  12    6    7 ar
  13    6   24 1
  14    7   21 1
  15    9   10 2
  16    9   11 2
  17   12   13 1
  18   12   25 1
  19   13   14 ar
  20   13   18 ar
  21   14   15 ar
  22   14   20 1
  23   15   16 ar
  24   15   26 1
  25   16   17 ar
  26   16   19 1
  27   17   18 ar
  28   17   27 1
  29   18   28 1

#	End of record

