#	Name: ASD01911185
#	Creating user name:	WinNT
#	Creation time:	15. 06. 2019 19:57

#	Modifying user name:	WinNT
#	Modification time:	15. 06. 2019 19:57

#	Program:	/corina/corina34_cracker 3.40 0067  02.08.2006

@<TRIPOS>MOLECULE
ASD01911185
  43   46    0    0    0
SMALL
NO_CHARGES


@<TRIPOS>ATOM
   1 C1             0.9244     0.7437     0.1946 C.ar    
   2 N2             0.6919    -0.5475     0.1055 N.ar    
   3 C3             1.4830    -1.3508    -0.5953 C.ar    
   4 C4             2.5948    -0.8432    -1.2634 C.ar    
   5 C5             2.8644     0.5145    -1.1870 C.ar    
   6 C6             2.0123     1.3169    -0.4449 C.ar    
   7 C7             1.1812    -2.7993    -0.6670 C.2     
   8 N8             0.1072    -3.2965    -0.0223 N.am    
   9 C9            -0.2325    -4.6457    -0.1667 C.ar    
  10 C10           -1.5560    -5.0471    -0.0420 C.ar    
  11 C11           -1.8887    -6.3800    -0.1855 C.ar    
  12 C12           -0.9045    -7.3150    -0.4532 C.ar    
  13 C13            0.4155    -6.9178    -0.5776 C.ar    
  14 C14            0.7528    -5.5858    -0.4407 C.ar    
  15 C15           -2.6284    -4.0294     0.2501 C.3     
  16 N16           -3.0213    -3.3632    -0.9940 N.am    
  17 C17           -3.9222    -3.8502    -1.8664 C.2     
  18 C18           -4.0486    -2.8989    -2.9912 C.ar    
  19 C19           -3.1620    -1.8403    -2.7021 C.ar    
  20 C20           -2.5330    -2.1814    -1.4115 C.2     
  21 O21           -1.7061    -1.5103    -0.8270 O.2     
  22 O22           -4.5295    -4.8954    -1.7496 O.2     
  23 O23            1.9021    -3.5392    -1.3071 O.2     
  24 Cl24          -1.3260    -8.9894    -0.6330 Cl      
  25 C25           -4.8030    -2.8690    -4.1506 C.ar    
  26 C26           -4.6808    -1.7915    -5.0251 C.ar    
  27 C27           -3.8074    -0.7513    -4.7379 C.ar    
  28 C28           -3.0488    -0.7729    -3.5816 C.ar    
  29 O29           -5.4188    -1.7588    -6.1636 O.3     
  30 H30            0.2560     1.3667     0.7703 H       
  31 H31            3.2380    -1.4980    -1.8326 H       
  32 H32            3.7190     0.9373    -1.6943 H       
  33 H33            2.1942     2.3785    -0.3657 H       
  34 H34           -0.4304    -2.7188     0.5417 H       
  35 H35           -2.9178    -6.6927    -0.0882 H       
  36 H36            1.1819    -7.6497    -0.7859 H       
  37 H37            1.7830    -5.2763    -0.5382 H       
  38 H38           -3.4946    -4.5287     0.6842 H       
  39 H39           -2.2454    -3.2896     0.9531 H       
  40 H40           -5.4830    -3.6771    -4.3766 H       
  41 H41           -3.7192     0.0796    -5.4222 H       
  42 H42           -2.3711     0.0391    -3.3632 H       
  43 H43           -6.2780    -1.3267    -6.0631 H       
@<TRIPOS>BOND
   1    1    2 ar
   2    1    6 ar
   3    1   30 1
   4    2    3 ar
   5    3    4 ar
   6    3    7 1
   7    4    5 ar
   8    4   31 1
   9    5    6 ar
  10    5   32 1
  11    6   33 1
  12    7    8 am
  13    7   23 2
  14    8    9 1
  15    8   34 1
  16    9   10 ar
  17    9   14 ar
  18   10   11 ar
  19   10   15 1
  20   11   12 ar
  21   11   35 1
  22   12   13 ar
  23   12   24 1
  24   13   14 ar
  25   13   36 1
  26   14   37 1
  27   15   16 1
  28   15   38 1
  29   15   39 1
  30   16   17 am
  31   16   20 am
  32   17   18 1
  33   17   22 2
  34   18   19 ar
  35   18   25 ar
  36   19   20 1
  37   19   28 ar
  38   20   21 2
  39   25   26 ar
  40   25   40 1
  41   26   27 ar
  42   26   29 1
  43   27   28 ar
  44   27   41 1
  45   28   42 1
  46   29   43 1

#	End of record

