#	Name: ASD01810731
#	Creating user name:	WinNT
#	Creation time:	15. 06. 2019 19:25

#	Modifying user name:	WinNT
#	Modification time:	15. 06. 2019 19:25

#	Program:	/corina/corina34_cracker 3.40 0067  02.08.2006

@<TRIPOS>MOLECULE
ASD01810731
  63   68    0    0    0
SMALL
NO_CHARGES


@<TRIPOS>ATOM
   1 N1            -0.0178     1.4642     0.0101 N.3     
   2 C2             0.0021    -0.0041     0.0020 C.3     
   3 C3             0.6797    -0.4993    -1.2777 C.3     
   4 C4             2.1079     0.0494    -1.3384 C.3     
   5 C5             2.0615     1.5788    -1.2797 C.3     
   6 C6             1.3439     2.0138     0.0000 C.3     
   7 C7             2.8809    -0.4635    -0.1956 C.1     
   8 N8             3.4775    -0.8594     0.6864 N.1     
   9 C9             2.7602    -0.3856    -2.6253 C.ar    
  10 C10            3.9197     0.2338    -3.0448 C.ar    
  11 C11            4.5138    -0.1764    -4.2355 C.ar    
  12 C12            3.9075    -1.2020    -4.9571 C.ar    
  13 C13            2.7488    -1.7705    -4.4701 C.ar    
  14 N14            2.2186    -1.3578    -3.3342 N.ar    
  15 O15            5.6544     0.4086    -4.6819 O.3     
  16 C16            6.1933    -0.0764    -5.9133 C.3     
  17 C17           -0.7829     1.9741     1.1559 C.3     
  18 C18           -0.5795     3.4626     1.2733 C.2     
  19 C19            0.5053     3.9366     1.9467 C.2     
  20 C20            0.6954     5.3236     2.0565 C.2     
  21 C21           -0.2814     6.2290     1.4419 C.2     
  22 N22           -1.3669     5.6890     0.7694 N.pl3   
  23 C23           -2.2793     6.5159     0.1953 C.2     
  24 C24           -3.3495     6.0166    -0.4674 C.2     
  25 C25           -3.5280     4.6318    -0.5685 C.2     
  26 C26           -2.6162     3.7936     0.0047 C.2     
  27 C27           -1.5089     4.3324     0.6816 C.2     
  28 N28            1.3064     7.4213     2.4235 N.am    
  29 N29            0.1200     7.4509     1.6839 N.2     
  30 C30            1.6674     6.1427     2.6569 C.2     
  31 O31            2.6538     5.7670     3.2751 O.2     
  32 C32            2.0138     8.5500     2.8569 C.ar    
  33 C33            2.4160     9.5154     1.9396 C.ar    
  34 C34            3.1141    10.6279     2.3719 C.ar    
  35 C35            3.4118    10.7804     3.7139 C.ar    
  36 C36            3.0134     9.8219     4.6271 C.ar    
  37 C37            2.3101     8.7106     4.2034 C.ar    
  38 F38            2.1255     9.3661     0.6287 F       
  39 H39            0.5557    -0.3645     0.8690 H       
  40 H40           -1.0198    -0.3814     0.0413 H       
  41 H41            0.7083    -1.5890    -1.2760 H       
  42 H42            0.1187    -0.1507    -2.1448 H       
  43 H43            3.0774     1.9739    -1.2795 H       
  44 H44            1.5223     1.9601    -2.1469 H       
  45 H45            1.2966     3.1021     0.0379 H       
  46 H46            1.8912     1.6439     0.8670 H       
  47 H47            4.3602     1.0262    -2.4579 H       
  48 H48            4.3384    -1.5471    -5.8853 H       
  49 H49            2.2718    -2.5660    -5.0233 H       
  50 H50            6.4269    -1.1366    -5.8152 H       
  51 H51            5.4620     0.0623    -6.7096 H       
  52 H52            7.1021     0.4750    -6.1545 H       
  53 H53           -1.8420     1.7626     1.0087 H       
  54 H54           -0.4385     1.4872     2.0683 H       
  55 H55            1.2123     3.2523     2.3922 H       
  56 H56           -2.1496     7.5856     0.2688 H       
  57 H57           -4.0662     6.6873    -0.9180 H       
  58 H58           -4.3807     4.2300    -1.0956 H       
  59 H59           -2.7422     2.7233    -0.0656 H       
  60 H60            3.4274    11.3782     1.6610 H       
  61 H61            3.9572    11.6502     4.0493 H       
  62 H62            3.2484     9.9442     5.6741 H       
  63 H63            1.9951     7.9653     4.9187 H       
@<TRIPOS>BOND
   1    1    2 1
   2    1    6 1
   3    1   17 1
   4    2    3 1
   5    2   39 1
   6    2   40 1
   7    3    4 1
   8    3   41 1
   9    3   42 1
  10    4    5 1
  11    4    7 1
  12    4    9 1
  13    5    6 1
  14    5   43 1
  15    5   44 1
  16    6   45 1
  17    6   46 1
  18    7    8 3
  19    9   10 ar
  20    9   14 ar
  21   10   11 ar
  22   10   47 1
  23   11   12 ar
  24   11   15 1
  25   12   13 ar
  26   12   48 1
  27   13   14 ar
  28   13   49 1
  29   15   16 1
  30   16   50 1
  31   16   51 1
  32   16   52 1
  33   17   18 1
  34   17   53 1
  35   17   54 1
  36   18   19 1
  37   18   27 2
  38   19   20 2
  39   19   55 1
  40   20   21 1
  41   20   30 1
  42   21   22 1
  43   21   29 2
  44   22   23 1
  45   22   27 1
  46   23   24 2
  47   23   56 1
  48   24   25 1
  49   24   57 1
  50   25   26 2
  51   25   58 1
  52   26   27 1
  53   26   59 1
  54   28   29 1
  55   28   30 am
  56   28   32 1
  57   30   31 2
  58   32   33 ar
  59   32   37 ar
  60   33   34 ar
  61   33   38 1
  62   34   35 ar
  63   34   60 1
  64   35   36 ar
  65   35   61 1
  66   36   37 ar
  67   36   62 1
  68   37   63 1

#	End of record

