#	Name: ASD01940025
#	Creating user name:	WinNT
#	Creation time:	15. 06. 2019 20:11

#	Modifying user name:	WinNT
#	Modification time:	15. 06. 2019 20:11

#	Program:	/corina/corina34_cracker 3.40 0067  02.08.2006

@<TRIPOS>MOLECULE
ASD01940025
  47   49    0    0    0
SMALL
NO_CHARGES


@<TRIPOS>ATOM
   1 C1             0.1273     1.3821     0.1181 C.ar    
   2 C2             0.0734     0.1540    -0.5278 C.ar    
   3 C3            -1.0937    -0.5850    -0.5112 C.ar    
   4 C4            -2.2123    -0.1012     0.1497 C.ar    
   5 C5            -2.1602     1.1277     0.7967 C.ar    
   6 C6            -0.9912     1.8651     0.7855 C.ar    
   7 N7             1.3098     2.1302     0.1016 N.pl3   
   8 C8             1.2537     3.5114     0.0514 C.2     
   9 C9             2.3147     4.4003     0.1497 C.2     
  10 C10            1.9317     5.7396     0.0613 C.2     
  11 N11            0.6653     5.9782    -0.0974 N.2     
  12 S12           -0.1450     4.4911    -0.1537 S.3     
  13 O13            2.8409     6.7459     0.1382 O.3     
  14 C14            3.7112     3.9716     0.3304 C.2     
  15 N15            4.2237     3.8088     1.6006 N.pl3   
  16 N16            4.4654     3.7452    -0.7126 N.2     
  17 C17            5.6136     3.3822     1.7805 C.3     
  18 C18            6.5334     4.6036     1.7246 C.3     
  19 C19            5.7637     2.6924     3.1380 C.3     
  20 O20            5.5202     3.6374     4.1819 O.3     
  21 O21           -3.3611    -0.8292     0.1646 O.3     
  22 C22           -4.3425    -0.4903    -0.7122 C.ar    
  23 C23           -5.5749    -1.1277    -0.6570 C.ar    
  24 C24           -6.5718    -0.7809    -1.5498 C.ar    
  25 C25           -6.3426     0.1993    -2.4972 C.ar    
  26 C26           -5.1151     0.8361    -2.5545 C.ar    
  27 C27           -4.1168     0.4969    -1.6603 C.ar    
  28 Cl28          -5.8633    -2.3595     0.5318 Cl      
  29 Cl29          -4.8309     2.0661    -3.7462 Cl      
  30 F30           -3.2504     1.5992     1.4404 F       
  31 H31            0.9440    -0.2234    -1.0435 H       
  32 H32           -1.1349    -1.5400    -1.0138 H       
  33 H33           -0.9498     2.8200     1.2884 H       
  34 H34            2.1688     1.6802     0.1254 H       
  35 H35            3.2091     7.0095    -0.7162 H       
  36 H36            3.6639     3.9769     2.3747 H       
  37 H37            5.3857     3.4627    -0.5935 H       
  38 H38            5.8855     2.6859     0.9872 H       
  39 H39            7.5675     4.2861     1.8584 H       
  40 H40            6.4264     5.0949     0.7575 H       
  41 H41            6.2614     5.2998     2.5179 H       
  42 H42            5.0454     1.8760     3.2121 H       
  43 H43            6.7747     2.2967     3.2346 H       
  44 H44            5.5983     3.2686     5.0724 H       
  45 H45           -7.5305    -1.2764    -1.5072 H       
  46 H46           -7.1225     0.4682    -3.1942 H       
  47 H47           -3.1591     0.9941    -1.7053 H       
@<TRIPOS>BOND
   1    1    2 ar
   2    1    7 1
   3    1    6 ar
   4    2    3 ar
   5    2   31 1
   6    3    4 ar
   7    3   32 1
   8    4    5 ar
   9    4   21 1
  10    5    6 ar
  11    5   30 1
  12    6   33 1
  13    7    8 1
  14    7   34 1
  15    8    9 2
  16    8   12 1
  17    9   10 1
  18    9   14 1
  19   10   11 2
  20   10   13 1
  21   11   12 1
  22   13   35 1
  23   14   15 1
  24   14   16 2
  25   15   17 1
  26   15   36 1
  27   16   37 1
  28   17   18 1
  29   17   19 1
  30   17   38 1
  31   18   39 1
  32   18   40 1
  33   18   41 1
  34   19   20 1
  35   19   42 1
  36   19   43 1
  37   20   44 1
  38   21   22 1
  39   22   23 ar
  40   22   27 ar
  41   23   24 ar
  42   23   28 1
  43   24   25 ar
  44   24   45 1
  45   25   26 ar
  46   25   46 1
  47   26   27 ar
  48   26   29 1
  49   27   47 1

#	End of record

