#	Name: ASD05300010
#	Creating user name:	WinNT
#	Creation time:	15. 06. 2019 20:58

#	Modifying user name:	WinNT
#	Modification time:	15. 06. 2019 20:58

#	Program:	/corina/corina34_cracker 3.40 0067  02.08.2006

@<TRIPOS>MOLECULE
ASD05300010
  36   38    0    0    0
SMALL
NO_CHARGES


@<TRIPOS>ATOM
   1 O1            -0.0851     0.2274    -0.5109 O.2     
   2 C2            -0.2065     1.4274    -0.3838 C.2     
   3 N3             0.7526     2.2544    -0.8451 N.am    
   4 C4             1.9390     1.7540    -1.2554 C.2     
   5 C5             1.9737     0.8714    -2.3367 C.2     
   6 C6             3.1920     0.3776    -2.7994 C.2     
   7 C7             4.3799     0.7749    -2.1864 C.2     
   8 C8             4.3450     1.6486    -1.1019 C.2     
   9 C9             3.1223     2.1255    -0.6207 C.2     
  10 C10            3.1022     2.9705     0.5762 C.2     
  11 C11            2.3167     3.9771     0.7833 C.2     
  12 C12            1.2971     4.4712    -0.1486 C.2     
  13 C13            0.5287     3.5851    -0.9038 C.2     
  14 C14           -0.4863     4.0742    -1.7309 C.2     
  15 C15           -0.7024     5.4466    -1.8374 C.2     
  16 C16            0.0962     6.3345    -1.1172 C.2     
  17 C17            1.0950     5.8482    -0.2763 C.2     
  18 N18           -1.3030     1.9342     0.2139 N.am    
  19 C19           -2.4128     1.0503     0.5791 C.3     
  20 C20           -1.3852     3.3690     0.4983 C.3     
  21 H21            1.0538     0.5702    -2.8157 H       
  22 H22            3.2161    -0.3116    -3.6306 H       
  23 H23            5.3265     0.4051    -2.5520 H       
  24 H24            5.2662     1.9583    -0.6308 H       
  25 H25            3.8081     2.7305     1.3577 H       
  26 H26            2.4202     4.4986     1.7234 H       
  27 H27           -1.1044     3.3867    -2.2892 H       
  28 H28           -1.4873     5.8223    -2.4772 H       
  29 H29           -0.0581     7.3992    -1.2117 H       
  30 H30            1.7127     6.5370     0.2807 H       
  31 H31           -2.2593     0.6732     1.5902 H       
  32 H32           -3.3493     1.6065     0.5370 H       
  33 H33           -2.4555     0.2136    -0.1182 H       
  34 H34           -0.3822     3.7669     0.6520 H       
  35 H35           -1.8538     3.8798    -0.3428 H       
  36 H36           -1.9808     3.5276     1.3973 H       
@<TRIPOS>BOND
   1    1    2 2
   2    2    3 am
   3    2   18 am
   4    3    4 1
   5    3   13 1
   6    4    5 2
   7    4    9 1
   8    5    6 1
   9    5   21 1
  10    6    7 2
  11    6   22 1
  12    7    8 1
  13    7   23 1
  14    8    9 2
  15    8   24 1
  16    9   10 1
  17   10   11 2
  18   10   25 1
  19   11   12 1
  20   11   26 1
  21   12   13 2
  22   12   17 1
  23   13   14 1
  24   14   15 2
  25   14   27 1
  26   15   16 1
  27   15   28 1
  28   16   17 2
  29   16   29 1
  30   17   30 1
  31   18   19 1
  32   18   20 1
  33   19   31 1
  34   19   32 1
  35   19   33 1
  36   20   34 1
  37   20   35 1
  38   20   36 1

#	End of record

