#	Name: ASD01884983
#	Creating user name:	WinNT
#	Creation time:	15. 06. 2019 19:49

#	Modifying user name:	WinNT
#	Modification time:	15. 06. 2019 19:49

#	Program:	/corina/corina34_cracker 3.40 0067  02.08.2006

@<TRIPOS>MOLECULE
ASD01884983
  40   43    0    0    0
SMALL
NO_CHARGES


@<TRIPOS>ATOM
   1 C1            -0.0184     1.5028     0.0103 C.3     
   2 C2             0.0021    -0.0041     0.0020 C.ar    
   3 C3             0.0058    -0.6863    -1.1971 C.ar    
   4 C4             0.0251    -2.0798    -1.2036 C.ar    
   5 C5             0.0407    -2.7778     0.0020 C.ar    
   6 C6             0.0369    -2.0874     1.1969 C.ar    
   7 C7             0.0229    -0.7023     1.1987 C.ar    
   8 F8             0.0249    -0.0302     2.3707 F       
   9 C9             0.0287    -2.8180    -2.4911 C.2     
  10 C10           -1.0767    -2.7393    -3.3651 C.2     
  11 N11           -1.0686    -3.3938    -4.5011 N.2     
  12 C12           -0.0197    -4.1480    -4.8599 C.2     
  13 N13            0.2026    -4.8844    -5.9430 N.2     
  14 C14            1.3975    -5.4613    -5.8583 C.2     
  15 C15            1.9776    -5.0812    -4.6640 C.2     
  16 C16            3.2646    -5.4728    -4.1730 C.1     
  17 C17            4.3197    -5.7938    -3.7706 C.1     
  18 C18            5.6066    -6.1854    -3.2796 C.ar    
  19 C19            6.4277    -7.0384    -4.0338 C.ar    
  20 C20            7.6594    -7.3874    -3.5183 C.ar    
  21 C21            8.0449    -6.8867    -2.2776 C.ar    
  22 N22            9.2847    -7.2347    -1.7538 N.pl3   
  23 N23            7.2476    -6.0833    -1.5892 N.ar    
  24 C24            6.0665    -5.7197    -2.0455 C.ar    
  25 N25            1.0729    -4.2492    -4.0377 N.pl3   
  26 C26            1.1055    -3.5804    -2.8513 C.2     
  27 H27            1.0042     1.8801     0.0026 H       
  28 H28           -0.5455     1.8639    -0.8728 H       
  29 H29           -0.5286     1.8543     0.9071 H       
  30 H30           -0.0067    -0.1413    -2.1294 H       
  31 H31            0.0554    -3.8577     0.0014 H       
  32 H32            0.0489    -2.6278     2.1319 H       
  33 H33           -1.9327    -2.1378    -3.0970 H       
  34 H34            1.8384    -6.1151    -6.5962 H       
  35 H35            6.1033    -7.4126    -4.9936 H       
  36 H36            8.3169    -8.0421    -4.0711 H       
  37 H37            9.8741    -7.8222    -2.2520 H       
  38 H38            9.5603    -6.8899    -0.8900 H       
  39 H39            5.4462    -5.0591    -1.4581 H       
  40 H40            1.9663    -3.6546    -2.2033 H       
@<TRIPOS>BOND
   1    1    2 1
   2    1   27 1
   3    1   28 1
   4    1   29 1
   5    2    7 ar
   6    2    3 ar
   7    3    4 ar
   8    3   30 1
   9    4    5 ar
  10    4    9 1
  11    5    6 ar
  12    5   31 1
  13    6    7 ar
  14    6   32 1
  15    7    8 1
  16    9   26 2
  17    9   10 1
  18   10   11 2
  19   10   33 1
  20   11   12 1
  21   12   25 1
  22   12   13 2
  23   13   14 1
  24   14   15 2
  25   14   34 1
  26   15   16 1
  27   15   25 1
  28   16   17 3
  29   17   18 1
  30   18   24 ar
  31   18   19 ar
  32   19   20 ar
  33   19   35 1
  34   20   21 ar
  35   20   36 1
  36   21   22 1
  37   21   23 ar
  38   22   37 1
  39   22   38 1
  40   23   24 ar
  41   24   39 1
  42   25   26 1
  43   26   40 1

#	End of record

