#	Name: ASD01903173
#	Creating user name:	WinNT
#	Creation time:	15. 06. 2019 19:54

#	Modifying user name:	WinNT
#	Modification time:	15. 06. 2019 19:54

#	Program:	/corina/corina34_cracker 3.40 0067  02.08.2006

@<TRIPOS>MOLECULE
ASD01903173
  41   43    0    0    0
SMALL
NO_CHARGES


@<TRIPOS>ATOM
   1 C1            -0.5207     1.3404     0.1510 C.ar    
   2 C2            -0.3397    -0.0287     0.1339 C.ar    
   3 C3             0.9407    -0.5574     0.0343 C.ar    
   4 C4             2.0362     0.2941    -0.0478 C.ar    
   5 C5             1.8476     1.6632    -0.0301 C.ar    
   6 C6             0.5711     2.1853     0.0691 C.ar    
   7 Cl7            3.6390    -0.3610    -0.1719 Cl      
   8 N8             1.1273    -1.9423     0.0172 N.am    
   9 S9             0.0169    -2.9182    -0.7291 S.o2    
  10 C10           -0.0384    -2.4433    -2.4250 C.ar    
  11 O11            0.5536    -4.2335    -0.6980 O.2     
  12 O12           -1.2484    -2.5818    -0.1768 O.2     
  13 C13            0.8040    -3.0494    -3.3390 C.ar    
  14 C14            0.7632    -2.6795    -4.6690 C.ar    
  15 C15           -0.1252    -1.6977    -5.0882 C.ar    
  16 C16           -0.9700    -1.0909    -4.1677 C.ar    
  17 C17           -0.9280    -1.4694    -2.8401 C.ar    
  18 N18           -0.1688    -1.3205    -6.4341 N.am    
  19 C19            0.1028    -2.2243    -7.3964 C.2     
  20 C20            0.1693    -1.8005    -8.8105 C.ar    
  21 C21           -0.0486    -0.4651    -9.1532 C.ar    
  22 C22            0.0154    -0.0760   -10.4753 C.ar    
  23 C23            0.2944    -1.0061   -11.4610 C.ar    
  24 C24            0.5115    -2.3314   -11.1290 C.ar    
  25 C25            0.4562    -2.7334    -9.8097 C.ar    
  26 I26            0.7854    -4.7409    -9.3089 I       
  27 O27            0.2931    -3.3881    -7.1010 O.2     
  28 H28           -1.5166     1.7518     0.2240 H       
  29 H29           -1.1930    -0.6876     0.1983 H       
  30 H30            2.6980     2.3258    -0.0939 H       
  31 H31            0.4263     3.2555     0.0828 H       
  32 H32            1.9072    -2.3319     0.4425 H       
  33 H33            1.4949    -3.8126    -3.0123 H       
  34 H34            1.4216    -3.1530    -5.3822 H       
  35 H35           -1.6619    -0.3271    -4.4905 H       
  36 H36           -1.5849    -0.9983    -2.1239 H       
  37 H37           -0.3945    -0.4084    -6.6752 H       
  38 H38           -0.2673     0.2620    -8.3852 H       
  39 H39           -0.1531     0.9570   -10.7415 H       
  40 H40            0.3426    -0.6960   -12.4944 H       
  41 H41            0.7289    -3.0523   -11.9033 H       
@<TRIPOS>BOND
   1    1    2 ar
   2    1    6 ar
   3    1   28 1
   4    2    3 ar
   5    2   29 1
   6    3    4 ar
   7    3    8 1
   8    4    5 ar
   9    4    7 1
  10    5    6 ar
  11    5   30 1
  12    6   31 1
  13    8    9 am
  14    8   32 1
  15    9   10 1
  16    9   11 2
  17    9   12 2
  18   10   13 ar
  19   10   17 ar
  20   13   14 ar
  21   13   33 1
  22   14   15 ar
  23   14   34 1
  24   15   16 ar
  25   15   18 1
  26   16   17 ar
  27   16   35 1
  28   17   36 1
  29   18   19 am
  30   18   37 1
  31   19   20 1
  32   19   27 2
  33   20   21 ar
  34   20   25 ar
  35   21   22 ar
  36   21   38 1
  37   22   23 ar
  38   22   39 1
  39   23   24 ar
  40   23   40 1
  41   24   25 ar
  42   24   41 1
  43   25   26 1

#	End of record

