#	Name: ASD04590561
#	Creating user name:	WinNT
#	Creation time:	15. 06. 2019 20:51

#	Modifying user name:	WinNT
#	Modification time:	15. 06. 2019 20:51

#	Program:	/corina/corina34_cracker 3.40 0067  02.08.2006

@<TRIPOS>MOLECULE
ASD04590561
  66   71    0    0    0
SMALL
NO_CHARGES


@<TRIPOS>ATOM
   1 N1             2.2615     1.5391    -0.0683 N.ar    
   2 C2             2.4265     0.2210    -0.0616 C.ar    
   3 C3             1.3304    -0.6092    -0.0579 C.ar    
   4 C4             0.0518    -0.0563    -0.0805 C.ar    
   5 C5            -0.0819     1.3183    -0.0943 C.ar    
   6 C6             1.0675     2.1019    -0.0844 C.ar    
   7 C7             3.8406    -0.3000    -0.0751 C.3     
   8 C8             3.8935    -1.7424     0.4251 C.3     
   9 N9             2.8408    -2.5028    -0.2682 N.am    
  10 C10            1.4498    -2.1109    -0.0155 C.3     
  11 N11            0.9577     3.4896    -0.0917 N.pl3   
  12 C12            2.0932     4.2749     0.0244 C.ar    
  13 N13            1.9753     5.5880    -0.0874 N.ar    
  14 C14            3.0419     6.3749     0.0182 C.ar    
  15 C15            4.2970     5.7774     0.2513 C.ar    
  16 C16            4.3714     4.3925     0.3616 C.ar    
  17 N17            3.2598     3.6842     0.2491 N.ar    
  18 N18            3.2155     7.7349    -0.0528 N.pl3   
  19 C19            4.5484     8.0624     0.1260 C.ar    
  20 C20            5.2727     6.8727     0.3210 C.ar    
  21 C21            5.2380     9.2678     0.1444 C.ar    
  22 N22            6.5406     9.2919     0.3399 N.ar    
  23 C23            7.2500     8.1927     0.5261 C.ar    
  24 C24            6.6498     6.9515     0.5247 C.ar    
  25 C25            2.1412     8.7033    -0.2858 C.3     
  26 C26            1.1016     8.5902     0.8311 C.3     
  27 C27           -0.0204     9.6016     0.5878 C.3     
  28 C28           -0.6854     9.3113    -0.7592 C.3     
  29 C29            0.3542     9.4244    -1.8761 C.3     
  30 C30            1.4762     8.4130    -1.6328 C.3     
  31 C31            3.1427    -3.5178    -1.1019 C.2     
  32 C32            2.0414    -4.3560    -1.6983 C.3     
  33 O33            4.3006    -3.7567    -1.3721 O.2     
  34 C34           -1.8074    10.3227    -1.0026 C.3     
  35 C35            4.7090     0.5781     0.8281 C.3     
  36 H36           -0.8210    -0.6925    -0.0874 H       
  37 H37           -1.0600     1.7760    -0.1124 H       
  38 H38            4.2279    -0.2591    -1.0931 H       
  39 H39            4.8687    -2.1746     0.2009 H       
  40 H40            3.7177    -1.7662     1.5006 H       
  41 H41            1.1440    -2.4715     0.9666 H       
  42 H42            0.8055    -2.5477    -0.7785 H       
  43 H43            0.0863     3.9067    -0.1780 H       
  44 H44            5.3185     3.9050     0.5397 H       
  45 H45            4.7017    10.1936    -0.0031 H       
  46 H46            8.3161     8.2678     0.6817 H       
  47 H47            7.2355     6.0570     0.6771 H       
  48 H48            2.5562     9.7112    -0.2951 H       
  49 H49            0.6865     7.5824     0.8405 H       
  50 H50            1.5753     8.7970     1.7907 H       
  51 H51           -0.7610     9.5210     1.3834 H       
  52 H52            0.3946    10.6094     0.5784 H       
  53 H53           -1.1004     8.3035    -0.7499 H       
  54 H54           -0.1195     9.2176    -2.8357 H       
  55 H55            0.7692    10.4322    -1.8855 H       
  56 H56            2.2168     8.4936    -2.4284 H       
  57 H57            1.0611     7.4052    -1.6234 H       
  58 H58            1.0744    -3.9423    -1.4124 H       
  59 H59            2.1308    -4.3537    -2.7846 H       
  60 H60            2.1226    -5.3785    -1.3293 H       
  61 H61           -1.3923    11.3305    -1.0119 H       
  62 H62           -2.2811    10.1159    -1.9622 H       
  63 H63           -2.5480    10.2421    -0.2069 H       
  64 H64            4.3188     0.5506     1.8455 H       
  65 H65            5.7331     0.2051     0.8215 H       
  66 H66            4.6936     1.6042     0.4608 H       
@<TRIPOS>BOND
   1    1    2 ar
   2    1    6 ar
   3    2    3 ar
   4    2    7 1
   5    3    4 ar
   6    3   10 1
   7    4    5 ar
   8    4   36 1
   9    5    6 ar
  10    5   37 1
  11    6   11 1
  12    7    8 1
  13    7   35 1
  14    7   38 1
  15    8    9 1
  16    8   39 1
  17    8   40 1
  18    9   10 1
  19    9   31 am
  20   10   41 1
  21   10   42 1
  22   11   12 1
  23   11   43 1
  24   12   13 ar
  25   12   17 ar
  26   13   14 ar
  27   14   15 ar
  28   14   18 1
  29   15   16 ar
  30   15   20 1
  31   16   17 ar
  32   16   44 1
  33   18   19 1
  34   18   25 1
  35   19   20 ar
  36   19   21 ar
  37   20   24 ar
  38   21   22 ar
  39   21   45 1
  40   22   23 ar
  41   23   24 ar
  42   23   46 1
  43   24   47 1
  44   25   26 1
  45   25   30 1
  46   25   48 1
  47   26   27 1
  48   26   49 1
  49   26   50 1
  50   27   28 1
  51   27   51 1
  52   27   52 1
  53   28   29 1
  54   28   34 1
  55   28   53 1
  56   29   30 1
  57   29   54 1
  58   29   55 1
  59   30   56 1
  60   30   57 1
  61   31   32 1
  62   31   33 2
  63   32   58 1
  64   32   59 1
  65   32   60 1
  66   34   61 1
  67   34   62 1
  68   34   63 1
  69   35   64 1
  70   35   65 1
  71   35   66 1

#	End of record

