#	Name: ASD01520005
#	Creating user name:	WinNT
#	Creation time:	15. 06. 2019 19:21

#	Modifying user name:	WinNT
#	Modification time:	15. 06. 2019 19:21

#	Program:	/corina/corina34_cracker 3.40 0067  02.08.2006

@<TRIPOS>MOLECULE
ASD01520005
  55   54    0    0    0
SMALL
NO_CHARGES


@<TRIPOS>ATOM
   1 C1             1.9030     1.6618    -1.3127 C.2     
   2 C2             1.6632     0.1821    -1.1576 C.3     
   3 C3             3.0051    -0.5406    -1.0232 C.3     
   4 C4             2.7617    -2.0429    -0.8657 C.3     
   5 C5             4.0834    -2.7547    -0.7332 C.2     
   6 C6             4.3092    -3.5304     0.2980 C.2     
   7 C7             5.6308    -4.2422     0.4304 C.3     
   8 C8             6.2508    -3.9069     1.7625 C.2     
   9 C9             6.5153    -4.8739     2.6344 C.2     
  10 C10            6.0690    -6.2496     2.3650 C.2     
  11 C11            6.4209    -7.2347     3.1842 C.2     
  12 C12            7.1482    -6.9243     4.4671 C.3     
  13 C13            6.4016    -7.5578     5.6427 C.3     
  14 C14            7.0582    -7.1461     6.9352 C.2     
  15 C15            6.3403    -6.6179     7.8953 C.2     
  16 C16            4.8385    -6.5760     7.7775 C.3     
  17 C17            4.2116    -7.2172     9.0172 C.3     
  18 C18            2.6869    -7.1746     8.8975 C.3     
  19 C19            2.0599    -7.8158    10.1372 C.3     
  20 C20            0.5352    -7.7733    10.0176 C.3     
  21 O21            3.0313     2.0940    -1.3155 O.2     
  22 O22            0.8632     2.4990    -1.4534 O.3     
  23 O23            8.4738    -7.4543     4.4034 O.3     
  24 H24            1.0630     0.0028    -0.2656 H       
  25 H25            1.1341    -0.1940    -2.0332 H       
  26 H26            3.6053    -0.3613    -1.9152 H       
  27 H27            3.5342    -0.1645    -0.1476 H       
  28 H28            2.1615    -2.2222     0.0264 H       
  29 H29            2.2326    -2.4190    -1.7412 H       
  30 H30            4.8444    -2.6254    -1.4885 H       
  31 H31            3.5481    -3.6597     1.0533 H       
  32 H32            5.4721    -5.3185     0.3642 H       
  33 H33            6.2972    -3.9232    -0.3710 H       
  34 H34            6.4800    -2.8805     2.0084 H       
  35 H35            7.0580    -4.6501     3.5409 H       
  36 H36            5.4553    -6.4588     1.5013 H       
  37 H37            6.1858    -8.2579     2.9308 H       
  38 H38            7.1951    -5.8442     4.6060 H       
  39 H39            5.3649    -7.2213     5.6385 H       
  40 H40            6.4316    -8.6434     5.5497 H       
  41 H41            8.1205    -7.2865     7.0700 H       
  42 H42            6.8248    -6.2125     8.7713 H       
  43 H43            4.5090    -5.5400     7.6983 H       
  44 H44            4.5284    -7.1249     6.8883 H       
  45 H45            4.5410    -8.2532     9.0964 H       
  46 H46            4.5217    -6.6683     9.9063 H       
  47 H47            2.3574    -6.1387     8.8183 H       
  48 H48            2.3767    -7.7236     8.0084 H       
  49 H49            2.3894    -8.8518    10.2164 H       
  50 H50            2.3701    -7.2669    11.0264 H       
  51 H51            0.2057    -6.7373     9.9383 H       
  52 H52            0.2251    -8.3222     9.1284 H       
  53 H53            0.0886    -8.2300    10.9007 H       
  54 H54            1.0667     3.4394    -1.5497 H       
  55 H55            8.5086    -8.4128     4.2804 H       
@<TRIPOS>BOND
   1    1    2 1
   2    1   21 2
   3    1   22 1
   4    2    3 1
   5    2   24 1
   6    2   25 1
   7    3    4 1
   8    3   26 1
   9    3   27 1
  10    4    5 1
  11    4   28 1
  12    4   29 1
  13    5    6 2
  14    5   30 1
  15    6    7 1
  16    6   31 1
  17    7    8 1
  18    7   32 1
  19    7   33 1
  20    8    9 2
  21    8   34 1
  22    9   10 1
  23    9   35 1
  24   10   11 2
  25   10   36 1
  26   11   12 1
  27   11   37 1
  28   12   13 1
  29   12   23 1
  30   12   38 1
  31   13   14 1
  32   13   39 1
  33   13   40 1
  34   14   15 2
  35   14   41 1
  36   15   16 1
  37   15   42 1
  38   16   17 1
  39   16   43 1
  40   16   44 1
  41   17   18 1
  42   17   45 1
  43   17   46 1
  44   18   19 1
  45   18   47 1
  46   18   48 1
  47   19   20 1
  48   19   49 1
  49   19   50 1
  50   20   51 1
  51   20   52 1
  52   20   53 1
  53   22   54 1
  54   23   55 1

#	End of record

