#	Name: ASD01900693
#	Creating user name:	WinNT
#	Creation time:	15. 06. 2019 19:52

#	Modifying user name:	WinNT
#	Modification time:	15. 06. 2019 19:52

#	Program:	/corina/corina34_cracker 3.40 0067  02.08.2006

@<TRIPOS>MOLECULE
ASD01900693
  35   38    0    0    0
SMALL
NO_CHARGES


@<TRIPOS>ATOM
   1 C1            -0.0183     1.4025     0.1323 C.ar    
   2 C2            -0.0081     0.0176     0.1213 C.ar    
   3 C3             1.1829    -0.6778     0.0625 C.ar    
   4 C4             2.3875     0.0113     0.0134 C.ar    
   5 C5             2.3724     1.4126     0.0292 C.ar    
   6 O6             3.5588    -0.6564    -0.0561 O.3     
   7 C7             4.7334    -0.0515     0.1904 C.2     
   8 C8             4.8724     1.2953     0.2216 C.2     
   9 C9             3.6750     2.1247    -0.0105 C.2     
  10 C10            5.9225    -0.8907     0.4381 C.ar    
  11 C11            7.1644    -0.2827     0.6987 C.ar    
  12 C12            8.2715    -1.0328     0.9294 C.ar    
  13 C13            8.1871    -2.4373     0.9104 C.ar    
  14 C14            6.9412    -3.0624     0.6495 C.ar    
  15 C15            5.8061    -2.2712     0.4180 C.ar    
  16 C16            1.1700     2.1048     0.0864 C.ar    
  17 C17            9.3197    -3.2343     1.1458 C.ar    
  18 C18            9.2076    -4.5909     1.1207 C.ar    
  19 C19            7.9834    -5.2055     0.8639 C.ar    
  20 C20            6.8643    -4.4668     0.6317 C.ar    
  21 N21            3.7558     3.4133    -0.2380 N.2     
  22 O22            2.5974     4.1422    -0.6007 O.3     
  23 H23           -0.9575     1.9342     0.1724 H       
  24 H24           -0.9417    -0.5239     0.1595 H       
  25 H25            1.1779    -1.7578     0.0550 H       
  26 H26            5.8336     1.7496     0.4113 H       
  27 H27            7.2375     0.7947     0.7150 H       
  28 H28            9.2179    -0.5516     1.1272 H       
  29 H29            4.8511    -2.7343     0.2184 H       
  30 H30            1.1640     3.1847     0.0946 H       
  31 H31           10.2755    -2.7728     1.3455 H       
  32 H32           10.0807    -5.2000     1.3021 H       
  33 H33            7.9220    -6.2837     0.8490 H       
  34 H34            5.9221    -4.9563     0.4344 H       
  35 H35            2.7558     5.0848    -0.7477 H       
@<TRIPOS>BOND
   1    1    2 ar
   2    1   16 ar
   3    1   23 1
   4    2    3 ar
   5    2   24 1
   6    3    4 ar
   7    3   25 1
   8    4    5 ar
   9    4    6 1
  10    5   16 ar
  11    5    9 1
  12    6    7 1
  13    7    8 2
  14    7   10 1
  15    8    9 1
  16    8   26 1
  17    9   21 2
  18   10   11 ar
  19   10   15 ar
  20   11   12 ar
  21   11   27 1
  22   12   13 ar
  23   12   28 1
  24   13   14 ar
  25   13   17 ar
  26   14   15 ar
  27   14   20 ar
  28   15   29 1
  29   16   30 1
  30   17   18 ar
  31   17   31 1
  32   18   19 ar
  33   18   32 1
  34   19   20 ar
  35   19   33 1
  36   20   34 1
  37   21   22 1
  38   22   35 1

#	End of record

