#	Name: ASD01230305
#	Creating user name:	WinNT
#	Creation time:	15. 06. 2019 19:14

#	Modifying user name:	WinNT
#	Modification time:	15. 06. 2019 19:14

#	Program:	/corina/corina34_cracker 3.40 0067  02.08.2006

@<TRIPOS>MOLECULE
ASD01230305
  48   51    0    0    0
SMALL
NO_CHARGES


@<TRIPOS>ATOM
   1 S1             0.5415     1.3944     0.8659 S.o2    
   2 N2             0.1958    -0.1035     0.2735 N.am    
   3 C3             1.0536    -0.8910    -0.2418 C.2     
   4 N4             2.3945    -0.6188    -0.3396 N.pl3   
   5 C5             3.0442     0.3452     0.5414 C.3     
   6 C6             2.2901     1.6752     0.4835 C.3     
   7 C7             0.6215    -2.2415    -0.7897 C.3     
   8 C8             1.7468    -3.2354    -0.4914 C.3     
   9 C9             3.0373    -2.8350    -1.1937 C.3     
  10 C10            3.1559    -1.3265    -1.3743 C.3     
  11 C11           -0.6488    -2.6869    -0.1122 C.ar    
  12 C12           -1.7872    -2.9166    -0.8626 C.ar    
  13 C13           -2.9529    -3.3249    -0.2441 C.ar    
  14 C14           -2.9807    -3.5050     1.1314 C.ar    
  15 C15           -1.8367    -3.2743     1.8821 C.ar    
  16 C16           -0.6723    -2.8707     1.2580 C.ar    
  17 O17           -4.1262    -3.9063     1.7424 O.3     
  18 C18           -4.3524    -5.2409     1.8608 C.ar    
  19 C19           -5.5582    -5.6989     2.3728 C.ar    
  20 C20           -5.7857    -7.0560     2.4916 C.ar    
  21 C21           -4.8130    -7.9582     2.1013 C.ar    
  22 C22           -3.6109    -7.5046     1.5909 C.ar    
  23 C23           -3.3805    -6.1482     1.4646 C.ar    
  24 C24           -6.6182    -4.7163     2.7993 C.3     
  25 O25           -0.2792     2.2672     0.1019 O.2     
  26 O26            0.3558     1.2637     2.2686 O.2     
  27 H27            3.0359    -0.0332     1.5635 H       
  28 H28            4.0740     0.4968     0.2180 H       
  29 H29            2.3798     2.1006    -0.5161 H       
  30 H30            2.7150     2.3659     1.2119 H       
  31 H31            0.4639    -2.1718    -1.8660 H       
  32 H32            1.9204    -3.2660     0.5843 H       
  33 H33            1.4475    -4.2265    -0.8321 H       
  34 H34            3.8839    -3.1877    -0.6047 H       
  35 H35            3.0684    -3.3114    -2.1736 H       
  36 H36            2.7698    -1.0510    -2.3557 H       
  37 H37            4.2050    -1.0384    -1.3081 H       
  38 H38           -1.7651    -2.7762    -1.9332 H       
  39 H39           -3.8421    -3.5035    -0.8306 H       
  40 H40           -1.8557    -3.4138     2.9529 H       
  41 H41            0.2195    -2.6950     1.8413 H       
  42 H42           -6.7239    -7.4129     2.8900 H       
  43 H43           -4.9926    -9.0189     2.1957 H       
  44 H44           -2.8529    -8.2113     1.2868 H       
  45 H45           -2.4428    -5.7945     1.0620 H       
  46 H46           -7.2702    -4.4956     1.9541 H       
  47 H47           -7.2069    -5.1459     3.6098 H       
  48 H48           -6.1443    -3.7966     3.1424 H       
@<TRIPOS>BOND
   1    1    2 am
   2    1    6 1
   3    1   25 2
   4    1   26 2
   5    2    3 2
   6    3    4 1
   7    3    7 1
   8    4    5 1
   9    4   10 1
  10    5    6 1
  11    5   27 1
  12    5   28 1
  13    6   29 1
  14    6   30 1
  15    7    8 1
  16    7   11 1
  17    7   31 1
  18    8    9 1
  19    8   32 1
  20    8   33 1
  21    9   10 1
  22    9   34 1
  23    9   35 1
  24   10   36 1
  25   10   37 1
  26   11   12 ar
  27   11   16 ar
  28   12   13 ar
  29   12   38 1
  30   13   14 ar
  31   13   39 1
  32   14   15 ar
  33   14   17 1
  34   15   16 ar
  35   15   40 1
  36   16   41 1
  37   17   18 1
  38   18   19 ar
  39   18   23 ar
  40   19   20 ar
  41   19   24 1
  42   20   21 ar
  43   20   42 1
  44   21   22 ar
  45   21   43 1
  46   22   23 ar
  47   22   44 1
  48   23   45 1
  49   24   46 1
  50   24   47 1
  51   24   48 1

#	End of record

