#	Name: ASD00310119
#	Creating user name:	WinNT
#	Creation time:	15. 06. 2019 18:33

#	Modifying user name:	WinNT
#	Modification time:	15. 06. 2019 18:33

#	Program:	/corina/corina34_cracker 3.40 0067  02.08.2006

@<TRIPOS>MOLECULE
ASD00310119
  43   46    0    0    0
SMALL
NO_CHARGES


@<TRIPOS>ATOM
   1 N1            -0.0163     1.3499     0.0095 N.pl3   
   2 C2             0.0021    -0.0041     0.0020 C.2     
   3 C3             1.2922    -0.4484    -0.0127 C.2     
   4 C4             2.1475     0.7538    -0.0144 C.ar    
   5 C5             3.5229     0.9582    -0.0260 C.ar    
   6 C6             4.0238     2.2542    -0.0235 C.ar    
   7 C7             3.1461     3.3439    -0.0088 C.ar    
   8 C8             1.7849     3.1437     0.0028 C.ar    
   9 C9             1.2694     1.8501    -0.0001 C.ar    
  10 C10            1.7402    -1.8455    -0.0240 C.2     
  11 O11            2.9286    -2.1028    -0.0364 O.2     
  12 O12            0.8342    -2.8442    -0.0208 O.3     
  13 C13            8.2279     2.9097    -0.0589 C.ar    
  14 C14            7.4107     3.5742    -0.9732 C.ar    
  15 C15            6.0498     3.3623    -0.9614 C.ar    
  16 C16            5.4890     2.4827    -0.0358 C.ar    
  17 C17            6.3060     1.8182     0.8785 C.ar    
  18 C18            7.6669     2.0303     0.8671 C.ar    
  19 C19            9.6934     3.1331    -0.0755 C.ar    
  20 C20           10.3702     3.4440     1.1085 C.ar    
  21 C21           11.7398     3.6506     1.0837 C.ar    
  22 C22           12.4338     3.5502    -0.1076 C.ar    
  23 C23           11.7673     3.2428    -1.2803 C.ar    
  24 C24           10.4036     3.0287    -1.2693 C.ar    
  25 O25            9.6870     3.5433     2.2784 O.3     
  26 Br26           3.8358     5.1047    -0.0041 Br      
  27 C27            1.3493    -4.2017    -0.0326 C.3     
  28 H28           -0.8206     1.8921     0.0164 H       
  29 H29           -0.8729    -0.6372     0.0073 H       
  30 H30            4.1976     0.1149    -0.0366 H       
  31 H31            1.1154     3.9910     0.0141 H       
  32 H32            7.8450     4.2554    -1.6900 H       
  33 H33            5.4170     3.8769    -1.6694 H       
  34 H34            5.8716     1.1375     1.5957 H       
  35 H35            8.2996     1.5160     1.5754 H       
  36 H36           12.2658     3.8908     1.9958 H       
  37 H37           13.5014     3.7127    -0.1229 H       
  38 H38           12.3164     3.1665    -2.2072 H       
  39 H39            9.8873     2.7849    -2.1860 H       
  40 H40            9.6214     2.7117     2.7674 H       
  41 H41            1.9504    -4.3544    -0.9290 H       
  42 H42            1.9668    -4.3636     0.8509 H       
  43 H43            0.5174    -4.9060    -0.0285 H       
@<TRIPOS>BOND
   1    1    2 1
   2    1    9 1
   3    1   28 1
   4    2    3 2
   5    2   29 1
   6    3    4 1
   7    3   10 1
   8    4    5 ar
   9    4    9 ar
  10    5    6 ar
  11    5   30 1
  12    6    7 ar
  13    6   16 1
  14    7    8 ar
  15    7   26 1
  16    8    9 ar
  17    8   31 1
  18   10   11 2
  19   10   12 1
  20   12   27 1
  21   13   14 ar
  22   13   18 ar
  23   13   19 1
  24   14   15 ar
  25   14   32 1
  26   15   16 ar
  27   15   33 1
  28   16   17 ar
  29   17   18 ar
  30   17   34 1
  31   18   35 1
  32   19   20 ar
  33   19   24 ar
  34   20   21 ar
  35   20   25 1
  36   21   22 ar
  37   21   36 1
  38   22   23 ar
  39   22   37 1
  40   23   24 ar
  41   23   38 1
  42   24   39 1
  43   25   40 1
  44   27   41 1
  45   27   42 1
  46   27   43 1

#	End of record

