#	Name: ASD08710025
#	Creating user name:	WinNT
#	Creation time:	15. 06. 2019 21:19

#	Modifying user name:	WinNT
#	Modification time:	15. 06. 2019 21:19

#	Program:	/corina/corina34_cracker 3.40 0067  02.08.2006

@<TRIPOS>MOLECULE
ASD08710025
  49   51    0    0    0
SMALL
NO_CHARGES


@<TRIPOS>ATOM
   1 C1             1.6216     2.8093     2.8454 C.ar    
   2 C2             1.3036     1.5625     2.3401 C.ar    
   3 C3             2.9456     3.1818     2.9840 C.ar    
   4 C4             3.9516     2.3075     2.6171 C.ar    
   5 C5             3.6336     1.0606     2.1122 C.ar    
   6 C6             2.3096     0.6883     1.9732 C.ar    
   7 S7             1.9043    -0.9013     1.3301 S.o2    
   8 O8             0.5910    -0.7958     0.7977 O.2     
   9 O9             3.0233    -1.3203     0.5611 O.2     
  10 N10            1.8055    -1.9398     2.6162 N.am    
  11 C11            0.5298    -2.1434     3.3169 C.3     
  12 C12            2.9906    -2.6790     3.0735 C.3     
  13 C13            2.6622    -4.1771     3.0778 C.3     
  14 N14            1.3878    -4.3765     3.7820 N.am    
  15 C15            0.2066    -3.6427     3.3207 C.3     
  16 C16            3.2922     4.5411     3.5345 C.3     
  17 C17            1.3071    -5.2224     4.8282 C.2     
  18 O18            2.2756    -5.8801     5.1537 O.2     
  19 C19            0.0378    -5.3503     5.5812 C.ar    
  20 C20           -1.1725    -5.5704     4.9170 C.ar    
  21 C21           -2.3327    -5.6840     5.6588 C.ar    
  22 N22           -2.3079    -5.5872     6.9730 N.ar    
  23 C23           -1.1888    -5.3800     7.6382 C.ar    
  24 C24            0.0178    -5.2601     6.9765 C.ar    
  25 F25            3.4117     4.4640     4.9263 F       
  26 F26            4.5050     4.9712     2.9855 F       
  27 F27            2.2818     5.4501     3.2029 F       
  28 C28           -1.2255    -5.2786     9.1413 C.3     
  29 C29            2.5374    -4.6796     1.6381 C.3     
  30 H30            0.8356     3.4940     3.1278 H       
  31 H31            0.2692     1.2714     2.2322 H       
  32 H32            4.9860     2.5988     2.7247 H       
  33 H33            4.4195     0.3779     1.8249 H       
  34 H34            0.6145    -1.7848     4.3427 H       
  35 H35           -0.2618    -1.5999     2.8009 H       
  36 H36            3.8238    -2.4890     2.3969 H       
  37 H37            3.2545    -2.3594     4.0816 H       
  38 H38            3.4533    -4.7235     3.5914 H       
  39 H39           -0.6278    -3.8305     3.9964 H       
  40 H40           -0.0551    -3.9668     2.3134 H       
  41 H41           -1.2003    -5.6500     3.8403 H       
  42 H42           -3.2726    -5.8540     5.1548 H       
  43 H43            0.9308    -5.0908     7.5280 H       
  44 H44           -1.0893    -6.2690     9.5757 H       
  45 H45           -0.4260    -4.6200     9.4807 H       
  46 H46           -2.1876    -4.8735     9.4548 H       
  47 H47            3.4790    -4.5168     1.1136 H       
  48 H48            2.3041    -5.7443     1.6438 H       
  49 H49            1.7404    -4.1357     1.1312 H       
@<TRIPOS>BOND
   1    1    2 ar
   2    1    3 ar
   3    1   30 1
   4    2    6 ar
   5    2   31 1
   6    3    4 ar
   7    3   16 1
   8    4    5 ar
   9    4   32 1
  10    5    6 ar
  11    5   33 1
  12    6    7 1
  13    7    8 2
  14    7    9 2
  15    7   10 am
  16   10   11 1
  17   10   12 1
  18   11   15 1
  19   11   34 1
  20   11   35 1
  21   12   13 1
  22   12   36 1
  23   12   37 1
  24   13   14 1
  25   13   29 1
  26   13   38 1
  27   14   15 1
  28   14   17 am
  29   15   39 1
  30   15   40 1
  31   16   25 1
  32   16   26 1
  33   16   27 1
  34   17   18 2
  35   17   19 1
  36   19   20 ar
  37   19   24 ar
  38   20   21 ar
  39   20   41 1
  40   21   22 ar
  41   21   42 1
  42   22   23 ar
  43   23   24 ar
  44   23   28 1
  45   24   43 1
  46   28   44 1
  47   28   45 1
  48   28   46 1
  49   29   47 1
  50   29   48 1
  51   29   49 1

#	End of record

