#	Name: ASD06020138
#	Creating user name:	WinNT
#	Creation time:	15. 06. 2019 21:04

#	Modifying user name:	WinNT
#	Modification time:	15. 06. 2019 21:04

#	Program:	/corina/corina34_cracker 3.40 0067  02.08.2006

@<TRIPOS>MOLECULE
ASD06020138
  41   44    0    0    0
SMALL
NO_CHARGES


@<TRIPOS>ATOM
   1 C1            -0.0141     1.4755    -0.0453 C.2     
   2 C2             0.0054    -0.0048    -0.0429 C.ar    
   3 C3             1.2233    -0.6861    -0.0445 C.ar    
   4 C4             1.2427    -2.0643    -0.0423 C.ar    
   5 C5             0.0420    -2.7794    -0.0385 C.ar    
   6 C6            -1.1771    -2.0962    -0.0369 C.ar    
   7 C7            -1.1941    -0.7179    -0.0334 C.ar    
   8 N8             1.1052     2.1415    -0.0489 N.2     
   9 N9            -1.2165     2.1487    -0.0495 N.pl3   
  10 Cl10          -2.6695    -2.9830    -0.0321 Cl      
  11 Cl11           2.7579    -2.9115    -0.0448 Cl      
  12 C12           -0.6532    -8.0837    -0.0316 C.ar    
  13 C13           -0.3495    -6.7180    -0.0335 C.ar    
  14 C14            0.9892    -6.3086    -0.0375 C.ar    
  15 C15            1.9753    -7.3281    -0.0390 C.ar    
  16 C16            1.5916    -8.6318    -0.0365 C.ar    
  17 N17            0.3152    -8.9830    -0.0331 N.ar    
  18 S18           -1.3678    -5.2824    -0.0318 S.3     
  19 C19            0.0615    -4.2571    -0.0366 C.2     
  20 N20            1.1319    -4.9830    -0.0390 N.2     
  21 N21           -1.9823    -8.4974    -0.0217 N.pl3   
  22 C22           -1.6206   -12.0224    -0.4567 C.ar    
  23 N23           -1.3320   -10.7410    -0.3521 N.ar    
  24 C24           -2.2898    -9.8454    -0.1317 C.ar    
  25 C25           -3.6102   -10.2838    -0.0122 C.ar    
  26 C26           -3.8649   -11.6361    -0.1289 C.ar    
  27 N27           -2.8561   -12.4676    -0.3487 N.ar    
  28 C28           -5.2726   -12.1603    -0.0077 C.3     
  29 H29            2.1511    -0.1332    -0.0478 H       
  30 H30           -2.1361    -0.1897    -0.0273 H       
  31 H31            1.0924     3.1115    -0.0504 H       
  32 H32           -2.0501     1.6527    -0.0509 H       
  33 H33           -1.2293     3.1186    -0.0511 H       
  34 H34            3.0240    -7.0700    -0.0425 H       
  35 H35            2.3485    -9.4022    -0.0377 H       
  36 H36           -2.6933    -7.8430     0.0620 H       
  37 H37           -0.8229   -12.7269    -0.6404 H       
  38 H38           -4.4121    -9.5830     0.1673 H       
  39 H39           -5.7408   -12.1749    -0.9919 H       
  40 H40           -5.2501   -13.1713     0.3991 H       
  41 H41           -5.8451   -11.5137     0.6574 H       
@<TRIPOS>BOND
   1    1    2 1
   2    1    8 2
   3    1    9 1
   4    2    3 ar
   5    2    7 ar
   6    3    4 ar
   7    3   29 1
   8    4    5 ar
   9    4   11 1
  10    5    6 ar
  11    5   19 1
  12    6    7 ar
  13    6   10 1
  14    7   30 1
  15    8   31 1
  16    9   32 1
  17    9   33 1
  18   12   13 ar
  19   12   17 ar
  20   12   21 1
  21   13   14 ar
  22   13   18 1
  23   14   15 ar
  24   14   20 1
  25   15   16 ar
  26   15   34 1
  27   16   17 ar
  28   16   35 1
  29   18   19 1
  30   19   20 2
  31   21   24 1
  32   21   36 1
  33   22   23 ar
  34   22   27 ar
  35   22   37 1
  36   23   24 ar
  37   24   25 ar
  38   25   26 ar
  39   25   38 1
  40   26   27 ar
  41   26   28 1
  42   28   39 1
  43   28   40 1
  44   28   41 1

#	End of record

