#	Name: ASD01478056
#	Creating user name:	WinNT
#	Creation time:	15. 06. 2019 19:21

#	Modifying user name:	WinNT
#	Modification time:	15. 06. 2019 19:21

#	Program:	/corina/corina34_cracker 3.40 0067  02.08.2006

@<TRIPOS>MOLECULE
ASD01478056
  18   18    0    0    0
SMALL
NO_CHARGES


@<TRIPOS>ATOM
   1 C1            -0.0178     1.4627     0.0101 C.3     
   2 C2             0.0021    -0.0041     0.0020 C.3     
   3 O3             0.7080    -0.5354     1.1415 O.3     
   4 C4             2.0971    -0.5175     0.9764 C.3     
   5 O5             2.7173     0.6503     1.5574 O.3     
   6 C6             2.0023     1.8947     1.3734 C.3     
   7 C7             1.4116     2.0433    -0.0004 C.3     
   8 O8            -0.7200     1.9274    -1.1445 O.3     
   9 H9            -0.5365     1.8076     0.9046 H       
  10 H10           -1.0234    -0.3734     0.0156 H       
  11 H11            0.4900    -0.3478    -0.9101 H       
  12 H12            2.5178    -1.4078     1.4438 H       
  13 H13            2.3244    -0.5424    -0.0894 H       
  14 H14            1.1984     1.9480     2.1075 H       
  15 H15            2.6893     2.7222     1.5502 H       
  16 H16            2.0218     1.4995    -0.7216 H       
  17 H17            1.3756     3.0987    -0.2707 H       
  18 H18           -1.6377     1.6266    -1.1943 H       
@<TRIPOS>BOND
   1    1    2 1
   2    1    7 1
   3    1    8 1
   4    1    9 1
   5    2    3 1
   6    2   10 1
   7    2   11 1
   8    3    4 1
   9    4    5 1
  10    4   12 1
  11    4   13 1
  12    5    6 1
  13    6    7 1
  14    6   14 1
  15    6   15 1
  16    7   16 1
  17    7   17 1
  18    8   18 1

#	End of record

