#	Name: ASD06620047
#	Creating user name:	WinNT
#	Creation time:	15. 06. 2019 21:07

#	Modifying user name:	WinNT
#	Modification time:	15. 06. 2019 21:07

#	Program:	/corina/corina34_cracker 3.40 0067  02.08.2006

@<TRIPOS>MOLECULE
ASD06620047
  47   52    0    0    0
SMALL
NO_CHARGES


@<TRIPOS>ATOM
   1 C1            -0.0167     1.3797     0.0096 C.ar    
   2 C2             0.0021    -0.0041     0.0020 C.ar    
   3 C3             1.2349    -0.6673    -0.0134 C.ar    
   4 C4             2.3975     0.0930    -0.0204 C.ar    
   5 C5             2.2923     1.4695    -0.0120 C.ar    
   6 N6             1.1127     2.0628     0.0025 N.ar    
   7 C7            -0.3747    -2.1918    -0.0061 C.2     
   8 N8            -0.9810    -0.9888     0.0062 N.am    
   9 N9             0.9622    -2.0260    -0.0180 N.am    
  10 O10           -0.9476    -3.2652    -0.0058 O.2     
  11 C11           -2.4275    -0.7571     0.0217 C.3     
  12 C12           -3.7446    -1.2480    -3.3256 C.2     
  13 C13           -4.2669    -1.9118    -4.4526 C.2     
  14 C14           -4.5606    -1.1960    -5.5725 C.2     
  15 C15           -4.3399     0.1904    -5.5898 C.2     
  16 C16           -3.8385     0.8126    -4.5011 C.2     
  17 N17           -3.5403     0.1063    -3.3735 N.pl3   
  18 N18           -3.3719    -1.6883    -2.1293 N.2     
  19 C19           -2.9375    -0.6697    -1.3937 C.2     
  20 C20           -3.0295     0.4798    -2.1496 C.2     
  21 C21           -2.6629     1.8030    -1.7430 C.1     
  22 C22           -2.3624     2.8879    -1.4096 C.1     
  23 C23           -1.9856     4.2480    -0.9917 C.3     
  24 C24           -1.4361     4.4250     0.4253 C.3     
  25 C25           -0.4979     4.5349    -0.7783 C.3     
  26 C26            1.9586    -3.0999    -0.0341 C.3     
  27 C27            1.9537    -4.0857     1.1359 C.3     
  28 C28            1.4535    -4.5293    -0.2403 C.3     
  29 H29           -0.9610     1.9037     0.0169 H       
  30 H30            3.3663    -0.3842    -0.0319 H       
  31 H31            3.1894     2.0709    -0.0170 H       
  32 H32           -2.9220    -1.5813     0.5358 H       
  33 H33           -2.6404     0.1762     0.5429 H       
  34 H34           -4.4325    -2.9788    -4.4286 H       
  35 H35           -4.9614    -1.6924    -6.4440 H       
  36 H36           -4.5715     0.7612    -6.4769 H       
  37 H37           -3.6717     1.8794    -4.5240 H       
  38 H38           -2.6003     5.0517    -1.3970 H       
  39 H39           -1.6891     5.3451     0.9519 H       
  40 H40           -1.3536     3.5341     1.0480 H       
  41 H41            0.2018     3.7164    -0.9475 H       
  42 H42           -0.1337     5.5274    -1.0435 H       
  43 H43            2.9237    -2.8392    -0.4685 H       
  44 H44            2.9155    -4.4740     1.4710 H       
  45 H45            1.2091    -3.9353     1.9176 H       
  46 H46            0.3798    -4.6707    -0.3640 H       
  47 H47            2.0862    -5.2093    -0.8106 H       
@<TRIPOS>BOND
   1    1    2 ar
   2    1    6 ar
   3    1   29 1
   4    2    3 ar
   5    2    8 1
   6    3    4 ar
   7    3    9 1
   8    4    5 ar
   9    4   30 1
  10    5    6 ar
  11    5   31 1
  12    7    8 am
  13    7    9 am
  14    7   10 2
  15    8   11 1
  16    9   26 1
  17   11   19 1
  18   11   32 1
  19   11   33 1
  20   12   13 1
  21   12   17 1
  22   12   18 2
  23   13   14 2
  24   13   34 1
  25   14   15 1
  26   14   35 1
  27   15   16 2
  28   15   36 1
  29   16   17 1
  30   16   37 1
  31   17   20 1
  32   18   19 1
  33   19   20 2
  34   20   21 1
  35   21   22 3
  36   22   23 1
  37   23   24 1
  38   23   25 1
  39   23   38 1
  40   24   25 1
  41   24   39 1
  42   24   40 1
  43   25   41 1
  44   25   42 1
  45   26   27 1
  46   26   28 1
  47   26   43 1
  48   27   28 1
  49   27   44 1
  50   27   45 1
  51   28   46 1
  52   28   47 1

#	End of record

