#	Name: ASD01816283
#	Creating user name:	WinNT
#	Creation time:	15. 06. 2019 19:34

#	Modifying user name:	WinNT
#	Modification time:	15. 06. 2019 19:34

#	Program:	/corina/corina34_cracker 3.40 0067  02.08.2006

@<TRIPOS>MOLECULE
ASD01816283
  51   56    0    0    0
SMALL
NO_CHARGES


@<TRIPOS>ATOM
   1 C1            -0.0167     1.3813     0.0096 C.ar    
   2 C2             0.0021    -0.0041     0.0020 C.ar    
   3 C3             1.1984    -0.6909    -0.0131 C.ar    
   4 C4             2.4015     0.0059    -0.0209 C.ar    
   5 C5             2.3790     1.4106    -0.0132 C.ar    
   6 C6             1.1663     2.0916     0.0022 C.ar    
   7 N7             3.6053    -0.6772    -0.0356 N.pl3   
   8 C8             4.7970    -0.0586    -0.0437 C.2     
   9 C9             4.9000     1.3103    -0.0378 C.2     
  10 C10            3.6670     2.1302    -0.0217 C.2     
  11 C11            5.9971     2.2730    -0.0433 C.2     
  12 N12            5.4245     3.4961    -0.0318 N.am    
  13 N13            4.0323     3.3799    -0.0189 N.2     
  14 O14            7.1914     2.0230    -0.0554 O.2     
  15 C15            3.5779    -2.1419    -0.0422 C.3     
  16 C16            3.5549    -2.6375    -1.4652 C.ar    
  17 C17            4.7425    -2.8868    -2.1283 C.ar    
  18 C18            4.7246    -3.3406    -3.4326 C.ar    
  19 C19            3.5127    -3.5470    -4.0778 C.ar    
  20 C20            2.3220    -3.2962    -3.4093 C.ar    
  21 C21            2.3462    -2.8475    -2.1033 C.ar    
  22 N22            3.4913    -4.0071    -5.4018 N.pl3   
  23 C23            2.3862    -4.2484    -6.1428 C.2     
  24 C24            2.7923    -4.6778    -7.3601 C.2     
  25 C25            4.1913    -4.7001    -7.3644 C.2     
  26 N26            4.6111    -4.2927    -6.1936 N.2     
  27 C27            6.1259     4.7074    -0.0316 C.ar    
  28 C28            5.4345     5.9118    -0.0191 C.ar    
  29 C29            6.1291     7.1057    -0.0185 C.ar    
  30 C30            7.5116     7.1031    -0.0302 C.ar    
  31 C31            8.2041     5.9048    -0.0431 C.ar    
  32 C32            7.5149     4.7073    -0.0380 C.ar    
  33 Br33          10.0950     5.9066    -0.0597 Br      
  34 H34           -0.9602     1.9068     0.0170 H       
  35 H35           -0.9288    -0.5516     0.0083 H       
  36 H36            1.2004    -1.7709    -0.0186 H       
  37 H37            1.1506     3.1715     0.0077 H       
  38 H38            5.6983    -0.6536    -0.0548 H       
  39 H39            4.4658    -2.5242     0.4614 H       
  40 H40            2.6862    -2.4910     0.4786 H       
  41 H41            5.6849    -2.7261    -1.6259 H       
  42 H42            5.6524    -3.5345    -3.9503 H       
  43 H43            1.3778    -3.4555    -3.9087 H       
  44 H44            1.4203    -2.6522    -1.5827 H       
  45 H45            1.3631    -4.1217    -5.8207 H       
  46 H46            2.1500    -4.9544    -8.1831 H       
  47 H47            4.8171    -4.9978    -8.1927 H       
  48 H48            4.3545     5.9149    -0.0103 H       
  49 H49            5.5917     8.0424    -0.0092 H       
  50 H50            8.0523     8.0380    -0.0297 H       
  51 H51            8.0555     3.7723    -0.0481 H       
@<TRIPOS>BOND
   1    1    2 ar
   2    1    6 ar
   3    1   34 1
   4    2    3 ar
   5    2   35 1
   6    3    4 ar
   7    3   36 1
   8    4    5 ar
   9    4    7 1
  10    5    6 ar
  11    5   10 1
  12    6   37 1
  13    7    8 1
  14    7   15 1
  15    8    9 2
  16    8   38 1
  17    9   10 1
  18    9   11 1
  19   10   13 2
  20   11   12 am
  21   11   14 2
  22   12   13 1
  23   12   27 1
  24   15   16 1
  25   15   39 1
  26   15   40 1
  27   16   17 ar
  28   16   21 ar
  29   17   18 ar
  30   17   41 1
  31   18   19 ar
  32   18   42 1
  33   19   20 ar
  34   19   22 1
  35   20   21 ar
  36   20   43 1
  37   21   44 1
  38   22   23 1
  39   22   26 1
  40   23   24 2
  41   23   45 1
  42   24   25 1
  43   24   46 1
  44   25   26 2
  45   25   47 1
  46   27   28 ar
  47   27   32 ar
  48   28   29 ar
  49   28   48 1
  50   29   30 ar
  51   29   49 1
  52   30   31 ar
  53   30   50 1
  54   31   32 ar
  55   31   33 1
  56   32   51 1

#	End of record

