#	Name: ASD02198149
#	Creating user name:	WinNT
#	Creation time:	15. 06. 2019 20:18

#	Modifying user name:	WinNT
#	Modification time:	15. 06. 2019 20:18

#	Program:	/corina/corina34_cracker 3.40 0067  02.08.2006

@<TRIPOS>MOLECULE
ASD02198149
  39   41    0    0    0
SMALL
NO_CHARGES


@<TRIPOS>ATOM
   1 C1            -0.0156     1.3782    -0.0247 C.2     
   2 C2             0.0071    -0.0012    -0.0095 C.2     
   3 C3            -1.1791    -0.8005     0.0597 C.1     
   4 S4             1.5646     2.0120    -0.1129 S.3     
   5 C5             2.2782     0.4073    -0.1303 C.2     
   6 C6             1.2869    -0.5462    -0.0684 C.2     
   7 C7             3.6563     0.1367    -0.1978 C.2     
   8 C8             4.6285     1.2535    -0.2606 C.ar    
   9 O9             4.0514    -1.0167    -0.2047 O.2     
  10 N10            1.5374    -1.9087    -0.0646 N.pl3   
  11 N11           -1.1595     2.1396     0.0193 N.pl3   
  12 N12           -2.1200    -1.4346     0.1147 N.1     
  13 C13            5.9928     0.9788    -0.3274 C.ar    
  14 C14           -1.0697     3.5316     0.1321 C.ar    
  15 C15           -1.9771     4.3430    -0.5367 C.ar    
  16 C16           -0.0766     4.1025     0.9175 C.ar    
  17 C17            0.0111     5.4760     1.0285 C.ar    
  18 C18           -0.8925     6.2858     0.3560 C.ar    
  19 C19           -1.8880     5.7163    -0.4245 C.ar    
  20 C20            6.8896     2.0334    -0.3856 C.ar    
  21 C21            6.3910     3.3271    -0.3751 C.ar    
  22 C22            5.0220     3.5268    -0.3072 C.ar    
  23 N23            4.1920     2.5072    -0.2582 N.ar    
  24 O24           -0.8055     7.6383     0.4659 O.3     
  25 C25           -1.7684     8.4110    -0.2537 C.3     
  26 H26            2.4502    -2.2341    -0.1070 H       
  27 H27            0.8000    -2.5372    -0.0195 H       
  28 H28           -2.0289     1.7119    -0.0277 H       
  29 H29            6.3463    -0.0416    -0.3334 H       
  30 H30           -2.7520     3.8998    -1.1447 H       
  31 H31            0.6268     3.4722     1.4415 H       
  32 H32            0.7830     5.9201     1.6395 H       
  33 H33           -2.5910     6.3475    -0.9478 H       
  34 H34            7.9529     1.8518    -0.4377 H       
  35 H35            7.0636     4.1710    -0.4190 H       
  36 H36            4.6304     4.5333    -0.2984 H       
  37 H37           -1.6825     8.1976    -1.3192 H       
  38 H38           -2.7705     8.1532     0.0889 H       
  39 H39           -1.5866     9.4715    -0.0797 H       
@<TRIPOS>BOND
   1    1    2 2
   2    1    4 1
   3    1   11 1
   4    2    3 1
   5    2    6 1
   6    3   12 3
   7    4    5 1
   8    5    6 2
   9    5    7 1
  10    6   10 1
  11    7    8 1
  12    7    9 2
  13    8   13 ar
  14    8   23 ar
  15   10   26 1
  16   10   27 1
  17   11   14 1
  18   11   28 1
  19   13   20 ar
  20   13   29 1
  21   14   15 ar
  22   14   16 ar
  23   15   19 ar
  24   15   30 1
  25   16   17 ar
  26   16   31 1
  27   17   18 ar
  28   17   32 1
  29   18   19 ar
  30   18   24 1
  31   19   33 1
  32   20   21 ar
  33   20   34 1
  34   21   22 ar
  35   21   35 1
  36   22   23 ar
  37   22   36 1
  38   24   25 1
  39   25   37 1
  40   25   38 1
  41   25   39 1

#	End of record

