#	Name: ASD03320054
#	Creating user name:	WinNT
#	Creation time:	15. 06. 2019 20:36

#	Modifying user name:	WinNT
#	Modification time:	15. 06. 2019 20:36

#	Program:	/corina/corina34_cracker 3.40 0067  02.08.2006

@<TRIPOS>MOLECULE
ASD03320054
  50   53    0    0    0
SMALL
NO_CHARGES


@<TRIPOS>ATOM
   1 C1            -0.5552     1.6994     0.0039 C.2     
   2 C2            -0.5704     0.2242    -0.0807 C.ar    
   3 C3             0.6237    -0.5021    -0.0244 C.ar    
   4 C4             0.5534    -1.8932    -0.1088 C.ar    
   5 C5            -0.6975    -2.5021    -0.2453 C.ar    
   6 N6            -1.7997    -1.7797    -0.2943 N.ar    
   7 C7            -1.7773    -0.4651    -0.2123 C.ar    
   8 O8             0.5005     2.2906     0.1234 O.2     
   9 N9            -1.7110     2.3899    -0.0569 N.am    
  10 N10            2.9131    -2.5231    -0.7962 N.pl3   
  11 N11            3.8323    -3.5162    -0.4343 N.2     
  12 C12            3.2867    -4.2726     0.4841 C.2     
  13 C13            2.0018    -3.7968     0.7465 C.2     
  14 C14            1.7851    -2.7118    -0.0551 C.2     
  15 C15            3.1282    -1.4671    -1.7886 C.3     
  16 C16            4.1468    -0.4594    -1.2494 C.3     
  17 C17            4.4114     0.6078    -2.3158 C.3     
  18 C18            4.8937    -0.0765    -3.5986 C.3     
  19 C19            3.8463    -1.0989    -4.0471 C.3     
  20 O20            3.6251    -2.0438    -2.9981 O.3     
  21 C21           -1.7089     3.7772     0.1344 C.ar    
  22 C22           -2.5971     4.5772    -0.5723 C.ar    
  23 C23           -2.5943     5.9450    -0.3832 C.ar    
  24 C24           -1.7045     6.5200     0.5125 C.ar    
  25 C25           -0.8169     5.7214     1.2187 C.ar    
  26 C26           -0.8224     4.3528     1.0349 C.ar    
  27 O27           -1.7020     7.8670     0.6978 O.3     
  28 C28           -0.7593     8.3912     1.6352 C.3     
  29 F29           -1.0003     7.8385     2.8975 F       
  30 F30            0.5376     8.0660     1.2236 F       
  31 Cl31          -0.9308    10.1839     1.7213 Cl      
  32 Cl32          -0.8014    -4.2317    -0.3522 Cl      
  33 H33            1.5740     0.0001     0.0812 H       
  34 H34           -2.7046     0.0870    -0.2521 H       
  35 H35           -2.5444     1.9259    -0.2332 H       
  36 H36            3.7531    -5.1230     0.9590 H       
  37 H37            1.3026    -4.2122     1.4571 H       
  38 H38            2.1850    -0.9588    -1.9888 H       
  39 H39            3.7505     0.0137    -0.3510 H       
  40 H40            5.0774    -0.9744    -1.0107 H       
  41 H41            3.4916     1.1563    -2.5189 H       
  42 H42            5.1773     1.2968    -1.9600 H       
  43 H43            5.0316     0.6706    -4.3802 H       
  44 H44            5.8394    -0.5838    -3.4073 H       
  45 H45            2.9125    -0.5858    -4.2770 H       
  46 H46            4.2036    -1.6194    -4.9357 H       
  47 H47           -3.2896     4.1298    -1.2698 H       
  48 H48           -3.2848     6.5675    -0.9329 H       
  49 H49           -0.1244     6.1697     1.9158 H       
  50 H50           -0.1343     3.7308     1.5882 H       
@<TRIPOS>BOND
   1    1    2 1
   2    1    8 2
   3    1    9 am
   4    2    3 ar
   5    2    7 ar
   6    3    4 ar
   7    3   33 1
   8    4    5 ar
   9    4   14 1
  10    5    6 ar
  11    5   32 1
  12    6    7 ar
  13    7   34 1
  14    9   21 1
  15    9   35 1
  16   10   11 1
  17   10   14 1
  18   10   15 1
  19   11   12 2
  20   12   13 1
  21   12   36 1
  22   13   14 2
  23   13   37 1
  24   15   16 1
  25   15   20 1
  26   15   38 1
  27   16   17 1
  28   16   39 1
  29   16   40 1
  30   17   18 1
  31   17   41 1
  32   17   42 1
  33   18   19 1
  34   18   43 1
  35   18   44 1
  36   19   20 1
  37   19   45 1
  38   19   46 1
  39   21   22 ar
  40   21   26 ar
  41   22   23 ar
  42   22   47 1
  43   23   24 ar
  44   23   48 1
  45   24   25 ar
  46   24   27 1
  47   25   26 ar
  48   25   49 1
  49   26   50 1
  50   27   28 1
  51   28   29 1
  52   28   30 1
  53   28   31 1

#	End of record

