#	Name: ASD04910046
#	Creating user name:	WinNT
#	Creation time:	15. 06. 2019 20:55

#	Modifying user name:	WinNT
#	Modification time:	15. 06. 2019 20:55

#	Program:	/corina/corina34_cracker 3.40 0067  02.08.2006

@<TRIPOS>MOLECULE
ASD04910046
  68   72    0    0    0
SMALL
NO_CHARGES


@<TRIPOS>ATOM
   1 C1             0.9036     3.3920     1.6357 C.ar    
   2 C2             1.9483     3.9784     2.3734 C.ar    
   3 C3             3.0715     3.2600     2.6402 C.ar    
   4 C4             3.2049     1.9423     2.1912 C.ar    
   5 C5             2.2099     1.3423     1.4727 C.ar    
   6 C6             1.0367     2.0558     1.1795 C.ar    
   7 C7            -0.0058     1.4648     0.4419 C.ar    
   8 C8            -1.1314     2.1732     0.1699 C.ar    
   9 C9            -1.2745     3.4984     0.6164 C.ar    
  10 C10           -0.2699     4.1057     1.3494 C.ar    
  11 C11           -2.5115     4.2479     0.3055 C.2     
  12 N12           -2.6187     5.5991     0.1535 N.pl3   
  13 N13           -3.9571     5.8962    -0.1329 N.2     
  14 C14           -4.6381     4.7695    -0.1544 C.2     
  15 C15           -3.7518     3.7127     0.1128 C.2     
  16 C16           -6.0925     4.6379    -0.4210 C.ar    
  17 C17           -6.8609     5.7708    -0.6791 C.ar    
  18 C18           -8.2140     5.6432    -0.9266 C.ar    
  19 C19           -8.8065     4.3923    -0.9180 C.ar    
  20 C20           -8.0472     3.2637    -0.6621 C.ar    
  21 C21           -6.6921     3.3806    -0.4196 C.ar    
  22 O22            4.3394     1.2496     2.4731 O.3     
  23 C23            5.3444     1.9300     3.2275 C.3     
  24 C24           -1.5266     6.5686     0.2694 C.3     
  25 C25           -1.5072     7.4656    -0.9700 C.3     
  26 C26           -1.7345     7.4149     1.4988 C.ar    
  27 C27           -2.8820     8.1778     1.6238 C.ar    
  28 C28           -0.7797     7.4213     2.5001 C.ar    
  29 C29           -0.9639     8.1939     3.6282 C.ar    
  30 C30           -2.1166     8.9701     3.7580 C.ar    
  31 C31           -3.0785     8.9547     2.7467 C.ar    
  32 C32           -2.3206     9.8005     4.9641 C.2     
  33 N33           -3.4348    10.5489     5.0865 N.am    
  34 O34           -1.4835     9.8081     5.8454 O.2     
  35 C35           -3.6369    11.3717     6.2816 C.3     
  36 C36           -4.9693    12.1154     6.1695 C.3     
  37 C37           -5.1772    12.9617     7.3989 C.2     
  38 O38           -6.2868    13.7071     7.5208 O.3     
  39 O39           -4.3451    12.9693     8.2749 O.2     
  40 Cl40          -9.1730     7.0541    -1.2483 Cl      
  41 Cl41          -8.7974     1.6982    -0.6530 Cl      
  42 H42            1.8587     4.9953     2.7259 H       
  43 H43            3.8718     3.7133     3.2064 H       
  44 H44            2.3251     0.3240     1.1320 H       
  45 H45            0.0898     0.4476     0.0918 H       
  46 H46           -1.9270     1.7128    -0.3971 H       
  47 H47           -0.3863     5.1226     1.6942 H       
  48 H48           -4.0070     2.6644     0.1599 H       
  49 H49           -6.3996     6.7473    -0.6853 H       
  50 H50           -9.8647     4.2967    -1.1112 H       
  51 H51           -6.0995     2.4989    -0.2247 H       
  52 H52            6.1946     1.2658     3.3821 H       
  53 H53            5.6700     2.8162     2.6826 H       
  54 H54            4.9351     2.2271     4.1930 H       
  55 H55           -0.5774     6.0388     0.3493 H       
  56 H56           -1.3568     6.8534    -1.8592 H       
  57 H57           -2.4564     7.9954    -1.0499 H       
  58 H58           -0.6946     8.1869    -0.8837 H       
  59 H59           -3.6254     8.1652     0.8405 H       
  60 H60            0.1116     6.8200     2.3986 H       
  61 H61           -0.2180     8.1977     4.4092 H       
  62 H62           -3.9747     9.5497     2.8431 H       
  63 H63           -4.1028    10.5428     4.3832 H       
  64 H64           -3.6507    10.7327     7.1646 H       
  65 H65           -2.8243    12.0930     6.3679 H       
  66 H66           -4.9555    12.7544     5.2865 H       
  67 H67           -5.7819    11.3940     6.0833 H       
  68 H68           -6.3758    14.2334     8.3271 H       
@<TRIPOS>BOND
   1    1    2 ar
   2    1    6 ar
   3    1   10 ar
   4    2    3 ar
   5    2   42 1
   6    3    4 ar
   7    3   43 1
   8    4    5 ar
   9    4   22 1
  10    5    6 ar
  11    5   44 1
  12    6    7 ar
  13    7    8 ar
  14    7   45 1
  15    8    9 ar
  16    8   46 1
  17    9   10 ar
  18    9   11 1
  19   10   47 1
  20   11   12 1
  21   11   15 2
  22   12   13 1
  23   12   24 1
  24   13   14 2
  25   14   15 1
  26   14   16 1
  27   15   48 1
  28   16   17 ar
  29   16   21 ar
  30   17   18 ar
  31   17   49 1
  32   18   19 ar
  33   18   40 1
  34   19   20 ar
  35   19   50 1
  36   20   21 ar
  37   20   41 1
  38   21   51 1
  39   22   23 1
  40   23   52 1
  41   23   53 1
  42   23   54 1
  43   24   25 1
  44   24   26 1
  45   24   55 1
  46   25   56 1
  47   25   57 1
  48   25   58 1
  49   26   28 ar
  50   26   27 ar
  51   27   31 ar
  52   27   59 1
  53   28   29 ar
  54   28   60 1
  55   29   30 ar
  56   29   61 1
  57   30   31 ar
  58   30   32 1
  59   31   62 1
  60   32   33 am
  61   32   34 2
  62   33   35 1
  63   33   63 1
  64   35   36 1
  65   35   64 1
  66   35   65 1
  67   36   37 1
  68   36   66 1
  69   36   67 1
  70   37   38 1
  71   37   39 2
  72   38   68 1

#	End of record

