#	Name: ASD00843301
#	Creating user name:	WinNT
#	Creation time:	15. 06. 2019 18:46

#	Modifying user name:	WinNT
#	Modification time:	15. 06. 2019 18:46

#	Program:	/corina/corina34_cracker 3.40 0067  02.08.2006

@<TRIPOS>MOLECULE
ASD00843301
  98  103    0    0    0
SMALL
NO_CHARGES


@<TRIPOS>ATOM
   1 N1             0.7379     1.1422    -0.6142 N.ar    
   2 C2             0.9535    -0.1466    -0.8183 C.ar    
   3 C3             0.8947    -1.0496     0.2357 C.ar    
   4 C4             0.6068    -0.5835     1.5064 C.ar    
   5 C5             0.3868     0.7764     1.6787 C.ar    
   6 C6             0.4613     1.6164     0.5858 C.ar    
   7 C7             1.1405    -2.5174    -0.0017 C.3     
   8 C8             0.8854    -3.3092     1.2631 C.2     
   9 C9             0.2584    -3.0297    -1.1420 C.3     
  10 C10           -1.1826    -2.6997    -0.8495 C.2     
  11 N11           -2.1520    -3.1093    -1.6915 N.am    
  12 O12           -1.4700    -2.0655     0.1435 O.2     
  13 C13           -3.5466    -2.6955    -1.4854 C.3     
  14 C14           -4.4313    -3.9455    -1.4466 C.3     
  15 C15           -4.2009    -4.7682    -2.7164 C.3     
  16 C16           -2.7381    -5.2135    -2.7793 C.3     
  17 C17           -1.8333    -3.9733    -2.8364 C.3     
  18 C18           -5.1083    -6.0000    -2.6973 C.3     
  19 C19           -6.5725    -5.5560    -2.6361 C.3     
  20 C20           -7.4768    -6.7899    -2.6787 C.3     
  21 N21           -7.2254    -7.5400    -3.9158 N.3     
  22 C22           -5.8379    -8.0173    -3.9748 C.3     
  23 C23           -4.8847    -6.8200    -3.9709 C.3     
  24 C24           -8.1719    -8.6545    -4.0572 C.3     
  25 O25           -0.1662    -3.3912     1.8619 O.2     
  26 N26            2.0428    -3.9039     1.5980 N.am    
  27 C27            2.6002    -2.7676    -0.3040 C.ar    
  28 C28            3.0688    -3.6068     0.6994 C.ar    
  29 C29            3.4344    -2.3363    -1.3106 C.ar    
  30 C30            4.7591    -2.7393    -1.3306 C.ar    
  31 C31            5.2390    -3.5762    -0.3357 C.ar    
  32 C32            4.4020    -4.0094     0.6749 C.ar    
  33 Cl33           5.8149    -2.1985    -2.5981 Cl      
  34 F34            6.5311    -3.9702    -0.3538 F       
  35 C35            1.8687    -6.5256     2.4170 C.ar    
  36 C36            0.5864    -6.8582     2.0047 C.ar    
  37 C37            2.8639    -7.4845     2.4246 C.ar    
  38 C38            2.5849    -8.7761     2.0216 C.ar    
  39 C39            1.3037    -9.1139     1.6083 C.ar    
  40 C40            0.3037    -8.1540     1.6002 C.ar    
  41 O41            1.0297   -10.3847     1.2124 O.3     
  42 O42           -0.3919    -5.9150     1.9978 O.3     
  43 C43            2.1081   -11.3217     1.2469 C.3     
  44 C44           -1.6884    -6.3281     1.5613 C.3     
  45 C45           -2.6497    -5.1393     1.6218 C.3     
  46 C46           -8.0470    -9.2550    -5.4589 C.3     
  47 S47            2.2305    -4.8774     2.9243 S.o2    
  48 O48            3.6138    -4.8518     3.2483 O.2     
  49 O49            1.2104    -4.5069     3.8416 O.2     
  50 O50            1.2344    -0.5910    -2.0690 O.3     
  51 C51            1.2019     0.3736    -3.1229 C.3     
  52 C52            1.6326    -0.2881    -4.4334 C.3     
  53 F53            2.8977    -0.8631    -4.2717 F       
  54 F54            0.7099    -1.2810    -4.7798 F       
  55 H55            0.5540    -1.2621     2.3449 H       
  56 H56            0.1595     1.1728     2.6573 H       
  57 H57            0.2914     2.6752     0.7145 H       
  58 H58            0.5581    -2.5531    -2.0754 H       
  59 H59            0.3727    -4.1099    -1.2325 H       
  60 H60           -3.6325    -2.1577    -0.5412 H       
  61 H61           -3.8614    -2.0504    -2.3057 H       
  62 H62           -4.1756    -4.5453    -0.5731 H       
  63 H63           -5.4786    -3.6485    -1.3906 H       
  64 H64           -4.4332    -4.1598    -3.5904 H       
  65 H65           -2.4983    -5.8013    -1.8932 H       
  66 H66           -2.5802    -5.8190    -3.6718 H       
  67 H67           -2.0097    -3.4348    -3.7675 H       
  68 H68           -0.7889    -4.2801    -2.7815 H       
  69 H69           -4.8759    -6.6101    -1.8245 H       
  70 H70           -6.7481    -5.0079    -1.7104 H       
  71 H71           -6.7937    -4.9131    -3.4880 H       
  72 H72           -7.2646    -7.4256    -1.8190 H       
  73 H73           -8.5203    -6.4765    -2.6497 H       
  74 H74           -5.6334    -8.6472    -3.1091 H       
  75 H75           -5.6911    -8.5953    -4.8872 H       
  76 H76           -5.0794    -6.1970    -4.8438 H       
  77 H77           -3.8545    -7.1750    -3.9989 H       
  78 H78           -7.9471    -9.4187    -3.3132 H       
  79 H79           -9.1880    -8.2895    -3.9076 H       
  80 H80            3.0560    -1.6844    -2.0841 H       
  81 H81            4.7825    -4.6612     1.4474 H       
  82 H82            3.8615    -7.2236     2.7459 H       
  83 H83            3.3644    -9.5235     2.0278 H       
  84 H84           -0.6940    -8.4150     1.2793 H       
  85 H85            2.9095   -10.9775     0.5931 H       
  86 H86            2.4828   -11.4070     2.2669 H       
  87 H87            1.7546   -12.2951     0.9070 H       
  88 H88           -1.6271    -6.6940     0.5364 H       
  89 H89           -2.0537    -7.1242     2.2101 H       
  90 H90           -2.7109    -4.7734     2.6467 H       
  91 H91           -2.2844    -4.3433     0.9730 H       
  92 H92           -3.6386    -5.4544     1.2888 H       
  93 H93           -8.2718    -8.4908    -6.2029 H       
  94 H94           -7.0309    -9.6200    -5.6086 H       
  95 H95           -8.7493   -10.0819    -5.5639 H       
  96 H96            0.1892     0.7628    -3.2280 H       
  97 H97            1.8829     1.1915    -2.8878 H       
  98 H98            1.6727     0.4620    -5.2232 H       
@<TRIPOS>BOND
   1    1    2 ar
   2    1    6 ar
   3    2    3 ar
   4    2   50 1
   5    3    4 ar
   6    3    7 1
   7    4    5 ar
   8    4   55 1
   9    5    6 ar
  10    5   56 1
  11    6   57 1
  12    7    8 1
  13    7    9 1
  14    7   27 1
  15    8   25 2
  16    8   26 am
  17    9   10 1
  18    9   58 1
  19    9   59 1
  20   10   11 am
  21   10   12 2
  22   11   13 1
  23   11   17 1
  24   13   14 1
  25   13   60 1
  26   13   61 1
  27   14   15 1
  28   14   62 1
  29   14   63 1
  30   15   16 1
  31   15   18 1
  32   15   64 1
  33   16   17 1
  34   16   65 1
  35   16   66 1
  36   17   67 1
  37   17   68 1
  38   18   19 1
  39   18   23 1
  40   18   69 1
  41   19   20 1
  42   19   70 1
  43   19   71 1
  44   20   21 1
  45   20   72 1
  46   20   73 1
  47   21   22 1
  48   21   24 1
  49   22   23 1
  50   22   74 1
  51   22   75 1
  52   23   76 1
  53   23   77 1
  54   24   46 1
  55   24   78 1
  56   24   79 1
  57   26   47 am
  58   26   28 1
  59   27   28 ar
  60   27   29 ar
  61   28   32 ar
  62   29   30 ar
  63   29   80 1
  64   30   31 ar
  65   30   33 1
  66   31   32 ar
  67   31   34 1
  68   32   81 1
  69   35   36 ar
  70   35   37 ar
  71   35   47 1
  72   36   42 1
  73   36   40 ar
  74   37   38 ar
  75   37   82 1
  76   38   39 ar
  77   38   83 1
  78   39   40 ar
  79   39   41 1
  80   40   84 1
  81   41   43 1
  82   42   44 1
  83   43   85 1
  84   43   86 1
  85   43   87 1
  86   44   45 1
  87   44   88 1
  88   44   89 1
  89   45   90 1
  90   45   91 1
  91   45   92 1
  92   46   93 1
  93   46   94 1
  94   46   95 1
  95   47   48 2
  96   47   49 2
  97   50   51 1
  98   51   52 1
  99   51   96 1
 100   51   97 1
 101   52   53 1
 102   52   54 1
 103   52   98 1

#	End of record

