#	Name: ASD01411227
#	Creating user name:	WinNT
#	Creation time:	15. 06. 2019 19:19

#	Modifying user name:	WinNT
#	Modification time:	15. 06. 2019 19:19

#	Program:	/corina/corina34_cracker 3.40 0067  02.08.2006

@<TRIPOS>MOLECULE
ASD01411227
  70   73    0    0    0
SMALL
NO_CHARGES


@<TRIPOS>ATOM
   1 C1             4.8313     5.9618    -3.8338 C.ar    
   2 C2             6.0733     5.7820    -4.4266 C.ar    
   3 C3             6.8786     4.7419    -4.0059 C.ar    
   4 N4             6.4811     3.9223    -3.0516 N.ar    
   5 C5             5.3045     4.0612    -2.4628 C.ar    
   6 C6             4.4432     5.0851    -2.8355 C.ar    
   7 C7             5.3516     0.8522    -1.5044 C.ar    
   8 C8             5.7606     2.1487    -1.2156 C.ar    
   9 O9             4.9358     3.1954    -1.4856 O.3     
  10 C10            6.1808    -0.2175    -1.2340 C.ar    
  11 C11            7.4311    -0.0049    -0.6702 C.ar    
  12 C12            7.8503     1.3017    -0.3767 C.ar    
  13 C13            7.0036     2.3777    -0.6542 C.ar    
  14 C14            6.5381     6.7115    -5.5179 C.3     
  15 N15            8.2678    -1.0858    -0.3965 N.am    
  16 C16            8.9941    -1.6433    -1.3856 C.2     
  17 C17            8.9735    -1.0410    -2.7668 C.3     
  18 O18            9.6641    -2.6296    -1.1640 O.2     
  19 C19            9.6186    -2.0131    -3.7567 C.3     
  20 C20            9.7548     0.2745    -2.7612 C.3     
  21 C21           11.2020     0.0064    -2.3432 C.3     
  22 C22           11.8470    -0.9657    -3.3331 C.3     
  23 C23           11.0657    -2.2812    -3.3387 C.3     
  24 C24           13.2942    -1.2338    -2.9151 C.3     
  25 C25            8.3577    -1.6158     0.9663 C.3     
  26 C26            7.2247    -2.6172     1.1998 C.3     
  27 N27            7.2605     7.8393    -4.9241 N.pl3   
  28 N28            8.5271     7.8605    -4.7030 N.2     
  29 N29            6.7152     8.9449    -4.5581 N.2     
  30 C30            7.6462     9.7328    -4.0697 C.2     
  31 C31            8.8419     9.0172    -4.1653 C.2     
  32 C32            6.4495    -4.7895     0.5476 C.3     
  33 O33            7.3947    -3.7397     0.3319 O.3     
  34 C34            3.1039     5.2395    -2.1619 C.3     
  35 F35            2.4297     6.3357    -2.7105 F       
  36 F36            2.3465     4.0799    -2.3588 F       
  37 F37            3.2924     5.4463    -0.7912 F       
  38 C38            9.1761     1.5376     0.2225 C.2     
  39 O39            9.9379     0.6072     0.3976 O.2     
  40 O40            9.5434     2.7849     0.5761 O.3     
  41 H41            4.1844     6.7700    -4.1414 H       
  42 H42            7.8458     4.5975    -4.4642 H       
  43 H43            4.3778     0.6805    -1.9387 H       
  44 H44            5.8559    -1.2221    -1.4612 H       
  45 H45            7.3192     3.3862    -0.4311 H       
  46 H46            7.1996     6.1731    -6.1966 H       
  47 H47            5.6752     7.0833    -6.0705 H       
  48 H48            7.9426    -0.8500    -3.0646 H       
  49 H49            9.0620    -2.9502    -3.7607 H       
  50 H50            9.6037    -1.5775    -4.7557 H       
  51 H51            9.7400     0.7101    -3.7603 H       
  52 H52            9.2953     0.9670    -2.0560 H       
  53 H53           11.7586     0.9435    -2.3393 H       
  54 H54           11.2168    -0.4293    -1.3442 H       
  55 H55           11.8322    -0.5301    -4.3322 H       
  56 H56           11.0806    -2.7168    -2.3396 H       
  57 H57           11.5253    -2.9737    -4.0439 H       
  58 H58           13.3090    -1.6695    -1.9160 H       
  59 H59           13.7537    -1.9264    -3.6203 H       
  60 H60           13.8508    -0.2967    -2.9111 H       
  61 H61            9.3173    -2.1154     1.0994 H       
  62 H62            8.2721    -0.7972     1.6809 H       
  63 H63            7.2448    -2.9533     2.2366 H       
  64 H64            6.2679    -2.1384     0.9915 H       
  65 H65            7.5145    10.7305    -3.6778 H       
  66 H66            9.8238     9.3468    -3.8593 H       
  67 H67            5.4489    -4.4337     0.3023 H       
  68 H68            6.6989    -5.6392    -0.0880 H       
  69 H69            6.4799    -5.0966     1.5930 H       
  70 H70           10.4224     2.8900     0.9653 H       
@<TRIPOS>BOND
   1    1    2 ar
   2    1    6 ar
   3    1   41 1
   4    2    3 ar
   5    2   14 1
   6    3    4 ar
   7    3   42 1
   8    4    5 ar
   9    5    6 ar
  10    5    9 1
  11    6   34 1
  12    7    8 ar
  13    7   10 ar
  14    7   43 1
  15    8    9 1
  16    8   13 ar
  17   10   11 ar
  18   10   44 1
  19   11   12 ar
  20   11   15 1
  21   12   13 ar
  22   12   38 1
  23   13   45 1
  24   14   27 1
  25   14   46 1
  26   14   47 1
  27   15   16 am
  28   15   25 1
  29   16   18 2
  30   16   17 1
  31   17   19 1
  32   17   20 1
  33   17   48 1
  34   19   23 1
  35   19   49 1
  36   19   50 1
  37   20   21 1
  38   20   51 1
  39   20   52 1
  40   21   22 1
  41   21   53 1
  42   21   54 1
  43   22   23 1
  44   22   24 1
  45   22   55 1
  46   23   56 1
  47   23   57 1
  48   24   58 1
  49   24   59 1
  50   24   60 1
  51   25   26 1
  52   25   61 1
  53   25   62 1
  54   26   33 1
  55   26   63 1
  56   26   64 1
  57   27   28 1
  58   27   29 1
  59   28   31 2
  60   29   30 2
  61   30   31 1
  62   30   65 1
  63   31   66 1
  64   32   33 1
  65   32   67 1
  66   32   68 1
  67   32   69 1
  68   34   35 1
  69   34   36 1
  70   34   37 1
  71   38   39 2
  72   38   40 1
  73   40   70 1

#	End of record

