#	Name: ASD01208737
#	Creating user name:	WinNT
#	Creation time:	15. 06. 2019 19:10

#	Modifying user name:	WinNT
#	Modification time:	15. 06. 2019 19:10

#	Program:	/corina/corina34_cracker 3.40 0067  02.08.2006

@<TRIPOS>MOLECULE
ASD01208737
  62   66    0    0    0
SMALL
NO_CHARGES


@<TRIPOS>ATOM
   1 C1            -0.5144     1.4609     1.4808 C.2     
   2 C2            -0.3537     0.1493     0.8181 C.ar    
   3 C3             0.8825    -0.2186     0.2851 C.ar    
   4 C4             1.0287    -1.4483    -0.3350 C.ar    
   5 C5            -0.0516    -2.3141    -0.4268 C.ar    
   6 C6            -1.2826    -1.9522     0.1013 C.ar    
   7 C7            -1.4360    -0.7265     0.7288 C.ar    
   8 O8             0.4311     2.2207     1.5621 O.2     
   9 N9            -1.7105     1.8166     1.9900 N.am    
  10 O10           -2.3375    -2.8036     0.0083 O.3     
  11 C11           -3.1549    -2.6907    -1.0705 C.ar    
  12 C12           -4.3049    -3.4657    -1.1526 C.ar    
  13 C13           -5.1367    -3.3539    -2.2456 C.ar    
  14 C14           -4.8226    -2.4600    -3.2712 C.ar    
  15 C15           -3.6660    -1.6825    -3.1849 C.ar    
  16 C16           -2.8417    -1.7964    -2.0864 C.ar    
  17 O17           -5.5323    -1.5203    -5.5023 O.3     
  18 C18           -5.7116    -2.3375    -4.4452 C.2     
  19 N19           -6.8232    -3.0041    -4.6532 N.2     
  20 N20           -7.3322    -2.6399    -5.7773 N.2     
  21 C21           -6.5726    -1.7343    -6.3268 C.2     
  22 C22           -6.8165    -1.0505    -7.6474 C.3     
  23 C23           -7.6457     0.2152    -7.4208 C.3     
  24 O24           -7.8770     0.8637    -8.6730 O.3     
  25 C25           -8.6468     2.0635    -8.5727 C.3     
  26 S26           -3.3533     3.6583     3.3256 S.3     
  27 C27           -1.8615     3.0499     2.6131 C.2     
  28 N28           -0.9259     3.9369     2.7629 N.2     
  29 C29           -1.2541     5.0552     3.3825 C.2     
  30 C30           -2.5233     5.1431     3.7866 C.2     
  31 F31           -3.0765     6.1901     4.4371 F       
  32 O32            2.2321    -1.8073    -0.8547 O.3     
  33 C33            2.3120    -3.0897    -1.4802 C.3     
  34 C34            3.7329    -3.3154    -2.0009 C.3     
  35 C35            3.8185    -4.6884    -2.6706 C.3     
  36 C36            5.1327    -5.0564    -3.3621 C.3     
  37 C37            4.7505    -5.7251    -2.0401 C.3     
  38 H38            1.7239     0.4547     0.3558 H       
  39 H39            0.0659    -3.2723    -0.9110 H       
  40 H40           -2.3932    -0.4474     1.1439 H       
  41 H41           -2.4659     1.2120     1.9216 H       
  42 H42           -4.5472    -4.1569    -0.3589 H       
  43 H43           -6.0302    -3.9573    -2.3090 H       
  44 H44           -3.4198    -0.9899    -3.9762 H       
  45 H45           -1.9490    -1.1926    -2.0171 H       
  46 H46           -5.8617    -0.7831    -8.1000 H       
  47 H47           -7.3572    -1.7249    -8.3114 H       
  48 H48           -8.6006    -0.0521    -6.9682 H       
  49 H49           -7.1051     0.8897    -6.7567 H       
  50 H50           -9.6224     1.8344    -8.1441 H       
  51 H51           -8.1270     2.7763    -7.9326 H       
  52 H52           -8.7781     2.4949    -9.5651 H       
  53 H53           -0.5411     5.8484     3.5522 H       
  54 H54            2.0637    -3.8640    -0.7545 H       
  55 H55            1.6091    -3.1326    -2.3122 H       
  56 H56            3.9812    -2.5411    -2.7266 H       
  57 H57            4.4358    -3.2725    -1.1689 H       
  58 H58            2.8942    -5.0501    -3.1212 H       
  59 H59            5.0732    -5.6606    -4.2674 H       
  60 H60            5.9364    -4.3204    -3.3399 H       
  61 H61            5.3027    -5.4290    -1.1482 H       
  62 H62            4.4394    -6.7692    -2.0756 H       
@<TRIPOS>BOND
   1    1    2 1
   2    1    8 2
   3    1    9 am
   4    2    3 ar
   5    2    7 ar
   6    3    4 ar
   7    3   38 1
   8    4    5 ar
   9    4   32 1
  10    5    6 ar
  11    5   39 1
  12    6    7 ar
  13    6   10 1
  14    7   40 1
  15    9   27 1
  16    9   41 1
  17   10   11 1
  18   11   12 ar
  19   11   16 ar
  20   12   13 ar
  21   12   42 1
  22   13   14 ar
  23   13   43 1
  24   14   15 ar
  25   14   18 1
  26   15   16 ar
  27   15   44 1
  28   16   45 1
  29   17   18 1
  30   17   21 1
  31   18   19 2
  32   19   20 1
  33   20   21 2
  34   21   22 1
  35   22   23 1
  36   22   46 1
  37   22   47 1
  38   23   24 1
  39   23   48 1
  40   23   49 1
  41   24   25 1
  42   25   50 1
  43   25   51 1
  44   25   52 1
  45   26   27 1
  46   26   30 1
  47   27   28 2
  48   28   29 1
  49   29   30 2
  50   29   53 1
  51   30   31 1
  52   32   33 1
  53   33   34 1
  54   33   54 1
  55   33   55 1
  56   34   35 1
  57   34   56 1
  58   34   57 1
  59   35   36 1
  60   35   37 1
  61   35   58 1
  62   36   37 1
  63   36   59 1
  64   36   60 1
  65   37   61 1
  66   37   62 1

#	End of record

