#	Name: ASD08070241
#	Creating user name:	WinNT
#	Creation time:	15. 06. 2019 21:14

#	Modifying user name:	WinNT
#	Modification time:	15. 06. 2019 21:14

#	Program:	/corina/corina34_cracker 3.40 0067  02.08.2006

@<TRIPOS>MOLECULE
ASD08070241
  38   40    0    0    0
SMALL
NO_CHARGES


@<TRIPOS>ATOM
   1 N1            -0.6072     1.4315     0.1973 N.am    
   2 C2            -0.5533     0.0926     0.3413 C.2     
   3 O3             0.1878    -0.4005     1.1696 O.2     
   4 N4            -1.3208    -0.6999    -0.4329 N.am    
   5 C5            -1.2223    -2.0920    -0.3241 C.ar    
   6 C6            -2.3191    -2.8367     0.0891 C.ar    
   7 C7            -2.2191    -4.2101     0.1957 C.ar    
   8 C8             0.1595     2.4235     0.9579 C.3     
   9 C9            -0.0293    -2.7313    -0.6345 C.ar    
  10 C10            0.0651    -4.1049    -0.5262 C.ar    
  11 C11           -1.0275    -4.8439    -0.1088 C.ar    
  12 C12            1.1611    -1.9270    -1.0897 C.3     
  13 C13           -3.6171    -2.1470     0.4214 C.3     
  14 Br14          -0.8943    -6.7245     0.0389 Br      
  15 C15           -0.2294     3.7896     0.4521 C.ar    
  16 C16           -1.1692     3.6441    -0.5489 C.ar    
  17 C17           -1.4391     2.1750    -0.7542 C.3     
  18 C18            0.1928     5.0543     0.8248 C.ar    
  19 C19           -0.3250     6.1707     0.1971 C.ar    
  20 C20           -1.2661     6.0250    -0.8053 C.ar    
  21 C21           -1.6872     4.7632    -1.1782 C.ar    
  22 H22           -1.9414    -0.3056    -1.0656 H       
  23 H23           -3.0717    -4.7897     0.5173 H       
  24 H24           -0.0786     2.3405     2.0183 H       
  25 H25            1.2266     2.2626     0.8043 H       
  26 H26            0.9927    -4.6026    -0.7675 H       
  27 H27            1.8125    -1.7288    -0.2386 H       
  28 H28            1.7111    -2.4879    -1.8453 H       
  29 H29            0.8206    -0.9826    -1.5143 H       
  30 H30           -4.2321    -2.0782    -0.4760 H       
  31 H31           -4.1479    -2.7187     1.1826 H       
  32 H32           -3.4102    -1.1452     0.7978 H       
  33 H33           -1.1857     1.8920    -1.7759 H       
  34 H34           -2.4905     1.9620    -0.5610 H       
  35 H35            0.9279     5.1684     1.6077 H       
  36 H36            0.0048     7.1567     0.4894 H       
  37 H37           -1.6715     6.8971    -1.2966 H       
  38 H38           -2.4223     4.6497    -1.9612 H       
@<TRIPOS>BOND
   1    1    2 am
   2    1    8 1
   3    1   17 1
   4    2    3 2
   5    2    4 am
   6    4    5 1
   7    4   22 1
   8    5    6 ar
   9    5    9 ar
  10    6    7 ar
  11    6   13 1
  12    7   11 ar
  13    7   23 1
  14    8   15 1
  15    8   24 1
  16    8   25 1
  17    9   10 ar
  18    9   12 1
  19   10   11 ar
  20   10   26 1
  21   11   14 1
  22   12   27 1
  23   12   28 1
  24   12   29 1
  25   13   30 1
  26   13   31 1
  27   13   32 1
  28   15   16 ar
  29   15   18 ar
  30   16   17 1
  31   16   21 ar
  32   17   33 1
  33   17   34 1
  34   18   19 ar
  35   18   35 1
  36   19   20 ar
  37   19   36 1
  38   20   21 ar
  39   20   37 1
  40   21   38 1

#	End of record

