#	Name: ASD01883957
#	Creating user name:	WinNT
#	Creation time:	15. 06. 2019 19:47

#	Modifying user name:	WinNT
#	Modification time:	15. 06. 2019 19:47

#	Program:	/corina/corina34_cracker 3.40 0067  02.08.2006

@<TRIPOS>MOLECULE
ASD01883957
  58   62    0    0    0
SMALL
NO_CHARGES


@<TRIPOS>ATOM
   1 F1             0.2238    -0.1979     0.3668 F       
   2 C2            -0.0557     1.1467     0.1000 C.3     
   3 F3             1.1382     1.8292    -0.1567 F       
   4 F4            -0.8934     1.2361    -1.0169 F       
   5 C5            -0.7406     1.7635     1.2923 C.2     
   6 C6            -0.0218     2.1187     2.3910 C.2     
   7 C7             1.4685     1.8975     2.4240 C.3     
   8 N8             2.1561     3.1364     2.0366 N.3     
   9 C9             3.6141     2.9579     2.0574 C.3     
  10 H10            3.8860     2.2834     2.8694 H       
  11 C11            4.0742     2.3634     0.7249 C.3     
  12 C12            5.5927     2.1774     0.7466 C.3     
  13 C13            6.2695     3.5327     0.9612 C.3     
  14 H14            5.9976     4.2072     0.1492 H       
  15 C15            5.8094     4.1273     2.2937 C.3     
  16 C16            4.2909     4.3132     2.2720 C.3     
  17 C17            7.7652     3.3496     0.9825 C.ar    
  18 C18            8.3473     2.5269     1.9287 C.ar    
  19 C19            9.7192     2.3589     1.9483 C.ar    
  20 C20           10.5090     3.0132     1.0215 C.ar    
  21 C21            9.9268     3.8352     0.0748 C.ar    
  22 C22            8.5545     3.9998     0.0525 C.ar    
  23 C23           -0.6742     2.6934     3.4953 C.2     
  24 C24           -2.0086     2.8938     3.4710 C.2     
  25 N25           -2.7418     2.5419     2.3762 N.pl3   
  26 C26           -4.0647     2.6180     2.0674 C.2     
  27 C27           -5.1556     3.1671     2.9503 C.3     
  28 C28           -5.3183     4.6656     2.6879 C.3     
  29 C29           -6.6543     5.1413     2.1136 C.3     
  30 C30           -6.3008     5.4352     3.5729 C.3     
  31 N31           -4.2167     2.1281     0.8641 N.2     
  32 N32           -3.0824     1.7475     0.3907 N.2     
  33 C33           -2.1314     1.9841     1.2796 C.2     
  34 H34            1.7714     1.6136     3.4318 H       
  35 H35            1.7332     1.1019     1.7274 H       
  36 H36            1.8438     3.4556     1.1318 H       
  37 H37            3.5921     1.3978     0.5720 H       
  38 H38            3.8023     3.0378    -0.0871 H       
  39 H39            5.8646     1.5029     1.5586 H       
  40 H40            5.9205     1.7539    -0.2027 H       
  41 H41            6.0812     3.4528     3.1057 H       
  42 H42            6.2915     5.0928     2.4466 H       
  43 H43            4.0190     4.9877     1.4600 H       
  44 H44            3.9631     4.7368     3.2213 H       
  45 H45            7.7302     2.0156     2.6528 H       
  46 H46           10.1741     1.7167     2.6879 H       
  47 H47           11.5810     2.8825     1.0373 H       
  48 H48           10.5439     4.3467    -0.6491 H       
  49 H49            8.0993     4.6391    -0.6895 H       
  50 H50           -0.1046     2.9759     4.3683 H       
  51 H51           -2.4997     3.3358     4.3253 H       
  52 H52           -6.0928     2.6559     2.7304 H       
  53 H53           -4.8915     3.0079     3.9958 H       
  54 H54           -4.4171     5.1869     2.3650 H       
  55 H55           -6.6322     5.9757     1.4126 H       
  56 H56           -7.4173     4.3867     1.9228 H       
  57 H57           -6.8313     4.8740     4.3421 H       
  58 H58           -6.0462     6.4629     3.8319 H       
@<TRIPOS>BOND
   1    1    2 1
   2    2    3 1
   3    2    4 1
   4    2    5 1
   5    5   33 1
   6    5    6 2
   7    6    7 1
   8    6   23 1
   9    7    8 1
  10    7   34 1
  11    7   35 1
  12    8    9 1
  13    8   36 1
  14    9   10 1
  15    9   16 1
  16    9   11 1
  17   11   12 1
  18   11   37 1
  19   11   38 1
  20   12   13 1
  21   12   39 1
  22   12   40 1
  23   13   14 1
  24   13   15 1
  25   13   17 1
  26   15   16 1
  27   15   41 1
  28   15   42 1
  29   16   43 1
  30   16   44 1
  31   17   22 ar
  32   17   18 ar
  33   18   19 ar
  34   18   45 1
  35   19   20 ar
  36   19   46 1
  37   20   21 ar
  38   20   47 1
  39   21   22 ar
  40   21   48 1
  41   22   49 1
  42   23   24 2
  43   23   50 1
  44   24   25 1
  45   24   51 1
  46   25   33 1
  47   25   26 1
  48   26   27 1
  49   26   31 2
  50   27   28 1
  51   27   52 1
  52   27   53 1
  53   28   30 1
  54   28   29 1
  55   28   54 1
  56   29   30 1
  57   29   55 1
  58   29   56 1
  59   30   57 1
  60   30   58 1
  61   31   32 1
  62   32   33 2

#	End of record

