#	Name: ASD02198622
#	Creating user name:	WinNT
#	Creation time:	15. 06. 2019 20:19

#	Modifying user name:	WinNT
#	Modification time:	15. 06. 2019 20:19

#	Program:	/corina/corina34_cracker 3.40 0067  02.08.2006

@<TRIPOS>MOLECULE
ASD02198622
  54   58    0    0    0
SMALL
NO_CHARGES


@<TRIPOS>ATOM
   1 C1             0.0114     1.1357    -0.3244 C.2     
   2 C2             0.2619    -0.1859    -0.5015 C.2     
   3 N3             1.5144    -0.6777    -0.3695 N.pl3   
   4 N4             2.5287     0.0490    -0.0755 N.2     
   5 C5             2.4257     1.3455     0.1227 C.2     
   6 C6             1.1021     1.9771     0.0018 C.2     
   7 C7             1.7135    -2.0490    -0.5632 C.ar    
   8 C8             0.6295    -2.9182    -0.5424 C.ar    
   9 C9             0.8258    -4.2705    -0.7334 C.ar    
  10 C10            2.1075    -4.7632    -0.9470 C.ar    
  11 C11            3.1914    -3.8939    -0.9683 C.ar    
  12 C12            2.9945    -2.5410    -0.7821 C.ar    
  13 C13            3.6165     2.1522     0.4607 C.2     
  14 N14            4.8209     1.6778     0.8903 N.pl3   
  15 N15            5.6652     2.7765     1.0936 N.2     
  16 C16            5.0089     3.8707     0.8023 C.2     
  17 C17            3.7208     3.5240     0.3953 C.2     
  18 C18            5.1690     0.2706     1.1018 C.3     
  19 C19            6.2583    -0.1610     0.0984 C.3     
  20 O20            0.9509     3.1773     0.1753 O.2     
  21 N21            2.3063    -6.1325    -1.1400 N.3     
  22 C22            3.7302    -6.4341    -1.3469 C.3     
  23 C23            1.4999    -6.6286    -2.2646 C.3     
  24 C24            1.7017    -8.1399    -2.4026 C.3     
  25 O25            3.0946    -8.4164    -2.5717 O.3     
  26 C26            3.9096    -7.9474    -1.4941 C.3     
  27 C27            5.7660     0.0808     2.5073 C.3     
  28 C28            7.1972    -0.4595     2.3089 C.3     
  29 C29            7.5839     0.0041     0.8825 C.3     
  30 H30           -0.9867     1.5336    -0.4331 H       
  31 H31           -0.5496    -0.8536    -0.7507 H       
  32 H32           -0.3666    -2.5353    -0.3764 H       
  33 H33           -0.0166    -4.9462    -0.7165 H       
  34 H34            4.1876    -4.2769    -1.1339 H       
  35 H35            3.8369    -1.8654    -0.7986 H       
  36 H36            5.4010     4.8751     0.8634 H       
  37 H37            2.9430     4.2084     0.0902 H       
  38 H38            4.2837    -0.3544     0.9847 H       
  39 H39            6.1159    -1.2009    -0.1955 H       
  40 H40            6.2495     0.4885    -0.7770 H       
  41 H41            4.0800    -5.9364    -2.2514 H       
  42 H42            4.3052    -6.0809    -0.4909 H       
  43 H43            0.4469    -6.4175    -2.0785 H       
  44 H44            1.8140    -6.1340    -3.1838 H       
  45 H45            1.3379    -8.6392    -1.5046 H       
  46 H46            1.1507    -8.5030    -3.2702 H       
  47 H47            4.9554    -8.1711    -1.7046 H       
  48 H48            3.6100    -8.4410    -0.5696 H       
  49 H49            5.7967     1.0357     3.0320 H       
  50 H50            5.1709    -0.6370     3.0719 H       
  51 H51            7.8736    -0.0279     3.0467 H       
  52 H52            7.2064    -1.5476     2.3720 H       
  53 H53            8.3615    -0.6360     0.4658 H       
  54 H54            7.9021     1.0466     0.8881 H       
@<TRIPOS>BOND
   1    1    2 2
   2    1    6 1
   3    1   30 1
   4    2    3 1
   5    2   31 1
   6    3    4 1
   7    3    7 1
   8    4    5 2
   9    5    6 1
  10    5   13 1
  11    6   20 2
  12    7    8 ar
  13    7   12 ar
  14    8    9 ar
  15    8   32 1
  16    9   10 ar
  17    9   33 1
  18   10   11 ar
  19   10   21 1
  20   11   12 ar
  21   11   34 1
  22   12   35 1
  23   13   14 1
  24   13   17 2
  25   14   15 1
  26   14   18 1
  27   15   16 2
  28   16   17 1
  29   16   36 1
  30   17   37 1
  31   18   27 1
  32   18   19 1
  33   18   38 1
  34   19   29 1
  35   19   39 1
  36   19   40 1
  37   21   22 1
  38   21   23 1
  39   22   26 1
  40   22   41 1
  41   22   42 1
  42   23   24 1
  43   23   43 1
  44   23   44 1
  45   24   25 1
  46   24   45 1
  47   24   46 1
  48   25   26 1
  49   26   47 1
  50   26   48 1
  51   27   28 1
  52   27   49 1
  53   27   50 1
  54   28   29 1
  55   28   51 1
  56   28   52 1
  57   29   53 1
  58   29   54 1

#	End of record

