#	Name: ASD05740152
#	Creating user name:	WinNT
#	Creation time:	15. 06. 2019 21:02

#	Modifying user name:	WinNT
#	Modification time:	15. 06. 2019 21:02

#	Program:	/corina/corina34_cracker 3.40 0067  02.08.2006

@<TRIPOS>MOLECULE
ASD05740152
  61   65    0    0    0
SMALL
NO_CHARGES


@<TRIPOS>ATOM
   1 C1            -2.4065     1.2677    -1.8780 C.3     
   2 C2            -2.4748     0.3696    -0.6397 C.3     
   3 N3            -1.6168    -0.8015    -0.8363 N.pl3   
   4 C4            -1.8812    -1.9871    -0.1416 C.ar    
   5 C5            -1.0678    -3.0973    -0.3279 C.ar    
   6 C6            -1.3287    -4.2671     0.3575 C.ar    
   7 C7            -2.4046    -4.3337     1.2330 C.ar    
   8 C8            -3.2182    -3.2238     1.4190 C.ar    
   9 C9            -2.9535    -2.0519     0.7386 C.ar    
  10 N10           -2.6695    -5.5206     1.9280 N.pl3   
  11 C11           -1.6263    -6.3217     2.3495 C.ar    
  12 N12           -0.3811    -5.8887     2.1845 N.ar    
  13 N13           -1.9054    -7.4904     2.9078 N.ar    
  14 C14           -0.9283    -8.2854     3.3242 C.ar    
  15 C15            0.4086    -7.8605     3.1600 C.ar    
  16 C16            0.6526    -6.6154     2.5698 C.ar    
  17 N17           -1.1854    -9.4999     3.9060 N.am    
  18 C18           -0.1825   -10.2932     4.3229 C.2     
  19 C19            1.1689    -9.9176     4.1836 C.2     
  20 C20            1.4920    -8.7268     3.6144 C.2     
  21 C21           -2.5724    -9.9398     4.0764 C.3     
  22 O22           -0.4496   -11.3662     4.8356 O.2     
  23 C23           -4.3541   -11.0363     2.7027 C.ar    
  24 C24           -3.0382   -10.6307     2.8207 C.ar    
  25 C25           -4.7815   -11.6702     1.5507 C.ar    
  26 C26           -3.8927   -11.8981     0.5170 C.ar    
  27 C27           -2.5764   -11.4919     0.6349 C.ar    
  28 C28           -2.1492   -10.8583     1.7866 C.ar    
  29 C29           -5.3217   -10.7934     3.8322 C.3     
  30 F30           -6.5610   -11.3593     3.5145 F       
  31 F31           -4.8282   -11.3787     5.0031 F       
  32 F32           -5.4741    -9.4165     4.0276 F       
  33 C33           -3.2563     2.5184    -1.6425 C.3     
  34 N34           -2.7541     3.2384    -0.4653 N.3     
  35 C35           -2.8539     2.4125     0.7448 C.3     
  36 C36           -1.9921     1.1585     0.5806 C.3     
  37 H37           -1.3720     1.5594    -2.0593 H       
  38 H38           -2.7892     0.7252    -2.7425 H       
  39 H39           -3.5033     0.0451    -0.4813 H       
  40 H40           -0.8655    -0.7550    -1.4480 H       
  41 H41           -0.2314    -3.0457    -1.0093 H       
  42 H42           -0.6962    -5.1304     0.2126 H       
  43 H43           -4.0554    -3.2759     2.0993 H       
  44 H44           -3.5862    -1.1887     0.8833 H       
  45 H45           -3.5857    -5.7800     2.1133 H       
  46 H46            1.6623    -6.2590     2.4284 H       
  47 H47            1.9498   -10.5784     4.5300 H       
  48 H48            2.5239    -8.4285     3.5021 H       
  49 H49           -2.6334   -10.6321     4.9160 H       
  50 H50           -3.2064    -9.0749     4.2718 H       
  51 H51           -5.8097   -11.9874     1.4586 H       
  52 H52           -4.2263   -12.3938    -0.3826 H       
  53 H53           -1.8819   -11.6700    -0.1728 H       
  54 H54           -1.1209   -10.5413     1.8788 H       
  55 H55           -3.1983     3.1668    -2.5168 H       
  56 H56           -4.2931     2.2268    -1.4749 H       
  57 H57           -1.8067     3.5534    -0.6110 H       
  58 H58           -2.5036     2.9839     1.6044 H       
  59 H59           -3.8926     2.1214     0.9012 H       
  60 H60           -2.0786     0.5381     1.4726 H       
  61 H61           -0.9511     1.4485     0.4379 H       
@<TRIPOS>BOND
   1    1    2 1
   2    1   33 1
   3    1   37 1
   4    1   38 1
   5    2    3 1
   6    2   36 1
   7    2   39 1
   8    3    4 1
   9    3   40 1
  10    4    5 ar
  11    4    9 ar
  12    5    6 ar
  13    5   41 1
  14    6    7 ar
  15    6   42 1
  16    7    8 ar
  17    7   10 1
  18    8    9 ar
  19    8   43 1
  20    9   44 1
  21   10   11 1
  22   10   45 1
  23   11   12 ar
  24   11   13 ar
  25   12   16 ar
  26   13   14 ar
  27   14   15 ar
  28   14   17 1
  29   15   16 ar
  30   15   20 1
  31   16   46 1
  32   17   18 am
  33   17   21 1
  34   18   19 1
  35   18   22 2
  36   19   20 2
  37   19   47 1
  38   20   48 1
  39   21   24 1
  40   21   49 1
  41   21   50 1
  42   23   24 ar
  43   23   25 ar
  44   23   29 1
  45   24   28 ar
  46   25   26 ar
  47   25   51 1
  48   26   27 ar
  49   26   52 1
  50   27   28 ar
  51   27   53 1
  52   28   54 1
  53   29   30 1
  54   29   31 1
  55   29   32 1
  56   33   34 1
  57   33   55 1
  58   33   56 1
  59   34   35 1
  60   34   57 1
  61   35   36 1
  62   35   58 1
  63   35   59 1
  64   36   60 1
  65   36   61 1

#	End of record

