#	Name: ASD08070121
#	Creating user name:	WinNT
#	Creation time:	15. 06. 2019 21:14

#	Modifying user name:	WinNT
#	Modification time:	15. 06. 2019 21:14

#	Program:	/corina/corina34_cracker 3.40 0067  02.08.2006

@<TRIPOS>MOLECULE
ASD08070121
  45   46    0    0    0
SMALL
NO_CHARGES


@<TRIPOS>ATOM
   1 C1            -0.0175     1.3808     0.0271 C.ar    
   2 C2             0.0706     0.1272     0.6125 C.ar    
   3 C3             1.1086     1.9553    -0.5584 C.ar    
   4 C4             1.2746    -0.5519     0.6158 C.ar    
   5 C5             2.3965     0.0184     0.0334 C.ar    
   6 C6             2.3132     1.2723    -0.5540 C.ar    
   7 N7            -1.2413     2.0681     0.0192 N.am    
   8 C8            -2.3980     1.3835    -0.0808 C.2     
   9 O9            -2.3792     0.1826    -0.2705 O.2     
  10 N10           -3.5754     2.0301     0.0294 N.am    
  11 C11           -4.8327     1.2859    -0.0793 C.3     
  12 C12           -5.9372     2.0394     0.6645 C.3     
  13 C13           -5.2157     1.1444    -1.5538 C.3     
  14 C14           -6.5287     0.3672    -1.6673 C.3     
  15 C15           -7.6332     1.1207    -0.9235 C.3     
  16 C16           -7.2502     1.2623     0.5510 C.3     
  17 C17           -5.5542     2.1809     2.1390 C.3     
  18 O18            1.0248     3.1845    -1.1337 O.3     
  19 C19            2.2192     3.7116    -1.7147 C.3     
  20 O20            3.5795    -0.6519     0.0386 O.3     
  21 C21            3.5936    -1.9382     0.6610 C.3     
  22 H22           -0.8019    -0.3188     1.0667 H       
  23 H23            1.3417    -1.5281     1.0729 H       
  24 H24            3.1873     1.7156    -1.0076 H       
  25 H25           -1.2547     3.0357     0.0856 H       
  26 H26           -3.5904     2.9881     0.1807 H       
  27 H27           -4.7083     0.2963     0.3604 H       
  28 H28           -6.0615     3.0290     0.2248 H       
  29 H29           -5.3400     2.1340    -1.9935 H       
  30 H30           -4.4288     0.6076    -2.0837 H       
  31 H31           -6.8016     0.2664    -2.7178 H       
  32 H32           -6.4044    -0.6224    -1.2276 H       
  33 H33           -7.7576     2.1103    -1.3632 H       
  34 H34           -8.5687     0.5671    -1.0044 H       
  35 H35           -7.1259     0.2727     0.9907 H       
  36 H36           -8.0371     1.7990     1.0809 H       
  37 H37           -4.6187     2.7346     2.2199 H       
  38 H38           -6.3410     2.7177     2.6689 H       
  39 H39           -5.4298     1.1914     2.5787 H       
  40 H40            2.9885     3.7991    -0.9475 H       
  41 H41            2.5660     3.0427    -2.5023 H       
  42 H42            2.0142     4.6951    -2.1375 H       
  43 H43            2.8869    -2.5950     0.1538 H       
  44 H44            4.5954    -2.3625     0.5956 H       
  45 H45            3.3091    -1.8380     1.7085 H       
@<TRIPOS>BOND
   1    1    2 ar
   2    1    3 ar
   3    1    7 1
   4    2    4 ar
   5    2   22 1
   6    3   18 1
   7    3    6 ar
   8    4    5 ar
   9    4   23 1
  10    5    6 ar
  11    5   20 1
  12    6   24 1
  13    7    8 am
  14    7   25 1
  15    8    9 2
  16    8   10 am
  17   10   11 1
  18   10   26 1
  19   11   12 1
  20   11   13 1
  21   11   27 1
  22   12   17 1
  23   12   16 1
  24   12   28 1
  25   13   14 1
  26   13   29 1
  27   13   30 1
  28   14   15 1
  29   14   31 1
  30   14   32 1
  31   15   16 1
  32   15   33 1
  33   15   34 1
  34   16   35 1
  35   16   36 1
  36   17   37 1
  37   17   38 1
  38   17   39 1
  39   18   19 1
  40   19   40 1
  41   19   41 1
  42   19   42 1
  43   20   21 1
  44   21   43 1
  45   21   44 1
  46   21   45 1

#	End of record

