#	Name: ASD07931941
#	Creating user name:	WinNT
#	Creation time:	15. 06. 2019 21:13

#	Modifying user name:	WinNT
#	Modification time:	15. 06. 2019 21:13

#	Program:	/corina/corina34_cracker 3.40 0067  02.08.2006

@<TRIPOS>MOLECULE
ASD07931941
  27   27    0    0    0
SMALL
NO_CHARGES


@<TRIPOS>ATOM
   1 C1            -0.0169     1.3934     0.0097 C.ar    
   2 C2             0.0021    -0.0041     0.0020 C.ar    
   3 N3             1.1248     2.0743     0.0025 N.ar    
   4 N4             1.1516    -0.6476    -0.0120 N.ar    
   5 C5             2.2952     0.0334    -0.0192 C.ar    
   6 C6             2.2757     1.4317    -0.0120 C.ar    
   7 C7            -1.3109     2.1168     0.0197 C.2     
   8 O8            -2.3537     1.4952     0.0213 O.2     
   9 O9            -1.3295     3.4632     0.0272 O.3     
  10 C10            3.5845    -0.6876    -0.0344 C.2     
  11 O11            3.6011    -1.8957    -0.0402 O.2     
  12 C12           -2.6322     4.1044     0.0368 C.3     
  13 C13           -3.4024     3.6757     1.2874 C.3     
  14 C14           -2.4528     5.6238     0.0442 C.3     
  15 C15           -3.4142     3.6893    -1.2110 C.3     
  16 H16           -0.9259    -0.5566     0.0079 H       
  17 H17            3.2032     1.9849    -0.0182 H       
  18 H18            4.5123    -0.1348    -0.0402 H       
  19 H19           -2.8453     3.9714     2.1764 H       
  20 H20           -4.3803     4.1570     1.2946 H       
  21 H21           -3.5303     2.5933     1.2821 H       
  22 H22           -1.9041     5.9292    -0.8467 H       
  23 H23           -3.4307     6.1052     0.0514 H       
  24 H24           -1.8957     5.9195     0.9332 H       
  25 H25           -3.5421     2.6068    -1.2163 H       
  26 H26           -4.3921     4.1706    -1.2038 H       
  27 H27           -2.8655     3.9947    -2.1020 H       
@<TRIPOS>BOND
   1    1    2 ar
   2    1    3 ar
   3    1    7 1
   4    2    4 ar
   5    2   16 1
   6    3    6 ar
   7    4    5 ar
   8    5    6 ar
   9    5   10 1
  10    6   17 1
  11    7    8 2
  12    7    9 1
  13    9   12 1
  14   10   11 2
  15   10   18 1
  16   12   13 1
  17   12   15 1
  18   12   14 1
  19   13   19 1
  20   13   20 1
  21   13   21 1
  22   14   22 1
  23   14   23 1
  24   14   24 1
  25   15   25 1
  26   15   26 1
  27   15   27 1

#	End of record

