#	Name: ASD04590069
#	Creating user name:	WinNT
#	Creation time:	15. 06. 2019 20:50

#	Modifying user name:	WinNT
#	Modification time:	15. 06. 2019 20:50

#	Program:	/corina/corina34_cracker 3.40 0067  02.08.2006

@<TRIPOS>MOLECULE
ASD04590069
  37   39    0    0    0
SMALL
NO_CHARGES


@<TRIPOS>ATOM
   1 N1            -0.0768     1.2682    -0.0495 N.pl3   
   2 N2            -0.0362    -0.0145     0.0019 N.2     
   3 C3             1.1929    -0.4417    -0.2150 C.2     
   4 C4             2.0015     0.7056    -0.4237 C.2     
   5 C5             1.1591     1.7667    -0.3105 C.2     
   6 C6             1.6419    -1.8463    -0.2362 C.2     
   7 O7             2.8103    -2.1080    -0.4488 O.2     
   8 N8             0.7573    -2.8399    -0.0200 N.am    
   9 C9             1.1620    -4.1747    -0.1363 C.ar    
  10 C10            2.4399    -4.5506     0.2561 C.ar    
  11 C11            2.8370    -5.8683     0.1409 C.ar    
  12 C12            1.9620    -6.8144    -0.3658 C.ar    
  13 C13            0.6872    -6.4418    -0.7576 C.ar    
  14 C14            0.2841    -5.1261    -0.6388 C.ar    
  15 F15            2.3527    -8.1028    -0.4784 F       
  16 N16            3.3787     0.7381    -0.6898 N.am    
  17 C17            4.0035     1.9193    -0.8648 C.2     
  18 O18            3.3734     2.9574    -0.7920 O.2     
  19 C19            6.1488     3.1040    -1.3319 C.2     
  20 C20            5.4482     1.9534    -1.1438 C.2     
  21 C21            6.2678     0.7686    -1.2453 C.2     
  22 C22            7.5424     1.0377    -1.5020 C.2     
  23 S23            7.7932     2.7699    -1.6312 S.3     
  24 C24            5.5508     4.4866    -1.2881 C.3     
  25 H25           -0.8759     1.8036     0.0759 H       
  26 H26            1.4230     2.8093    -0.4095 H       
  27 H27           -0.1597    -2.6299     0.2161 H       
  28 H28            3.1229    -3.8129     0.6506 H       
  29 H29            3.8308    -6.1610     0.4460 H       
  30 H30            0.0064    -7.1811    -1.1529 H       
  31 H31           -0.7117    -4.8367    -0.9404 H       
  32 H32            3.8811    -0.0896    -0.7478 H       
  33 H33            5.8835    -0.2334    -1.1244 H       
  34 H34            8.3173     0.2940    -1.6152 H       
  35 H35            5.5958     4.8697    -0.2686 H       
  36 H36            6.1124     5.1465    -1.9493 H       
  37 H37            4.5118     4.4436    -1.6146 H       
@<TRIPOS>BOND
   1    1    2 1
   2    1    5 1
   3    1   25 1
   4    2    3 2
   5    3    4 1
   6    3    6 1
   7    4    5 2
   8    4   16 1
   9    5   26 1
  10    6    7 2
  11    6    8 am
  12    8    9 1
  13    8   27 1
  14    9   10 ar
  15    9   14 ar
  16   10   11 ar
  17   10   28 1
  18   11   12 ar
  19   11   29 1
  20   12   13 ar
  21   12   15 1
  22   13   14 ar
  23   13   30 1
  24   14   31 1
  25   16   17 am
  26   16   32 1
  27   17   18 2
  28   17   20 1
  29   19   20 2
  30   19   23 1
  31   19   24 1
  32   20   21 1
  33   21   22 2
  34   21   33 1
  35   22   23 1
  36   22   34 1
  37   24   35 1
  38   24   36 1
  39   24   37 1

#	End of record

