#	Name: ASD00310395
#	Creating user name:	WinNT
#	Creation time:	15. 06. 2019 18:34

#	Modifying user name:	WinNT
#	Modification time:	15. 06. 2019 18:34

#	Program:	/corina/corina34_cracker 3.40 0067  02.08.2006

@<TRIPOS>MOLECULE
ASD00310395
  43   45    0    0    0
SMALL
NO_CHARGES


@<TRIPOS>ATOM
   1 N1            -0.0174     1.3561     0.0119 N.pl3   
   2 C2            -0.0000     0.0022    -0.0056 C.2     
   3 C3             1.2898    -0.4428    -0.0257 C.2     
   4 C4             2.1460     0.7587    -0.0199 C.ar    
   5 C5             3.5218     0.9621    -0.0327 C.ar    
   6 C6             4.0237     2.2572    -0.0217 C.ar    
   7 C7             3.1471     3.3475     0.0020 C.ar    
   8 C8             1.7854     3.1484     0.0147 C.ar    
   9 C9             1.2689     1.8555     0.0039 C.ar    
  10 C10            1.7368    -1.8401    -0.0486 C.2     
  11 O11            2.9250    -2.0982    -0.0647 O.2     
  12 O12            0.8300    -2.8381    -0.0517 O.3     
  13 C13            5.4897     2.4845    -0.0347 C.ar    
  14 C14            6.0511     3.3692    -0.9537 C.ar    
  15 C15            7.4143     3.5784    -0.9633 C.ar    
  16 C16            8.2271     2.9084    -0.0592 C.ar    
  17 C17            7.6710     2.0262     0.8571 C.ar    
  18 C18            6.3077     1.8179     0.8759 C.ar    
  19 O19            9.5700     3.1161    -0.0714 O.3     
  20 C20           11.5555     3.5864    -1.3664 C.3     
  21 C21           10.0891     3.9430    -1.1149 C.3     
  22 C22            9.9853     5.4122    -0.7007 C.3     
  23 O23           12.3293     3.9081    -0.2089 O.3     
  24 C24           13.7212     3.6123    -0.3396 C.3     
  25 Cl25           3.7819     4.9633     0.0162 Cl      
  26 H26           -0.8213     1.8988     0.0241 H       
  27 H27           -0.8754    -0.6303    -0.0036 H       
  28 H28            4.1956     0.1183    -0.0506 H       
  29 H29            1.1166     3.9962     0.0333 H       
  30 H30            1.1724    -3.7424    -0.0671 H       
  31 H31            5.4193     3.8903    -1.6578 H       
  32 H32            7.8498     4.2639    -1.6752 H       
  33 H33            8.3060     1.5058     1.5588 H       
  34 H34            5.8751     1.1351     1.5922 H       
  35 H35           11.6395     2.5198    -1.5747 H       
  36 H36           11.9261     4.1536    -2.2203 H       
  37 H37            9.5142     3.7811    -2.0267 H       
  38 H38           10.3812     6.0430    -1.4966 H       
  39 H39            8.9406     5.6663    -0.5215 H       
  40 H40           10.5601     5.5741     0.2111 H       
  41 H41           13.8501     2.5462    -0.5265 H       
  42 H42           14.1367     4.1800    -1.1721 H       
  43 H43           14.2385     3.8851     0.5803 H       
@<TRIPOS>BOND
   1    1    2 1
   2    1    9 1
   3    1   26 1
   4    2    3 2
   5    2   27 1
   6    3    4 1
   7    3   10 1
   8    4    5 ar
   9    4    9 ar
  10    5    6 ar
  11    5   28 1
  12    6    7 ar
  13    6   13 1
  14    7    8 ar
  15    7   25 1
  16    8    9 ar
  17    8   29 1
  18   10   11 2
  19   10   12 1
  20   12   30 1
  21   13   14 ar
  22   13   18 ar
  23   14   15 ar
  24   14   31 1
  25   15   16 ar
  26   15   32 1
  27   16   17 ar
  28   16   19 1
  29   17   18 ar
  30   17   33 1
  31   18   34 1
  32   19   21 1
  33   20   21 1
  34   20   23 1
  35   20   35 1
  36   20   36 1
  37   21   22 1
  38   21   37 1
  39   22   38 1
  40   22   39 1
  41   22   40 1
  42   23   24 1
  43   24   41 1
  44   24   42 1
  45   24   43 1

#	End of record

