#	Name: ASD00170766
#	Creating user name:	WinNT
#	Creation time:	15. 06. 2019 18:32

#	Modifying user name:	WinNT
#	Modification time:	15. 06. 2019 18:32

#	Program:	/corina/corina34_cracker 3.40 0067  02.08.2006

@<TRIPOS>MOLECULE
ASD00170766
  67   71    0    0    0
SMALL
NO_CHARGES


@<TRIPOS>ATOM
   1 C1             2.0321     1.4126     0.6617 C.3     
   2 O2             1.3922     0.1857     0.3051 O.3     
   3 C3             1.8681    -0.4627    -0.7904 C.ar    
   4 C4             1.2910    -1.6602    -1.1913 C.ar    
   5 C5             1.7709    -2.3211    -2.3021 C.ar    
   6 C6             2.8382    -1.7845    -3.0242 C.ar    
   7 C7             3.4154    -0.5800    -2.6181 C.ar    
   8 C8             2.9264     0.0771    -1.5090 C.ar    
   9 C9             3.3562    -2.4900    -4.2155 C.2     
  10 S10            3.7993    -4.1888    -4.2634 S.3     
  11 C11            4.2415    -4.0880    -5.9078 C.2     
  12 C12            4.0519    -2.8091    -6.3776 C.2     
  13 C13            3.5500    -1.9267    -5.4161 C.2     
  14 C14            3.2629    -0.4750    -5.7007 C.3     
  15 C15            1.7967    -0.3152    -6.1076 C.3     
  16 C16            0.8962    -0.7055    -4.9338 C.3     
  17 C17            1.5300     1.1413    -6.4927 C.3     
  18 C18            1.4975    -1.2218    -7.3032 C.3     
  19 C19            4.3435    -2.4103    -7.7574 C.2     
  20 O20            3.5279    -2.6190    -8.6366 O.2     
  21 C21            5.6287    -1.7543    -8.0815 C.ar    
  22 C22            6.6066    -1.6035    -7.0971 C.ar    
  23 C23            7.8036    -0.9910    -7.4063 C.ar    
  24 C24            8.0355    -0.5264    -8.6886 C.ar    
  25 C25            7.0701    -0.6727    -9.6693 C.ar    
  26 C26            5.8714    -1.2883    -9.3750 C.ar    
  27 C27            7.3314    -0.1635   -11.0634 C.3     
  28 F28            8.6056     0.4115   -11.1187 F       
  29 F29            7.2601    -1.2272   -11.9694 F       
  30 F30            6.3711     0.7978   -11.3964 F       
  31 N31            4.7244    -5.1457    -6.6640 N.am    
  32 C32            6.0292    -5.4176    -6.8466 C.2     
  33 O33            6.9566    -4.7854    -6.3828 O.2     
  34 C34            6.1452    -6.6146    -7.7056 C.ar    
  35 C35            4.8234    -7.0071    -8.0006 C.ar    
  36 C36            3.9496    -6.0381    -7.3067 C.2     
  37 O37            2.7352    -6.0426    -7.3200 O.2     
  38 C38            4.5961    -8.1161    -8.7997 C.ar    
  39 C39            5.6709    -8.8319    -9.3035 C.ar    
  40 C40            6.9667    -8.4474    -9.0139 C.ar    
  41 C41            7.2096    -7.3400    -8.2164 C.ar    
  42 H42            3.0863     1.2264     0.8666 H       
  43 H43            1.9416     2.1221    -0.1609 H       
  44 H44            1.5564     1.8253     1.5514 H       
  45 H45            0.4653    -2.0747    -0.6320 H       
  46 H46            1.3219    -3.2529    -2.6128 H       
  47 H47            4.2415    -0.1617    -3.1739 H       
  48 H48            3.3724     1.0089    -1.1941 H       
  49 H49            3.4581     0.1162    -4.8060 H       
  50 H50            3.9046    -0.1298    -6.5114 H       
  51 H51            1.1807    -0.1321    -4.0514 H       
  52 H52           -0.1425    -0.4925    -5.1862 H       
  53 H53            1.0091    -1.7698    -4.7274 H       
  54 H54            2.1715     1.4193    -7.3289 H       
  55 H55            0.4854     1.2551    -6.7825 H       
  56 H56            1.7431     1.7872    -5.6409 H       
  57 H57            1.6875    -2.2595    -7.0288 H       
  58 H58            0.4529    -1.1081    -7.5931 H       
  59 H59            2.1390    -0.9438    -8.1395 H       
  60 H60            6.4266    -1.9652    -6.0955 H       
  61 H61            8.5612    -0.8737    -6.6455 H       
  62 H62            8.9739    -0.0470    -8.9252 H       
  63 H63            5.1190    -1.4022   -10.1414 H       
  64 H64            3.5859    -8.4216    -9.0287 H       
  65 H65            5.4947    -9.6964    -9.9264 H       
  66 H66            7.7958    -9.0135    -9.4122 H       
  67 H67            8.2241    -7.0440    -7.9938 H       
@<TRIPOS>BOND
   1    1    2 1
   2    1   42 1
   3    1   43 1
   4    1   44 1
   5    2    3 1
   6    3    4 ar
   7    3    8 ar
   8    4    5 ar
   9    4   45 1
  10    5    6 ar
  11    5   46 1
  12    6    7 ar
  13    6    9 1
  14    7    8 ar
  15    7   47 1
  16    8   48 1
  17    9   10 1
  18    9   13 2
  19   10   11 1
  20   11   12 2
  21   11   31 1
  22   12   13 1
  23   12   19 1
  24   13   14 1
  25   14   15 1
  26   14   49 1
  27   14   50 1
  28   15   16 1
  29   15   17 1
  30   15   18 1
  31   16   51 1
  32   16   52 1
  33   16   53 1
  34   17   54 1
  35   17   55 1
  36   17   56 1
  37   18   57 1
  38   18   58 1
  39   18   59 1
  40   19   20 2
  41   19   21 1
  42   21   22 ar
  43   21   26 ar
  44   22   23 ar
  45   22   60 1
  46   23   24 ar
  47   23   61 1
  48   24   25 ar
  49   24   62 1
  50   25   26 ar
  51   25   27 1
  52   26   63 1
  53   27   28 1
  54   27   29 1
  55   27   30 1
  56   31   32 am
  57   31   36 am
  58   32   33 2
  59   32   34 1
  60   34   35 ar
  61   34   41 ar
  62   35   36 1
  63   35   38 ar
  64   36   37 2
  65   38   39 ar
  66   38   64 1
  67   39   40 ar
  68   39   65 1
  69   40   41 ar
  70   40   66 1
  71   41   67 1

#	End of record

