#	Name: ASD01940593
#	Creating user name:	WinNT
#	Creation time:	15. 06. 2019 20:12

#	Modifying user name:	WinNT
#	Modification time:	15. 06. 2019 20:12

#	Program:	/corina/corina34_cracker 3.40 0067  02.08.2006

@<TRIPOS>MOLECULE
ASD01940593
  61   64    0    0    0
SMALL
NO_CHARGES


@<TRIPOS>ATOM
   1 C1            -0.1227     1.7226    -1.3095 C.ar    
   2 C2            -1.0239     1.5014    -2.3421 C.ar    
   3 C3            -1.0702     2.3762    -3.4205 C.ar    
   4 C4            -0.2202     3.4645    -3.4653 C.ar    
   5 C5             0.6773     3.6863    -2.4386 C.ar    
   6 C6             0.7280     2.8158    -1.3581 C.ar    
   7 N7            -1.8824     0.4007    -2.2972 N.am    
   8 S8            -1.5716    -0.9306    -3.2319 S.o2    
   9 C9            -0.0100    -1.5855    -2.5816 C.3     
  10 O10           -2.6430    -1.8186    -2.9443 O.2     
  11 O11           -1.3862    -0.4054    -4.5392 O.2     
  12 O12            1.6108     3.0355    -0.3489 O.3     
  13 C13            2.4954     4.0592    -0.4861 C.ar    
  14 C14            3.7567     3.8212    -1.0124 C.ar    
  15 C15            4.6584     4.8619    -1.1528 C.ar    
  16 C16            4.3060     6.1445    -0.7693 C.ar    
  17 C17            3.0459     6.3912    -0.2422 C.ar    
  18 C18            2.1346     5.3466    -0.1042 C.ar    
  19 N19            2.6896     7.6885     0.1455 N.pl3   
  20 C20            3.4984     8.7721    -0.2117 C.ar    
  21 C21            4.1722     8.7671    -1.4258 C.ar    
  22 C22            4.9705     9.8387    -1.7760 C.ar    
  23 C23            5.1002    10.9167    -0.9189 C.ar    
  24 C24            4.4313    10.9262     0.2920 C.ar    
  25 C25            3.6253     9.8598     0.6460 C.ar    
  26 F26            2.9672     9.8716     1.8258 F       
  27 I27            6.3129    12.5385    -1.4556 I       
  28 N28            0.8568     5.5922     0.4239 N.am    
  29 S29            0.3857     4.8533     1.8290 S.o2    
  30 F30            5.8859     4.6252    -1.6650 F       
  31 O31           -0.9198     5.3599     2.0707 O.2     
  32 O32            0.6014     3.4699     1.5869 O.2     
  33 C33            1.5489     5.4702     3.0769 C.3     
  34 C34            1.3817     4.9627     4.5105 C.3     
  35 C35            2.5548     4.4747     3.6582 C.3     
  36 C36           -0.1802    -1.9348    -1.1018 C.3     
  37 C37            0.3794    -2.8433    -3.3609 C.3     
  38 H38           -0.0877     1.0466    -0.4679 H       
  39 H39           -1.7708     2.2052    -4.2245 H       
  40 H40           -0.2572     4.1430    -4.3047 H       
  41 H41            1.3407     4.5377    -2.4767 H       
  42 H42           -2.6608     0.4160    -1.7186 H       
  43 H43            0.7723    -0.8343    -2.6900 H       
  44 H44            4.0357     2.8220    -1.3128 H       
  45 H45            5.0123     6.9539    -0.8800 H       
  46 H46            1.8817     7.8357     0.6618 H       
  47 H47            4.0725     7.9259    -2.0957 H       
  48 H48            5.4945     9.8347    -2.7204 H       
  49 H49            4.5352    11.7690     0.9593 H       
  50 H50            0.2502     6.1946    -0.0343 H       
  51 H51            1.8795     6.5001     2.9429 H       
  52 H52            1.6028     5.6586     5.3198 H       
  53 H53            0.5728     4.2581     4.7039 H       
  54 H54            2.5177     3.4491     3.2908 H       
  55 H55            3.5477     4.8496     3.9067 H       
  56 H56            0.7581    -2.3283    -0.7110 H       
  57 H57           -0.4576    -1.0387    -0.5466 H       
  58 H58           -0.9625    -2.6861    -0.9934 H       
  59 H59            0.5007    -2.5945    -4.4152 H       
  60 H60            1.3178    -3.2369    -2.9702 H       
  61 H61           -0.4028    -3.5946    -3.2526 H       
@<TRIPOS>BOND
   1    1    2 ar
   2    1    6 ar
   3    1   38 1
   4    2    3 ar
   5    2    7 1
   6    3    4 ar
   7    3   39 1
   8    4    5 ar
   9    4   40 1
  10    5    6 ar
  11    5   41 1
  12    6   12 1
  13    7    8 am
  14    7   42 1
  15    8    9 1
  16    8   10 2
  17    8   11 2
  18    9   36 1
  19    9   37 1
  20    9   43 1
  21   12   13 1
  22   13   14 ar
  23   13   18 ar
  24   14   15 ar
  25   14   44 1
  26   15   16 ar
  27   15   30 1
  28   16   17 ar
  29   16   45 1
  30   17   18 ar
  31   17   19 1
  32   18   28 1
  33   19   20 1
  34   19   46 1
  35   20   21 ar
  36   20   25 ar
  37   21   22 ar
  38   21   47 1
  39   22   23 ar
  40   22   48 1
  41   23   24 ar
  42   23   27 1
  43   24   25 ar
  44   24   49 1
  45   25   26 1
  46   28   29 am
  47   28   50 1
  48   29   31 2
  49   29   32 2
  50   29   33 1
  51   33   34 1
  52   33   35 1
  53   33   51 1
  54   34   35 1
  55   34   52 1
  56   34   53 1
  57   35   54 1
  58   35   55 1
  59   36   56 1
  60   36   57 1
  61   36   58 1
  62   37   59 1
  63   37   60 1
  64   37   61 1

#	End of record

