#	Name: ASD04590329
#	Creating user name:	WinNT
#	Creation time:	15. 06. 2019 20:50

#	Modifying user name:	WinNT
#	Modification time:	15. 06. 2019 20:50

#	Program:	/corina/corina34_cracker 3.40 0067  02.08.2006

@<TRIPOS>MOLECULE
ASD04590329
  50   54    0    0    0
SMALL
NO_CHARGES


@<TRIPOS>ATOM
   1 C1             0.0013     1.3857     0.0449 C.ar    
   2 C2             0.0073    -0.0136    -0.0221 C.ar    
   3 C3             1.2115    -0.7045    -0.1185 C.ar    
   4 C4             2.4112     0.0065    -0.1483 C.ar    
   5 C5             2.3858     1.4128    -0.0804 C.ar    
   6 C6             1.1733     2.0851     0.0161 C.ar    
   7 N7             3.7123    -0.3671    -0.2348 N.2     
   8 C8             4.4760     0.6980    -0.2248 C.2     
   9 N9             3.7014     1.8236    -0.1305 N.pl3   
  10 C10            5.9514     0.6863    -0.3039 C.2     
  11 C11            6.7695    -0.4629    -0.4025 C.2     
  12 C12            8.0593    -0.0490    -0.4513 C.2     
  13 N13            8.0640     1.3084    -0.3864 N.pl3   
  14 N14            6.7363     1.7459    -0.3005 N.2     
  15 N15            6.3252    -1.7944    -0.4424 N.am    
  16 C16            7.2176    -2.7999    -0.5382 C.2     
  17 C17            6.7509    -4.1988    -0.5800 C.ar    
  18 O18            8.4074    -2.5541    -0.5901 O.2     
  19 C19            6.0216    -6.1175    -1.8359 C.ar    
  20 C20            5.8736    -6.8284    -0.6587 C.ar    
  21 C21            6.1551    -6.2337     0.5578 C.ar    
  22 C22            6.5928    -4.9235     0.6062 C.ar    
  23 F23            6.8677    -4.3446     1.7956 F       
  24 C24            6.4583    -4.8065    -1.8058 C.ar    
  25 F25            6.6018    -4.1136    -2.9568 F       
  26 C26           -1.2679    -0.7576     0.0101 C.2     
  27 N27           -1.3030    -2.0139     0.4970 N.am    
  28 O28           -2.2861    -0.2370    -0.4025 O.2     
  29 C29           -2.5108    -2.8360     0.6607 C.3     
  30 C30           -0.1358    -2.7935     0.9478 C.3     
  31 C31           -0.7125    -3.8317     1.9425 C.3     
  32 C32           -2.0695    -4.1818     1.2734 C.3     
  33 H33           -0.9374     1.9151     0.1155 H       
  34 H34            1.2171    -1.7833    -0.1695 H       
  35 H35            1.1581     3.1637     0.0680 H       
  36 H36            4.0190     2.7397    -0.1043 H       
  37 H37            8.9288    -0.6850    -0.5277 H       
  38 H38            8.8503     1.8761    -0.4010 H       
  39 H39            5.3762    -1.9905    -0.4010 H       
  40 H40            5.8000    -6.5897    -2.7815 H       
  41 H41            5.5316    -7.8524    -0.6894 H       
  42 H42            6.0365    -6.7959     1.4722 H       
  43 H43           -3.2116    -2.3362     1.3295 H       
  44 H44           -2.9779    -3.0058    -0.3094 H       
  45 H45            0.3330    -3.2977     0.1027 H       
  46 H46            0.5824    -2.1454     1.4499 H       
  47 H47           -0.0709    -4.7105     2.0057 H       
  48 H48           -0.8629    -3.3880     2.9267 H       
  49 H49           -2.7898    -4.5220     2.0174 H       
  50 H50           -1.9333    -4.9328     0.4952 H       
@<TRIPOS>BOND
   1    1    2 ar
   2    1    6 ar
   3    1   33 1
   4    2    3 ar
   5    2   26 1
   6    3    4 ar
   7    3   34 1
   8    4    5 ar
   9    4    7 1
  10    5    6 ar
  11    5    9 1
  12    6   35 1
  13    7    8 2
  14    8    9 1
  15    8   10 1
  16    9   36 1
  17   10   11 1
  18   10   14 2
  19   11   12 2
  20   11   15 1
  21   12   13 1
  22   12   37 1
  23   13   14 1
  24   13   38 1
  25   15   16 am
  26   15   39 1
  27   16   17 1
  28   16   18 2
  29   17   22 ar
  30   17   24 ar
  31   19   20 ar
  32   19   24 ar
  33   19   40 1
  34   20   21 ar
  35   20   41 1
  36   21   22 ar
  37   21   42 1
  38   22   23 1
  39   24   25 1
  40   26   27 am
  41   26   28 2
  42   27   29 1
  43   27   30 1
  44   29   32 1
  45   29   43 1
  46   29   44 1
  47   30   31 1
  48   30   45 1
  49   30   46 1
  50   31   32 1
  51   31   47 1
  52   31   48 1
  53   32   49 1
  54   32   50 1

#	End of record

