#	Name: ASD01200380
#	Creating user name:	WinNT
#	Creation time:	15. 06. 2019 19:09

#	Modifying user name:	WinNT
#	Modification time:	15. 06. 2019 19:09

#	Program:	/corina/corina34_cracker 3.40 0067  02.08.2006

@<TRIPOS>MOLECULE
ASD01200380
  82   85    0    0    0
SMALL
NO_CHARGES


@<TRIPOS>ATOM
   1 N1            -0.0178     1.4608     0.0101 N.pl3   
   2 C2             0.0242     0.0158     0.2478 C.3     
   3 C3            -0.9851    -0.3513     1.3375 C.3     
   4 P4            -0.3962    -0.8657    -1.2916 P.3     
   5 C5             1.1730     2.1777    -0.1556 C.ar    
   6 O6            -0.2229    -2.4505    -1.0670 O.3     
   7 O7            -1.7983    -0.5704    -1.6621 O.2     
   8 O8             0.5845    -0.3807    -2.4727 O.3     
   9 C9             0.4420    -0.8099    -3.8282 C.3     
  10 C10            1.5323    -0.1636    -4.6852 C.3     
  11 C11           -0.5761    -3.4199    -2.0556 C.3     
  12 C12           -0.2854    -4.8235    -1.5204 C.3     
  13 C13            2.3813     1.5067    -0.2228 C.ar    
  14 C14            3.5670     2.2258    -0.3887 C.ar    
  15 C15            3.5280     3.6185    -0.4860 C.ar    
  16 C16            2.3206     4.2816    -0.4184 C.ar    
  17 C17            1.1417     3.5685    -0.2589 C.ar    
  18 N18           -2.3311     0.0338     0.9063 N.pl3   
  19 O19           -0.0455     4.2268    -0.1928 O.3     
  20 C20            4.8594     1.5151    -0.4605 C.2     
  21 N21            6.0184     2.0935    -0.6136 N.2     
  22 C22            7.0713     1.3224    -0.6581 C.2     
  23 C23            6.7907    -0.0126    -0.5339 C.2     
  24 S24            5.0467    -0.1801    -0.3474 S.3     
  25 C25            7.7655    -1.1039    -0.5477 C.2     
  26 C26            8.4707     1.8540    -0.8316 C.3     
  27 O27            7.3505    -2.3807    -0.4149 O.3     
  28 O28            8.9499    -0.8598    -0.6788 O.2     
  29 C29            8.3565    -3.3954    -0.4372 C.3     
  30 C30            7.7002    -4.7679    -0.2743 C.3     
  31 C31           -3.3902    -0.1951     1.7130 C.2     
  32 N32           -3.2087    -0.7604     2.8773 N.2     
  33 C33           -4.2382    -1.0376     3.6920 C.2     
  34 N34           -5.5073    -1.0150     3.2497 N.am    
  35 C35           -5.7927    -0.7891     1.8300 C.3     
  36 C36           -4.7721     0.2089     1.2666 C.3     
  37 O37           -4.0182    -1.3159     4.8563 O.2     
  38 F38           -5.0583     1.4944     1.7384 F       
  39 C39           -6.6110    -1.2178     4.1915 C.3     
  40 C40           -6.5251    -2.6568     4.7543 C.3     
  41 S41           -7.0639    -2.3742     6.4945 S.3     
  42 C42           -6.3713    -0.6687     6.5482 C.3     
  43 O43           -6.5441    -0.2166     5.1925 O.3     
  44 C44           -7.1645     0.2090     7.5184 C.3     
  45 O45           -8.5340     0.2507     7.1123 O.3     
  46 H46           -0.8709     1.9201    -0.0365 H       
  47 H47            1.0257    -0.2707     0.5686 H       
  48 H48           -0.9538    -1.4264     1.5144 H       
  49 H49           -0.7337     0.1758     2.2579 H       
  50 H50            0.5364    -1.8947    -3.8776 H       
  51 H51           -0.5379    -0.5131    -4.2022 H       
  52 H52            1.4378     0.9212    -4.6358 H       
  53 H53            2.5121    -0.4604    -4.3112 H       
  54 H54            1.4235    -0.4910    -5.7192 H       
  55 H55           -1.6375    -3.3322    -2.2877 H       
  56 H56            0.0088    -3.2473    -2.9591 H       
  57 H57           -0.8703    -4.9961    -0.6170 H       
  58 H58           -0.5549    -5.5629    -2.2745 H       
  59 H59            0.7760    -4.9113    -1.2883 H       
  60 H60            2.4075     0.4297    -0.1468 H       
  61 H61            4.4438     4.1765    -0.6139 H       
  62 H62            2.2927     5.3586    -0.4935 H       
  63 H63           -2.4620     0.4531     0.0415 H       
  64 H64           -0.4713     4.3572    -1.0512 H       
  65 H65            8.9063     2.0567     0.1469 H       
  66 H66            9.0781     1.1147    -1.3536 H       
  67 H67            8.4400     2.7752    -1.4134 H       
  68 H68            8.8894    -3.3580    -1.3873 H       
  69 H69            9.0585    -3.2291     0.3799 H       
  70 H70            7.1673    -4.8054     0.6758 H       
  71 H71            6.9982    -4.9342    -1.0914 H       
  72 H72            8.4675    -5.5419    -0.2913 H       
  73 H73           -5.7215    -1.7329     1.2894 H       
  74 H74           -6.7975    -0.3808     1.7209 H       
  75 H75           -4.8196     0.2011     0.1776 H       
  76 H76           -7.5527    -1.1085     3.6536 H       
  77 H77           -7.2106    -3.3251     4.2333 H       
  78 H78           -5.5035    -3.0348     4.7148 H       
  79 H79           -5.3154    -0.6884     6.8177 H       
  80 H80           -7.0962    -0.2069     8.5236 H       
  81 H81           -6.7534     1.2185     7.5142 H       
  82 H82           -9.0974     0.7906     7.6834 H       
@<TRIPOS>BOND
   1    1    2 1
   2    1    5 1
   3    1   46 1
   4    2    3 1
   5    2    4 1
   6    2   47 1
   7    3   18 1
   8    3   48 1
   9    3   49 1
  10    4    6 1
  11    4    7 2
  12    4    8 1
  13    5   13 ar
  14    5   17 ar
  15    6   11 1
  16    8    9 1
  17    9   10 1
  18    9   50 1
  19    9   51 1
  20   10   52 1
  21   10   53 1
  22   10   54 1
  23   11   12 1
  24   11   55 1
  25   11   56 1
  26   12   57 1
  27   12   58 1
  28   12   59 1
  29   13   14 ar
  30   13   60 1
  31   14   15 ar
  32   14   20 1
  33   15   16 ar
  34   15   61 1
  35   16   17 ar
  36   16   62 1
  37   17   19 1
  38   18   31 1
  39   18   63 1
  40   19   64 1
  41   20   21 2
  42   20   24 1
  43   21   22 1
  44   22   23 2
  45   22   26 1
  46   23   24 1
  47   23   25 1
  48   25   27 1
  49   25   28 2
  50   26   65 1
  51   26   66 1
  52   26   67 1
  53   27   29 1
  54   29   30 1
  55   29   68 1
  56   29   69 1
  57   30   70 1
  58   30   71 1
  59   30   72 1
  60   31   32 2
  61   31   36 1
  62   32   33 1
  63   33   34 am
  64   33   37 2
  65   34   35 1
  66   34   39 1
  67   35   36 1
  68   35   73 1
  69   35   74 1
  70   36   38 1
  71   36   75 1
  72   39   40 1
  73   39   43 1
  74   39   76 1
  75   40   41 1
  76   40   77 1
  77   40   78 1
  78   41   42 1
  79   42   43 1
  80   42   44 1
  81   42   79 1
  82   44   45 1
  83   44   80 1
  84   44   81 1
  85   45   82 1

#	End of record

