#	Name: ASD05740038
#	Creating user name:	WinNT
#	Creation time:	15. 06. 2019 21:02

#	Modifying user name:	WinNT
#	Modification time:	15. 06. 2019 21:02

#	Program:	/corina/corina34_cracker 3.40 0067  02.08.2006

@<TRIPOS>MOLECULE
ASD05740038
  47   50    0    0    0
SMALL
NO_CHARGES


@<TRIPOS>ATOM
   1 C1            -0.0184     1.5028     0.0103 C.3     
   2 C2             1.2820    -0.7399    -0.0142 C.2     
   3 C3             1.2323    -2.1974    -0.0214 C.2     
   4 C4             0.0021    -0.0041     0.0020 C.2     
   5 C5            -1.1528    -0.7105     0.0097 C.2     
   6 C6            -1.1312    -2.1174     0.0029 C.2     
   7 O7             0.0102    -2.8151    -0.0117 O.3     
   8 C8            -2.4729     0.0162     0.0262 C.3     
   9 C9            -2.9865     0.1571    -1.3836 C.ar    
  10 C10           -2.7424     1.3116    -2.1164 C.ar    
  11 O11           -2.1888    -2.7212     0.0109 O.2     
  12 C12           -4.1649    -0.6956    -3.2852 C.ar    
  13 N13           -3.9153     0.4228    -3.9472 N.ar    
  14 C14           -3.2259     1.4094    -3.4051 C.ar    
  15 N15           -4.8954    -1.7102    -3.8959 N.am    
  16 S16           -5.4485    -1.5154    -5.4446 S.o2    
  17 O17           -6.1566    -2.7168    -5.7175 O.2     
  18 O18           -6.1153    -0.2607    -5.4233 O.2     
  19 C19            2.4589    -2.7504    -0.0365 C.2     
  20 S20            3.7041    -1.5184    -0.0424 S.3     
  21 C21            2.5639    -0.2564    -0.0302 C.2     
  22 O22            2.6999    -4.0888    -0.0456 O.3     
  23 C23            3.9901    -4.5027    -0.0607 C.2     
  24 N24            5.0211    -3.7181    -0.0616 N.2     
  25 S25            4.4943    -6.1363    -0.0739 S.3     
  26 C26            6.1806    -5.6266    -0.0878 C.2     
  27 C27            6.2098    -4.2931    -0.0770 C.2     
  28 C28           -3.7073    -0.8634    -1.9798 C.ar    
  29 F29           -3.9631    -2.0059    -1.3057 F       
  30 C30           -3.9442    -1.4198    -6.4538 C.3     
  31 C31           -4.3271    -1.2373    -7.9238 C.3     
  32 H32            1.0042     1.8801     0.0026 H       
  33 H33           -0.5455     1.8639    -0.8728 H       
  34 H34           -0.5286     1.8543     0.9071 H       
  35 H35           -3.1914    -0.5490     0.6198 H       
  36 H36           -2.3378     1.0052     0.4642 H       
  37 H37           -2.1800     2.1247    -1.6818 H       
  38 H38           -3.0380     2.3055    -3.9779 H       
  39 H39           -5.0807    -2.5317    -3.4144 H       
  40 H40            2.8182     0.7932    -0.0292 H       
  41 H41            7.0406    -6.2798    -0.0995 H       
  42 H42            7.1309    -3.7293    -0.0825 H       
  43 H43           -3.3410    -0.5726    -6.1275 H       
  44 H44           -3.3708    -2.3397    -6.3392 H       
  45 H45           -4.9303    -2.0845    -8.2501 H       
  46 H46           -4.9005    -0.3175    -8.0384 H       
  47 H47           -3.4232    -1.1799    -8.5303 H       
@<TRIPOS>BOND
   1    1    4 1
   2    1   32 1
   3    1   33 1
   4    1   34 1
   5    2    3 1
   6    2    4 1
   7    2   21 2
   8    3   19 2
   9    3    7 1
  10    4    5 2
  11    5    6 1
  12    5    8 1
  13    6    7 1
  14    6   11 2
  15    8    9 1
  16    8   35 1
  17    8   36 1
  18    9   10 ar
  19    9   28 ar
  20   10   14 ar
  21   10   37 1
  22   12   13 ar
  23   12   15 1
  24   12   28 ar
  25   13   14 ar
  26   14   38 1
  27   15   16 am
  28   15   39 1
  29   16   17 2
  30   16   18 2
  31   16   30 1
  32   19   20 1
  33   19   22 1
  34   20   21 1
  35   21   40 1
  36   22   23 1
  37   23   25 1
  38   23   24 2
  39   24   27 1
  40   25   26 1
  41   26   27 2
  42   26   41 1
  43   27   42 1
  44   28   29 1
  45   30   31 1
  46   30   43 1
  47   30   44 1
  48   31   45 1
  49   31   46 1
  50   31   47 1

#	End of record

