#	Name: ASD04880969
#	Creating user name:	WinNT
#	Creation time:	15. 06. 2019 20:53

#	Modifying user name:	WinNT
#	Modification time:	15. 06. 2019 20:53

#	Program:	/corina/corina34_cracker 3.40 0067  02.08.2006

@<TRIPOS>MOLECULE
ASD04880969
  81   85    0    0    0
SMALL
NO_CHARGES


@<TRIPOS>ATOM
   1 C1             0.5468     2.2606     0.5878 C.2     
   2 C2             0.3539     0.8487     0.2429 C.2     
   3 O3            -0.7349     0.4578    -0.1353 O.2     
   4 N4             1.3824    -0.0164     0.3447 N.am    
   5 C5             1.1744    -1.3802     0.1147 C.ar    
   6 C6             2.2497    -2.2048    -0.1955 C.ar    
   7 C7             2.0494    -3.5530    -0.4237 C.ar    
   8 C8             0.7802    -4.0899    -0.3456 C.ar    
   9 C9            -0.3063    -3.2705    -0.0352 C.ar    
  10 C10           -0.1033    -1.9109     0.2016 C.ar    
  11 C11           -1.6671    -3.8428     0.0482 C.2     
  12 O12           -2.6118    -3.1274     0.3186 O.2     
  13 N13           -1.8599    -5.1578    -0.1757 N.am    
  14 C14           -3.2082    -5.7249    -0.0930 C.3     
  15 C15           -3.1494    -7.2251    -0.3878 C.3     
  16 C16            3.6385    -1.6264    -0.2838 C.3     
  17 C17            4.5125    -2.2228     0.8230 C.3     
  18 C18            5.9366    -1.6783     0.6910 C.3     
  19 N19            6.4768    -2.0319    -0.6279 N.3     
  20 C20            5.6813    -1.4310    -1.7061 C.3     
  21 C21            4.2495    -1.9681    -1.6456 C.3     
  22 C22           -4.5575    -7.8174    -0.3015 C.3     
  23 N23           -4.5012    -9.2538    -0.5838 N.am    
  24 C24           -4.3024   -10.2909     0.4354 C.3     
  25 C25           -3.8809   -11.5575    -0.3420 C.3     
  26 C26           -4.5073   -11.2975    -1.7316 C.3     
  27 C27           -4.6307    -9.7917    -1.8089 C.2     
  28 O28           -4.8167    -9.1613    -2.8282 O.2     
  29 O29            1.6959     2.8220     1.0172 O.3     
  30 C30            1.4985     4.1290     1.2335 C.2     
  31 C31            0.2128     4.4282     0.9446 C.2     
  32 C32           -0.4038     3.2392     0.5249 C.2     
  33 C33            2.5387     5.1050     1.7197 C.3     
  34 C34            7.8899    -1.6461    -0.7387 C.3     
  35 C35            8.5106    -2.3460    -1.9202 C.ar    
  36 C36            8.7311    -1.6535    -3.0963 C.ar    
  37 C37            9.3003    -2.2955    -4.1799 C.ar    
  38 C38            9.6496    -3.6300    -4.0876 C.ar    
  39 C39            9.4301    -4.3220    -2.9115 C.ar    
  40 C40            8.8647    -3.6787    -1.8261 C.ar    
  41 C41            8.6301    -4.4319    -0.5421 C.3     
  42 H42            2.2668     0.3068     0.5774 H       
  43 H43            2.8887    -4.1887    -0.6643 H       
  44 H44            0.6277    -5.1439    -0.5249 H       
  45 H45           -0.9394    -1.2729     0.4472 H       
  46 H46           -1.1060    -5.7287    -0.3915 H       
  47 H47           -3.6080    -5.5669     0.9086 H       
  48 H48           -3.8533    -5.2362    -0.8231 H       
  49 H49           -2.7495    -7.3832    -1.3894 H       
  50 H50           -2.5043    -7.7139     0.3423 H       
  51 H51            3.5904    -0.5438    -0.1664 H       
  52 H52            4.1061    -1.9467     1.7961 H       
  53 H53            4.5279    -3.3086     0.7292 H       
  54 H54            5.9222    -0.5937     0.7986 H       
  55 H55            6.5649    -2.1120     1.4690 H       
  56 H56            5.6680    -0.3476    -1.5872 H       
  57 H57            6.1241    -1.6851    -2.6691 H       
  58 H58            4.2608    -3.0500    -1.7782 H       
  59 H59            3.6553    -1.5101    -2.4363 H       
  60 H60           -4.9573    -7.6593     0.7001 H       
  61 H61           -5.2026    -7.3286    -1.0316 H       
  62 H62           -3.5146    -9.9935     1.1275 H       
  63 H63           -5.2316   -10.4718     0.9757 H       
  64 H64           -2.7955   -11.6298    -0.4108 H       
  65 H65           -4.3019   -12.4534     0.1142 H       
  66 H66           -3.8541   -11.6705    -2.5204 H       
  67 H67           -5.4916   -11.7610    -1.7991 H       
  68 H68           -0.2519     5.4003     1.0188 H       
  69 H69           -1.4313     3.1207     0.2142 H       
  70 H70            3.4841     4.5837     1.8699 H       
  71 H71            2.6722     5.8930     0.9785 H       
  72 H72            2.2123     5.5443     2.6623 H       
  73 H73            7.9624    -0.5673    -0.8763 H       
  74 H74            8.4171    -1.9325     0.1714 H       
  75 H75            8.4582    -0.6111    -3.1684 H       
  76 H76            9.4718    -1.7547    -5.0989 H       
  77 H77           10.0938    -4.1318    -4.9345 H       
  78 H78            9.7027    -5.3646    -2.8395 H       
  79 H79            7.6122    -4.8215    -0.5302 H       
  80 H80            9.3365    -5.2590    -0.4718 H       
  81 H81            8.7719    -3.7600     0.3044 H       
@<TRIPOS>BOND
   1    1    2 1
   2    1   29 1
   3    1   32 2
   4    2    3 2
   5    2    4 am
   6    4    5 1
   7    4   42 1
   8    5    6 ar
   9    5   10 ar
  10    6    7 ar
  11    6   16 1
  12    7    8 ar
  13    7   43 1
  14    8    9 ar
  15    8   44 1
  16    9   10 ar
  17    9   11 1
  18   10   45 1
  19   11   12 2
  20   11   13 am
  21   13   14 1
  22   13   46 1
  23   14   15 1
  24   14   47 1
  25   14   48 1
  26   15   22 1
  27   15   49 1
  28   15   50 1
  29   16   17 1
  30   16   21 1
  31   16   51 1
  32   17   18 1
  33   17   52 1
  34   17   53 1
  35   18   19 1
  36   18   54 1
  37   18   55 1
  38   19   20 1
  39   19   34 1
  40   20   21 1
  41   20   56 1
  42   20   57 1
  43   21   58 1
  44   21   59 1
  45   22   23 1
  46   22   60 1
  47   22   61 1
  48   23   24 1
  49   23   27 am
  50   24   25 1
  51   24   62 1
  52   24   63 1
  53   25   26 1
  54   25   64 1
  55   25   65 1
  56   26   27 1
  57   26   66 1
  58   26   67 1
  59   27   28 2
  60   29   30 1
  61   30   31 2
  62   30   33 1
  63   31   32 1
  64   31   68 1
  65   32   69 1
  66   33   70 1
  67   33   71 1
  68   33   72 1
  69   34   35 1
  70   34   73 1
  71   34   74 1
  72   35   36 ar
  73   35   40 ar
  74   36   37 ar
  75   36   75 1
  76   37   38 ar
  77   37   76 1
  78   38   39 ar
  79   38   77 1
  80   39   40 ar
  81   39   78 1
  82   40   41 1
  83   41   79 1
  84   41   80 1
  85   41   81 1

#	End of record

