#	Name: ASD00170528
#	Creating user name:	WinNT
#	Creation time:	15. 06. 2019 18:32

#	Modifying user name:	WinNT
#	Modification time:	15. 06. 2019 18:32

#	Program:	/corina/corina34_cracker 3.40 0067  02.08.2006

@<TRIPOS>MOLECULE
ASD00170528
  49   51    0    0    0
SMALL
NO_CHARGES


@<TRIPOS>ATOM
   1 C1             0.4391     1.8062     0.6775 C.3     
   2 N2             0.3814     0.3477     0.5117 N.3     
   3 C3            -1.0079    -0.1307     0.5374 C.3     
   4 C4            -1.0297    -1.6397     0.2827 C.3     
   5 N5            -0.2230    -2.3185     1.3065 N.3     
   6 C6             1.1662    -1.8401     1.2808 C.3     
   7 C7             1.1881    -0.3311     1.5355 C.3     
   8 C8            -0.2807    -3.7769     1.1407 C.3     
   9 C9             0.7399    -4.4255     2.0399 C.2     
  10 C10            1.9198    -4.8504     1.6156 C.2     
  11 S11            2.8449    -5.5489     2.9325 S.3     
  12 C12            1.6039    -5.2535     4.0629 C.2     
  13 C13            0.5317    -4.6412     3.4563 C.2     
  14 C14           -0.6901    -4.2584     4.1637 C.2     
  15 O15           -0.7971    -3.1396     4.6324 O.2     
  16 C16           -1.7952    -5.2301     4.3097 C.ar    
  17 C17           -2.9162    -4.9064     5.0762 C.ar    
  18 C18           -3.9436    -5.8166     5.2088 C.ar    
  19 C19           -3.8649    -7.0500     4.5833 C.ar    
  20 C20           -2.7551    -7.3768     3.8216 C.ar    
  21 C21           -1.7241    -6.4725     3.6770 C.ar    
  22 Cl22          -5.1619    -8.1909     4.7552 Cl      
  23 N23            1.6682    -5.5784     5.4027 N.pl3   
  24 C24            1.8999     2.2515     0.7706 C.3     
  25 C25           -0.2247     2.4826    -0.5235 C.3     
  26 H26           -0.0858     2.0892     1.5899 H       
  27 H27           -1.4470     0.0799     1.5125 H       
  28 H28           -1.5818     0.3773    -0.2376 H       
  29 H29           -2.0568    -2.0016     0.3300 H       
  30 H30           -0.6155    -1.8480    -0.7038 H       
  31 H31            1.7402    -2.3480     2.0558 H       
  32 H32            1.6054    -2.0506     0.3056 H       
  33 H33            2.2152     0.0309     1.4882 H       
  34 H34            0.7739    -0.1227     2.5220 H       
  35 H35           -1.2764    -4.1335     1.4047 H       
  36 H36           -0.0662    -4.0334     0.1032 H       
  37 H37            2.2662    -4.7774     0.5952 H       
  38 H38           -2.9786    -3.9452     5.5646 H       
  39 H39           -4.8112    -5.5675     5.8017 H       
  40 H40           -2.6993    -8.3400     3.3362 H       
  41 H41           -0.8595    -6.7283     3.0825 H       
  42 H42            2.4273    -6.0758     5.7452 H       
  43 H43            0.9543    -5.3095     6.0017 H       
  44 H44            2.4249     1.9685    -0.1418 H       
  45 H45            1.9427     3.3337     0.8936 H       
  46 H46            2.3728     1.7695     1.6263 H       
  47 H47           -1.2654     2.1654    -0.5899 H       
  48 H48           -0.1819     3.5648    -0.4005 H       
  49 H49            0.3002     2.1996    -1.4359 H       
@<TRIPOS>BOND
   1    1    2 1
   2    1   24 1
   3    1   25 1
   4    1   26 1
   5    2    3 1
   6    2    7 1
   7    3    4 1
   8    3   27 1
   9    3   28 1
  10    4    5 1
  11    4   29 1
  12    4   30 1
  13    5    6 1
  14    5    8 1
  15    6    7 1
  16    6   31 1
  17    6   32 1
  18    7   33 1
  19    7   34 1
  20    8    9 1
  21    8   35 1
  22    8   36 1
  23    9   10 2
  24    9   13 1
  25   10   11 1
  26   10   37 1
  27   11   12 1
  28   12   13 2
  29   12   23 1
  30   13   14 1
  31   14   15 2
  32   14   16 1
  33   16   17 ar
  34   16   21 ar
  35   17   18 ar
  36   17   38 1
  37   18   19 ar
  38   18   39 1
  39   19   20 ar
  40   19   22 1
  41   20   21 ar
  42   20   40 1
  43   21   41 1
  44   23   42 1
  45   23   43 1
  46   24   44 1
  47   24   45 1
  48   24   46 1
  49   25   47 1
  50   25   48 1
  51   25   49 1

#	End of record

