#	Name: ASD01190112
#	Creating user name:	WinNT
#	Creation time:	15. 06. 2019 19:07

#	Modifying user name:	WinNT
#	Modification time:	15. 06. 2019 19:07

#	Program:	/corina/corina34_cracker 3.40 0067  02.08.2006

@<TRIPOS>MOLECULE
ASD01190112
  55   59    0    0    0
SMALL
NO_CHARGES


@<TRIPOS>ATOM
   1 C1             0.0692     1.6066    -1.1813 C.3     
   2 C2             0.0893     0.0931    -0.9582 C.3     
   3 C3            -1.3242    -0.3931    -0.6321 C.3     
   4 O4             1.4049     2.0780    -1.3707 O.3     
   5 O5             0.5553    -0.5568    -2.1425 O.3     
   6 C6            -0.5483    -3.9123     3.0652 C.ar    
   7 N7            -0.8362    -4.4845     1.9162 N.ar    
   8 C8            -1.0710    -3.7408     0.8355 C.ar    
   9 C9            -1.0064    -2.3360     0.9420 C.ar    
  10 C10           -0.6977    -1.7856     2.1813 C.ar    
  11 N11           -0.4790    -2.6002     3.2025 N.ar    
  12 N12           -1.2857    -1.8199    -0.3017 N.pl3   
  13 C13           -1.4077    -4.0217    -0.5563 C.2     
  14 C14           -1.5222    -2.8356    -1.1819 C.2     
  15 C15           -1.5916    -5.3829    -1.1763 C.3     
  16 C16           -2.6318    -6.1708    -0.3775 C.3     
  17 O17           -2.0389    -5.2353    -2.5254 O.3     
  18 N18            3.2939    -8.1461    -0.8510 N.pl3   
  19 N19            3.3990    -8.2354     0.5409 N.2     
  20 C20            2.3706    -7.6678     1.1049 C.2     
  21 C21            1.5057    -7.1572     0.0460 C.ar    
  22 C22            0.2869    -6.4698     0.0324 C.ar    
  23 C23           -0.2794    -6.1237    -1.1602 C.ar    
  24 C24            0.3424    -6.4483    -2.3598 C.ar    
  25 C25            1.5323    -7.1194    -2.3721 C.ar    
  26 C26            2.1341    -7.4852    -1.1711 C.ar    
  27 C27            4.2255    -8.6454    -1.7705 C.ar    
  28 C28            5.5812    -8.6190    -1.4706 C.ar    
  29 C29            6.4979    -9.1117    -2.3784 C.ar    
  30 C30            6.0660    -9.6318    -3.5871 C.ar    
  31 C31            4.7145    -9.6590    -3.8880 C.ar    
  32 C32            3.7941    -9.1726    -2.9806 C.ar    
  33 F33            6.9644   -10.1129    -4.4740 F       
  34 F34           -3.8501    -5.4832    -0.3923 F       
  35 F35           -2.8026    -7.4345    -0.9530 F       
  36 F36           -2.1940    -6.3153     0.9434 F       
  37 Cl37          -0.6005    -0.0644     2.3858 Cl      
  38 H38           -0.5257     1.8357    -2.0655 H       
  39 H39           -0.3690     2.0963    -0.3117 H       
  40 H40            0.7553    -0.1430    -0.1282 H       
  41 H41           -1.7138     0.1664     0.2183 H       
  42 H42           -1.9703    -0.2376    -1.4961 H       
  43 H43            1.4683     3.0316    -1.5180 H       
  44 H44            0.0092    -0.3907    -2.9231 H       
  45 H45           -0.3666    -4.5369     3.9273 H       
  46 H46           -1.7650    -2.7066    -2.2263 H       
  47 H47           -1.4272    -4.7444    -3.0911 H       
  48 H48            2.1902    -7.5894     2.1668 H       
  49 H49           -0.2029    -6.2146     0.9604 H       
  50 H50           -0.1209    -6.1669    -3.2939 H       
  51 H51            2.0050    -7.3659    -3.3113 H       
  52 H52            5.9184    -8.2132    -0.5283 H       
  53 H53            7.5523    -9.0911    -2.1457 H       
  54 H54            4.3798   -10.0647    -4.8313 H       
  55 H55            2.7399    -9.1984    -3.2137 H       
@<TRIPOS>BOND
   1    1    2 1
   2    1    4 1
   3    1   38 1
   4    1   39 1
   5    2    3 1
   6    2    5 1
   7    2   40 1
   8    3   12 1
   9    3   41 1
  10    3   42 1
  11    4   43 1
  12    5   44 1
  13    6    7 ar
  14    6   11 ar
  15    6   45 1
  16    7    8 ar
  17    8    9 ar
  18    8   13 1
  19    9   10 ar
  20    9   12 1
  21   10   11 ar
  22   10   37 1
  23   12   14 1
  24   13   14 2
  25   13   15 1
  26   14   46 1
  27   15   16 1
  28   15   17 1
  29   15   23 1
  30   16   34 1
  31   16   35 1
  32   16   36 1
  33   17   47 1
  34   18   19 1
  35   18   26 1
  36   18   27 1
  37   19   20 2
  38   20   21 1
  39   20   48 1
  40   21   22 ar
  41   21   26 ar
  42   22   23 ar
  43   22   49 1
  44   23   24 ar
  45   24   25 ar
  46   24   50 1
  47   25   26 ar
  48   25   51 1
  49   27   28 ar
  50   27   32 ar
  51   28   29 ar
  52   28   52 1
  53   29   30 ar
  54   29   53 1
  55   30   31 ar
  56   30   33 1
  57   31   32 ar
  58   31   54 1
  59   32   55 1

#	End of record

