#	Name: ASD01884969
#	Creating user name:	WinNT
#	Creation time:	15. 06. 2019 19:49

#	Modifying user name:	WinNT
#	Modification time:	15. 06. 2019 19:49

#	Program:	/corina/corina34_cracker 3.40 0067  02.08.2006

@<TRIPOS>MOLECULE
ASD01884969
  51   56    0    0    0
SMALL
NO_CHARGES


@<TRIPOS>ATOM
   1 C1             0.0393     1.4359    -0.2846 C.ar    
   2 C2             0.1454     0.1520    -0.7774 C.ar    
   3 C3            -0.9335    -0.4282    -1.4453 C.ar    
   4 C4            -2.1158     0.2924    -1.6122 C.ar    
   5 C5            -2.2156     1.5756    -1.1171 C.ar    
   6 C6            -1.1427     2.1489    -0.4483 C.ar    
   7 C7            -0.8231    -1.8068    -1.9764 C.2     
   8 C8            -1.6137    -2.8179    -1.4631 C.2     
   9 C9             0.0892    -2.1005    -3.0192 C.2     
  10 C10            0.1875    -3.3537    -3.5007 C.2     
  11 N11           -0.5859    -4.3594    -2.9965 N.pl3   
  12 C12           -1.4866    -4.1152    -1.9878 C.2     
  13 C13           -0.6979    -5.6864    -3.2811 C.2     
  14 N14           -1.6059    -6.1854    -2.4829 N.2     
  15 N15           -2.0792    -5.2677    -1.7153 N.2     
  16 C16            0.0821    -6.4421    -4.3260 C.3     
  17 Cl17           1.3805     2.1592     0.5472 Cl      
  18 C18            0.9528    -7.6074    -3.8520 C.3     
  19 C19           -0.3419    -7.8826    -4.6194 C.3     
  20 O20           -1.2446     3.4133     0.0386 O.3     
  21 C21           -2.4462     4.0373    -0.0555 C.ar    
  22 C22           -3.3981     3.9096     0.9532 C.ar    
  23 C23           -4.6078     4.5599     0.8201 C.ar    
  24 N24           -4.8670     5.2945    -0.2450 N.ar    
  25 C25           -3.9910     5.4396    -1.2214 C.ar    
  26 C26           -2.7568     4.8266    -1.1606 C.ar    
  27 C27           -4.3412     6.2905    -2.4148 C.3     
  28 C28           -3.8855     7.7510    -2.3994 C.3     
  29 C29           -3.1943     6.7436    -3.3204 C.3     
  30 C30           -2.5968    -2.5332    -0.3570 C.3     
  31 F31           -3.8588    -2.2848    -0.9073 F       
  32 F32           -2.6701    -3.6384     0.4976 F       
  33 F33           -2.1742    -1.4122     0.3654 F       
  34 H34            1.0625    -0.4033    -0.6468 H       
  35 H35           -2.9524    -0.1540    -2.1290 H       
  36 H36           -3.1310     2.1339    -1.2466 H       
  37 H37            0.7079    -1.3162    -3.4296 H       
  38 H38            0.8867    -3.5661    -4.2959 H       
  39 H39            0.4503    -5.8455    -5.1606 H       
  40 H40            1.8938    -7.7778    -4.3751 H       
  41 H41            0.9616    -7.8275    -2.7845 H       
  42 H42           -1.1849    -8.2837    -4.0568 H       
  43 H43           -0.2527    -8.2340    -5.6474 H       
  44 H44           -3.1924     3.3096     1.8273 H       
  45 H45           -5.3520     4.4662     1.5972 H       
  46 H46           -2.0443     4.9497    -1.9629 H       
  47 H47           -5.2977     6.0667    -2.8873 H       
  48 H48           -4.5420     8.4880    -2.8620 H       
  49 H49           -3.3324     8.0964    -1.5260 H       
  50 H50           -2.1864     6.4263    -3.0529 H       
  51 H51           -3.3959     6.8179    -4.3890 H       
@<TRIPOS>BOND
   1    1    2 ar
   2    1   17 1
   3    1    6 ar
   4    2    3 ar
   5    2   34 1
   6    3    4 ar
   7    3    7 1
   8    4    5 ar
   9    4   35 1
  10    5    6 ar
  11    5   36 1
  12    6   20 1
  13    7    8 2
  14    7    9 1
  15    8   30 1
  16    8   12 1
  17    9   10 2
  18    9   37 1
  19   10   11 1
  20   10   38 1
  21   11   12 1
  22   11   13 1
  23   12   15 2
  24   13   14 2
  25   13   16 1
  26   14   15 1
  27   16   18 1
  28   16   19 1
  29   16   39 1
  30   18   19 1
  31   18   40 1
  32   18   41 1
  33   19   42 1
  34   19   43 1
  35   20   21 1
  36   21   22 ar
  37   21   26 ar
  38   22   23 ar
  39   22   44 1
  40   23   24 ar
  41   23   45 1
  42   24   25 ar
  43   25   26 ar
  44   25   27 1
  45   26   46 1
  46   27   28 1
  47   27   29 1
  48   27   47 1
  49   28   29 1
  50   28   48 1
  51   28   49 1
  52   29   50 1
  53   29   51 1
  54   30   31 1
  55   30   32 1
  56   30   33 1

#	End of record

