#	Name: ASD01148834
#	Creating user name:	WinNT
#	Creation time:	15. 06. 2019 19:03

#	Modifying user name:	WinNT
#	Modification time:	15. 06. 2019 19:03

#	Program:	/corina/corina34_cracker 3.40 0067  02.08.2006

@<TRIPOS>MOLECULE
ASD01148834
  44   46    0    0    0
SMALL
NO_CHARGES


@<TRIPOS>ATOM
   1 N1            -0.0158     1.3476     0.0842 N.pl3   
   2 C2             0.0023     0.0052    -0.1111 C.2     
   3 C3             1.3181    -0.4041    -0.1579 C.2     
   4 C4             2.1208     0.7544     0.0186 C.2     
   5 C5             1.2790     1.8085     0.1639 C.2     
   6 C6             1.7997    -1.7808    -0.3537 C.2     
   7 O7             1.0040    -2.6889    -0.4937 O.2     
   8 O8             3.1232    -2.0347    -0.3779 O.3     
   9 C9            -1.2060    -0.8844    -0.2519 C.3     
  10 C10            1.6839     3.2153     0.3727 C.ar    
  11 C11            0.7878     4.1264     0.9337 C.ar    
  12 C12            1.1714     5.4373     1.1264 C.ar    
  13 C13            2.4427     5.8499     0.7645 C.ar    
  14 C14            3.3362     4.9505     0.2075 C.ar    
  15 C15            2.9657     3.6358     0.0148 C.ar    
  16 Cl16           2.9182     7.5014     1.0097 Cl      
  17 C17           -1.1596     2.1334     0.1823 C.ar    
  18 C18           -2.0010     1.9988     1.2909 C.ar    
  19 C19           -3.1218     2.7623     1.3975 C.ar    
  20 C20           -3.4356     3.6981     0.3779 C.ar    
  21 C21           -2.5744     3.8261    -0.7426 C.ar    
  22 C22           -1.4561     3.0560    -0.8257 C.ar    
  23 N23           -4.5244     4.4461     0.4713 N.2     
  24 N24           -4.7690     5.1861    -0.3386 N.1     
  25 N25           -5.0137     5.9260    -1.1486 N.pl3   
  26 C26            3.5260    -3.4157    -0.5751 C.3     
  27 C27            5.0533    -3.5067    -0.5735 C.3     
  28 H28            3.2001     0.7896     0.0345 H       
  29 H29           -1.4878    -0.9508    -1.3027 H       
  30 H30           -0.9703    -1.8797     0.1247 H       
  31 H31           -2.0338    -0.4660     0.3206 H       
  32 H32           -0.2041     3.8057     1.2160 H       
  33 H33            0.4788     6.1433     1.5602 H       
  34 H34            4.3264     5.2780    -0.0728 H       
  35 H35            3.6648     2.9341    -0.4157 H       
  36 H36           -1.7603     1.2856     2.0654 H       
  37 H37           -3.7705     2.6563     2.2545 H       
  38 H38           -2.8038     4.5349    -1.5245 H       
  39 H39           -0.7970     3.1545    -1.6755 H       
  40 H40            3.1246    -4.0299     0.2310 H       
  41 H41            3.1417    -3.7734    -1.5303 H       
  42 H42            5.3556    -4.5435    -0.7215 H       
  43 H43            5.4547    -2.8926    -1.3796 H       
  44 H44            5.4376    -3.1490     0.3817 H       
@<TRIPOS>BOND
   1    1    2 1
   2    1    5 1
   3    1   17 1
   4    2    3 2
   5    2    9 1
   6    3    4 1
   7    3    6 1
   8    4    5 2
   9    4   28 1
  10    5   10 1
  11    6    7 2
  12    6    8 1
  13    8   26 1
  14    9   29 1
  15    9   30 1
  16    9   31 1
  17   10   11 ar
  18   10   15 ar
  19   11   12 ar
  20   11   32 1
  21   12   13 ar
  22   12   33 1
  23   13   14 ar
  24   13   16 1
  25   14   15 ar
  26   14   34 1
  27   15   35 1
  28   17   18 ar
  29   17   22 ar
  30   18   19 ar
  31   18   36 1
  32   19   20 ar
  33   19   37 1
  34   20   21 ar
  35   20   23 1
  36   21   22 ar
  37   21   38 1
  38   22   39 1
  39   23   24 2
  40   24   25 2
  41   26   27 1
  42   26   40 1
  43   26   41 1
  44   27   42 1
  45   27   43 1
  46   27   44 1

#	End of record

