#	Name: ASD00310263
#	Creating user name:	WinNT
#	Creation time:	15. 06. 2019 18:34

#	Modifying user name:	WinNT
#	Modification time:	15. 06. 2019 18:34

#	Program:	/corina/corina34_cracker 3.40 0067  02.08.2006

@<TRIPOS>MOLECULE
ASD00310263
  30   32    0    0    0
SMALL
NO_CHARGES


@<TRIPOS>ATOM
   1 N1            -0.0165     1.3647     0.0095 N.pl3   
   2 C2             0.0021    -0.0041     0.0020 C.2     
   3 C3             1.2695    -0.4445    -0.0124 C.2     
   4 C4             2.1343     0.7391    -0.0143 C.ar    
   5 C5             3.5165     0.9259    -0.0272 C.ar    
   6 C6             4.0336     2.2133    -0.0259 C.ar    
   7 C7             3.1708     3.3170    -0.0113 C.ar    
   8 C8             1.8060     3.1368     0.0019 C.ar    
   9 C9             1.2721     1.8509    -0.0001 C.ar    
  10 C10            5.5025     2.4215    -0.0395 C.ar    
  11 C11            6.0758     3.2918    -0.9649 C.ar    
  12 C12            7.4417     3.4832    -0.9752 C.ar    
  13 C13            8.2452     2.8102    -0.0650 C.ar    
  14 C14            7.6770     1.9427     0.8579 C.ar    
  15 C15            6.3112     1.7515     0.8768 C.ar    
  16 O16            9.5906     3.0005    -0.0778 O.3     
  17 C17           10.3575     2.2763     0.8863 C.3     
  18 F18            3.6820     4.5675    -0.0096 F       
  19 H19           -0.8180     1.9109     0.0164 H       
  20 H20           -0.8738    -0.6359     0.0073 H       
  21 H21            1.5914    -1.4754    -0.0207 H       
  22 H22            4.1799     0.0738    -0.0377 H       
  23 H23            1.1488     3.9937     0.0135 H       
  24 H24            5.4513     3.8154    -1.6735 H       
  25 H25            7.8866     4.1572    -1.6923 H       
  26 H26            8.3047     1.4202     1.5646 H       
  27 H27            5.8693     1.0800     1.5980 H       
  28 H28           10.0324     2.5510     1.8898 H       
  29 H29           10.2116     1.2065     0.7373 H       
  30 H30           11.4134     2.5191     0.7673 H       
@<TRIPOS>BOND
   1    1    2 1
   2    1    9 1
   3    1   19 1
   4    2    3 2
   5    2   20 1
   6    3    4 1
   7    3   21 1
   8    4    5 ar
   9    4    9 ar
  10    5    6 ar
  11    5   22 1
  12    6    7 ar
  13    6   10 1
  14    7    8 ar
  15    7   18 1
  16    8    9 ar
  17    8   23 1
  18   10   11 ar
  19   10   15 ar
  20   11   12 ar
  21   11   24 1
  22   12   13 ar
  23   12   25 1
  24   13   14 ar
  25   13   16 1
  26   14   15 ar
  27   14   26 1
  28   15   27 1
  29   16   17 1
  30   17   28 1
  31   17   29 1
  32   17   30 1

#	End of record

