#	Name: ASD01230156
#	Creating user name:	WinNT
#	Creation time:	15. 06. 2019 19:11

#	Modifying user name:	WinNT
#	Modification time:	15. 06. 2019 19:11

#	Program:	/corina/corina34_cracker 3.40 0067  02.08.2006

@<TRIPOS>MOLECULE
ASD01230156
  40   43    0    0    0
SMALL
NO_CHARGES


@<TRIPOS>ATOM
   1 S1            -0.0204     1.6504     0.0111 S.o2    
   2 N2             0.0021    -0.0041     0.0020 N.am    
   3 C3             1.0227    -0.6872    -0.4556 C.2     
   4 N4             2.1689    -0.1517    -0.9709 N.pl3   
   5 C5             2.3936     1.2854    -1.1469 C.3     
   6 C6             1.7501     2.0749    -0.0035 C.3     
   7 C7             0.8948    -2.1592    -0.3950 C.2     
   8 C8             1.9460    -2.9422    -0.8230 C.2     
   9 C9             3.1043    -2.3191    -1.3057 C.2     
  10 C10            3.1908    -0.9787    -1.3644 C.2     
  11 C11           -2.6696    -3.9522     1.0793 C.ar    
  12 C12           -1.4674    -4.1167     1.7723 C.ar    
  13 C13           -0.3117    -3.5357     1.2942 C.ar    
  14 C14           -0.3443    -2.7834     0.1185 C.ar    
  15 C15           -1.5467    -2.6197    -0.5723 C.ar    
  16 C16           -2.7005    -3.2004    -0.0949 C.ar    
  17 C17           -3.9112    -4.5816     1.5893 C.ar    
  18 C18           -5.0739    -3.8247     1.7269 C.ar    
  19 C19           -6.2266    -4.4159     2.2022 C.ar    
  20 C20           -6.2300    -5.7570     2.5418 C.ar    
  21 C21           -5.0793    -6.5129     2.4077 C.ar    
  22 C22           -3.9222    -5.9340     1.9276 C.ar    
  23 F23           -1.4374    -4.8446     2.9100 F       
  24 O24           -0.6346     2.0064    -1.2198 O.2     
  25 O25           -0.6110     1.9931     1.2573 O.2     
  26 H26            3.4655     1.4826    -1.1611 H       
  27 H27            1.9576     1.6041    -2.0937 H       
  28 H28            1.8743     3.1443    -0.1744 H       
  29 H29            2.2074     1.7939     0.9452 H       
  30 H30            1.8776    -4.0195    -0.7864 H       
  31 H31            3.9377    -2.9226    -1.6338 H       
  32 H32            4.1019    -0.5345    -1.7373 H       
  33 H33            0.6179    -3.6620     1.8293 H       
  34 H34           -1.5717    -2.0378    -1.4817 H       
  35 H35           -3.6298    -3.0739    -0.6303 H       
  36 H36           -5.0722    -2.7776     1.4625 H       
  37 H37           -7.1278    -3.8305     2.3096 H       
  38 H38           -7.1345    -6.2155     2.9133 H       
  39 H39           -5.0877    -7.5594     2.6747 H       
  40 H40           -3.0257    -6.5262     1.8188 H       
@<TRIPOS>BOND
   1    1    2 am
   2    1    6 1
   3    1   24 2
   4    1   25 2
   5    2    3 2
   6    3    4 1
   7    3    7 1
   8    4    5 1
   9    4   10 1
  10    5    6 1
  11    5   26 1
  12    5   27 1
  13    6   28 1
  14    6   29 1
  15    7    8 2
  16    7   14 1
  17    8    9 1
  18    8   30 1
  19    9   10 2
  20    9   31 1
  21   10   32 1
  22   11   12 ar
  23   11   16 ar
  24   11   17 1
  25   12   13 ar
  26   12   23 1
  27   13   14 ar
  28   13   33 1
  29   14   15 ar
  30   15   16 ar
  31   15   34 1
  32   16   35 1
  33   17   18 ar
  34   17   22 ar
  35   18   19 ar
  36   18   36 1
  37   19   20 ar
  38   19   37 1
  39   20   21 ar
  40   20   38 1
  41   21   22 ar
  42   21   39 1
  43   22   40 1

#	End of record

