#	Name: ASD07300337
#	Creating user name:	WinNT
#	Creation time:	15. 06. 2019 21:09

#	Modifying user name:	WinNT
#	Modification time:	15. 06. 2019 21:09

#	Program:	/corina/corina34_cracker 3.40 0067  02.08.2006

@<TRIPOS>MOLECULE
ASD07300337
  42   45    0    0    0
SMALL
NO_CHARGES


@<TRIPOS>ATOM
   1 C1            -0.0169     1.3941     0.0097 C.ar    
   2 C2             0.0021    -0.0041     0.0020 C.ar    
   3 C3             1.2199    -0.6674    -0.0136 C.ar    
   4 C4             2.3808     0.0923    -0.0210 C.ar    
   5 C5             2.2878     1.4713    -0.0127 C.ar    
   6 N6             1.1161     2.0768     0.0026 N.ar    
   7 C7            -2.1139     0.6622     0.0347 C.2     
   8 N8            -1.3542     1.7734     0.0301 N.am    
   9 N9            -1.3234    -0.4279     0.0129 N.am    
  10 O10           -3.3304     0.6453     0.0517 O.2     
  11 C11            1.2807    -2.1731    -0.0218 C.3     
  12 C12           -1.8317     3.0925     0.0437 C.ar    
  13 C13           -3.1983     3.3361     0.0638 C.ar    
  14 C14           -3.6677     4.6347     0.0777 C.ar    
  15 C15           -2.7741     5.6957     0.0715 C.ar    
  16 C16           -1.4084     5.4528     0.0509 C.ar    
  17 C17           -0.9378     4.1546     0.0429 C.ar    
  18 O18           -3.2368     6.9741     0.0851 O.3     
  19 C19           -2.2605     8.0176     0.0777 C.3     
  20 C20           -2.9547     9.3551     0.0948 C.ar    
  21 C21           -3.2566     9.9617     1.2997 C.ar    
  22 C22           -3.8934    11.1885     1.3155 C.ar    
  23 C23           -4.2278    11.8090     0.1263 C.ar    
  24 C24           -3.9250    11.2028    -1.0786 C.ar    
  25 C25           -3.2844     9.9780    -1.0944 C.ar    
  26 H26            3.3475    -0.3890    -0.0328 H       
  27 H27            3.1908     2.0638    -0.0181 H       
  28 H28           -1.6258    -1.3496     0.0109 H       
  29 H29            1.2850    -2.5310    -1.0514 H       
  30 H30            2.1898    -2.5028     0.4813 H       
  31 H31            0.4113    -2.5747     0.4988 H       
  32 H32           -3.8941     2.5102     0.0683 H       
  33 H33           -4.7308     4.8243     0.0929 H       
  34 H34           -0.7131     6.2792     0.0454 H       
  35 H35            0.1255     3.9656     0.0317 H       
  36 H36           -1.6250     7.9268     0.9586 H       
  37 H37           -1.6493     7.9369    -0.8212 H       
  38 H38           -2.9954     9.4769     2.2288 H       
  39 H39           -4.1300    11.6621     2.2568 H       
  40 H40           -4.7259    12.7672     0.1386 H       
  41 H41           -4.1866    11.6874    -2.0077 H       
  42 H42           -3.0445     9.5061    -2.0357 H       
@<TRIPOS>BOND
   1    1    2 ar
   2    1    6 ar
   3    1    8 1
   4    2    3 ar
   5    2    9 1
   6    3    4 ar
   7    3   11 1
   8    4    5 ar
   9    4   26 1
  10    5    6 ar
  11    5   27 1
  12    7    8 am
  13    7    9 am
  14    7   10 2
  15    8   12 1
  16    9   28 1
  17   11   29 1
  18   11   30 1
  19   11   31 1
  20   12   13 ar
  21   12   17 ar
  22   13   14 ar
  23   13   32 1
  24   14   15 ar
  25   14   33 1
  26   15   16 ar
  27   15   18 1
  28   16   17 ar
  29   16   34 1
  30   17   35 1
  31   18   19 1
  32   19   20 1
  33   19   36 1
  34   19   37 1
  35   20   21 ar
  36   20   25 ar
  37   21   22 ar
  38   21   38 1
  39   22   23 ar
  40   22   39 1
  41   23   24 ar
  42   23   40 1
  43   24   25 ar
  44   24   41 1
  45   25   42 1

#	End of record

