#	Name: ASD03240918
#	Creating user name:	WinNT
#	Creation time:	15. 06. 2019 20:35

#	Modifying user name:	WinNT
#	Modification time:	15. 06. 2019 20:35

#	Program:	/corina/corina34_cracker 3.40 0067  02.08.2006

@<TRIPOS>MOLECULE
ASD03240918
  64   70    0    0    0
SMALL
NO_CHARGES


@<TRIPOS>ATOM
   1 C1            -0.0188     1.5336     0.0105 C.3     
   2 C2             0.0021    -0.0041     0.0020 C.3     
   3 C3             1.3815     0.0967    -0.6702 C.3     
   4 C4             1.5179     1.4762    -0.0045 C.3     
   5 O5            -0.5818     2.1049    -1.1721 O.3     
   6 C6             2.3746    -0.9181    -0.1653 C.ar    
   7 C7             3.3681    -1.3872    -1.0061 C.ar    
   8 C8             4.2807    -2.3160    -0.5495 C.ar    
   9 C9             4.2000    -2.7820     0.7628 C.ar    
  10 C10            3.1960    -2.3051     1.6056 C.ar    
  11 C11            2.2926    -1.3725     1.1389 C.ar    
  12 N12            6.9708    -6.5922    -0.0345 N.pl3   
  13 C13            7.8734    -7.5240     0.4042 C.2     
  14 N14            8.3304    -7.5326     1.6699 N.2     
  15 C15            7.9398    -6.6523     2.5547 C.2     
  16 C16            6.9771    -5.6264     2.1589 C.ar    
  17 C17            6.5215    -4.6585     3.0603 C.ar    
  18 C18            5.6043    -3.7197     2.5995 C.ar    
  19 C19            5.1759    -3.7791     1.2589 C.ar    
  20 N20            5.6297    -4.7109     0.4342 N.ar    
  21 C21            6.5013    -5.6222     0.8306 C.ar    
  22 C22            8.1543    -8.3526    -0.6709 C.2     
  23 C23            7.4039    -7.9011    -1.7626 C.2     
  24 N24            6.6951    -6.8556    -1.3819 N.2     
  25 C25            5.0845    -2.6695     3.5078 C.ar    
  26 C26            4.5781    -3.0152     4.7597 C.ar    
  27 C27            4.0956    -2.0334     5.6009 C.ar    
  28 C28            4.1138    -0.7084     5.2039 C.ar    
  29 C29            4.6147    -0.3595     3.9626 C.ar    
  30 C30            5.1056    -1.3321     3.1155 C.ar    
  31 C31            6.6379    -8.5553    -5.3872 C.ar    
  32 C32            6.6099    -7.9666    -4.1397 C.ar    
  33 C33            7.4015    -8.5014    -3.1197 C.ar    
  34 C34            8.1911    -9.6167    -3.4126 C.ar    
  35 C35            8.1594   -10.1432    -4.6875 C.ar    
  36 N36            7.3977    -9.6079    -5.6224 N.ar    
  37 C37           -0.5973     2.1316     1.2944 C.3     
  38 N38            1.3186     0.1546    -2.1367 N.3     
  39 H39            0.0329    -0.4458     0.9980 H       
  40 H40           -0.7629    -0.4476    -0.6353 H       
  41 H41            1.9766     2.2276    -0.6471 H       
  42 H42            1.9632     1.4391     0.9897 H       
  43 H43           -0.5977     3.0718    -1.1727 H       
  44 H44            3.4293    -1.0259    -2.0220 H       
  45 H45            5.0555    -2.6817    -1.2070 H       
  46 H46            3.1282    -2.6625     2.6226 H       
  47 H47            1.5173    -0.9995     1.7917 H       
  48 H48            8.3231    -6.6833     3.5639 H       
  49 H49            6.8705    -4.6411     4.0822 H       
  50 H50            8.8303    -9.1949    -0.6670 H       
  51 H51            4.5631    -4.0494     5.0705 H       
  52 H52            3.7026    -2.3000     6.5709 H       
  53 H53            3.7351     0.0566     5.8656 H       
  54 H54            4.6258     0.6765     3.6577 H       
  55 H55            5.5012    -1.0580     2.1486 H       
  56 H56            6.0262    -8.1519    -6.1806 H       
  57 H57            5.9858    -7.1049    -3.9544 H       
  58 H58            8.8172   -10.0597    -2.6522 H       
  59 H59            8.7661   -11.0049    -4.9234 H       
  60 H60            0.0010     1.8098     2.1469 H       
  61 H61           -0.5800     3.2195     1.2285 H       
  62 H62           -1.6249     1.7917     1.4227 H       
  63 H63            2.2430     0.2199    -2.5360 H       
  64 H64            0.8193    -0.6393    -2.5089 H       
@<TRIPOS>BOND
   1    1    2 1
   2    1    4 1
   3    1    5 1
   4    1   37 1
   5    2    3 1
   6    2   39 1
   7    2   40 1
   8    3    4 1
   9    3    6 1
  10    3   38 1
  11    4   41 1
  12    4   42 1
  13    5   43 1
  14    6    7 ar
  15    6   11 ar
  16    7    8 ar
  17    7   44 1
  18    8    9 ar
  19    8   45 1
  20    9   10 ar
  21    9   19 1
  22   10   11 ar
  23   10   46 1
  24   11   47 1
  25   12   13 1
  26   12   21 1
  27   12   24 1
  28   13   14 1
  29   13   22 2
  30   14   15 2
  31   15   16 1
  32   15   48 1
  33   16   17 ar
  34   16   21 ar
  35   17   18 ar
  36   17   49 1
  37   18   19 ar
  38   18   25 1
  39   19   20 ar
  40   20   21 ar
  41   22   23 1
  42   22   50 1
  43   23   24 2
  44   23   33 1
  45   25   26 ar
  46   25   30 ar
  47   26   27 ar
  48   26   51 1
  49   27   28 ar
  50   27   52 1
  51   28   29 ar
  52   28   53 1
  53   29   30 ar
  54   29   54 1
  55   30   55 1
  56   31   32 ar
  57   31   36 ar
  58   31   56 1
  59   32   33 ar
  60   32   57 1
  61   33   34 ar
  62   34   35 ar
  63   34   58 1
  64   35   36 ar
  65   35   59 1
  66   37   60 1
  67   37   61 1
  68   37   62 1
  69   38   63 1
  70   38   64 1

#	End of record

