#	Name: ASD03731044
#	Creating user name:	WinNT
#	Creation time:	15. 06. 2019 20:45

#	Modifying user name:	WinNT
#	Modification time:	15. 06. 2019 20:45

#	Program:	/corina/corina34_cracker 3.40 0067  02.08.2006

@<TRIPOS>MOLECULE
ASD03731044
  51   57    0    0    0
SMALL
NO_CHARGES


@<TRIPOS>ATOM
   1 O1             0.0621     1.3705     0.3616 O.3     
   2 C2             0.0930    -0.0655     0.4618 C.3     
   3 O3             1.3653    -0.4215    -0.1103 O.3     
   4 C4             2.1712     0.6631     0.0871 C.ar    
   5 C5             1.3694     1.7649     0.3761 C.ar    
   6 C6             3.5469     0.8012     0.0434 C.ar    
   7 C7             4.1394     2.0370     0.2852 C.ar    
   8 C8             3.3276     3.1322     0.5647 C.ar    
   9 C9             1.9559     2.9963     0.6151 C.ar    
  10 O10            5.4588     2.3816     0.3078 O.3     
  11 C11            4.2457     4.3109     0.7477 C.3     
  12 C12            5.5788     3.8111     0.1743 C.3     
  13 N13            3.6159     6.4975     0.9628 N.am    
  14 C14            3.7510     5.5336     0.0302 C.2     
  15 C15            4.3724     4.7176     2.1859 C.ar    
  16 C16            4.7718     4.0609     3.3285 C.ar    
  17 C17            4.7814     4.7253     4.5420 C.ar    
  18 C18            4.3889     6.0500     4.6044 C.ar    
  19 C19            3.9871     6.7119     3.4629 C.ar    
  20 C20            3.9746     6.0511     2.2370 C.ar    
  21 O21            3.5188     5.6343    -1.1560 O.2     
  22 C22            3.1483     7.8554     0.6736 C.3     
  23 O23            4.5947     7.9646    -1.7386 O.3     
  24 C24            5.0733     8.2677    -3.0521 C.3     
  25 O25            6.4874     8.4870    -2.9839 O.3     
  26 C26            6.8380     9.6449    -2.2199 C.3     
  27 C27            6.0984     9.6181    -0.9062 C.ar    
  28 C28            5.0094     8.7785    -0.7306 C.ar    
  29 C29            6.5116    10.4372     0.1276 C.ar    
  30 C30            5.8383    10.4214     1.3372 C.ar    
  31 C31            4.7491     9.5854     1.5130 C.ar    
  32 C32            4.3344     8.7650     0.4819 C.ar    
  33 F33            6.2445    11.2224     2.3465 F       
  34 H34            0.0412    -0.3778     1.5048 H       
  35 H35           -0.7218    -0.5070    -0.1121 H       
  36 H36            4.1653    -0.0557    -0.1793 H       
  37 H37            1.3377     3.8526     0.8409 H       
  38 H38            6.4174     4.1856     0.7613 H       
  39 H39            5.6804     4.0950    -0.8731 H       
  40 H40            5.0775     3.0264     3.2774 H       
  41 H41            5.0943     4.2107     5.4384 H       
  42 H42            4.3967     6.5686     5.5517 H       
  43 H43            3.6812     7.7461     3.5200 H       
  44 H44            2.5465     7.8466    -0.2352 H       
  45 H45            2.5441     8.2166     1.5059 H       
  46 H46            4.8644     7.4316    -3.7196 H       
  47 H47            4.5809     9.1668    -3.4225 H       
  48 H48            7.9118     9.6461    -2.0331 H       
  49 H49            6.5634    10.5428    -2.7734 H       
  50 H50            7.3613    11.0899    -0.0082 H       
  51 H51            4.2237     9.5743     2.4566 H       
@<TRIPOS>BOND
   1    1    2 1
   2    1    5 1
   3    2    3 1
   4    2   34 1
   5    2   35 1
   6    3    4 1
   7    4    5 ar
   8    4    6 ar
   9    5    9 ar
  10    6    7 ar
  11    6   36 1
  12    7    8 ar
  13    7   10 1
  14    8    9 ar
  15    8   11 1
  16    9   37 1
  17   10   12 1
  18   11   12 1
  19   11   14 1
  20   11   15 1
  21   12   38 1
  22   12   39 1
  23   13   14 am
  24   13   20 1
  25   13   22 1
  26   14   21 2
  27   15   16 ar
  28   15   20 ar
  29   16   17 ar
  30   16   40 1
  31   17   18 ar
  32   17   41 1
  33   18   19 ar
  34   18   42 1
  35   19   20 ar
  36   19   43 1
  37   22   32 1
  38   22   44 1
  39   22   45 1
  40   23   24 1
  41   23   28 1
  42   24   25 1
  43   24   46 1
  44   24   47 1
  45   25   26 1
  46   26   27 1
  47   26   48 1
  48   26   49 1
  49   27   28 ar
  50   27   29 ar
  51   28   32 ar
  52   29   30 ar
  53   29   50 1
  54   30   31 ar
  55   30   33 1
  56   31   32 ar
  57   31   51 1

#	End of record

