#	Name: ASD01900856
#	Creating user name:	WinNT
#	Creation time:	15. 06. 2019 19:52

#	Modifying user name:	WinNT
#	Modification time:	15. 06. 2019 19:52

#	Program:	/corina/corina34_cracker 3.40 0067  02.08.2006

@<TRIPOS>MOLECULE
ASD01900856
  64   68    0    0    0
SMALL
NO_CHARGES


@<TRIPOS>ATOM
   1 C1             3.7410     0.5334     0.8455 C.ar    
   2 C2             4.3933    -0.6784     0.7840 C.ar    
   3 C3             5.7423    -0.7368     0.4215 C.ar    
   4 C4             6.4401     0.4334     0.1246 C.ar    
   5 C5             5.7885     1.6524     0.1886 C.ar    
   6 C6             4.4294     1.7064     0.5439 C.ar    
   7 N7             6.4476     2.8470    -0.0829 N.pl3   
   8 C8             5.6754     3.9796    -0.6061 C.3     
   9 N9             4.4103     4.1081     0.1178 N.am    
  10 C10            3.7677     3.0246     0.5969 C.2     
  11 C11            3.8578     5.3792     0.3167 C.ar    
  12 C12            4.3709     6.2135     1.3012 C.ar    
  13 C13            3.8255     7.4668     1.4968 C.ar    
  14 C14            2.7649     7.8925     0.7105 C.ar    
  15 C15            2.2517     7.0597    -0.2732 C.ar    
  16 C16            2.8001     5.8084    -0.4741 C.ar    
  17 O17            2.2277     9.1265     0.9042 O.3     
  18 O18            2.6523     3.1322     1.0688 O.2     
  19 C19            6.4317    -2.0440     0.3533 C.2     
  20 C20            1.1460     9.5046     0.0504 C.3     
  21 O21            7.6034    -2.0968     0.0387 O.2     
  22 O22            5.7597    -3.1755     0.6401 O.3     
  23 C23            6.4996    -4.4218     0.5525 C.3     
  24 C24            6.4902     5.2657    -0.4397 C.3     
  25 C25            5.3918     3.7548    -2.0940 C.3     
  26 C26            4.6485     4.9692    -2.6553 C.3     
  27 N27            5.4673     6.1742    -2.4714 N.3     
  28 C28            5.7146     6.4365    -1.0478 C.3     
  29 C29            4.8467     7.3366    -3.1207 C.3     
  30 C30            5.6586     8.5709    -2.8237 C.ar    
  31 C31            6.7021     8.9282    -3.6574 C.ar    
  32 C32            7.4481    10.0598    -3.3871 C.ar    
  33 C33            7.1510    10.8367    -2.2808 C.ar    
  34 C34            6.1046    10.4784    -1.4447 C.ar    
  35 C35            5.3557     9.3477    -1.7214 C.ar    
  36 F36            5.8126    11.2352    -0.3643 F       
  37 F37            7.8801    11.9427    -2.0156 F       
  38 F38            0.0703     8.6319     0.2464 F       
  39 F39            0.7477    10.8111     0.3530 F       
  40 F40            1.5611     9.4409    -1.2841 F       
  41 H41            2.6979     0.5735     1.1224 H       
  42 H42            3.8599    -1.5880     1.0173 H       
  43 H43            7.4828     0.3886    -0.1532 H       
  44 H44            7.4017     2.9299     0.0714 H       
  45 H45            5.1962     5.8819     1.9139 H       
  46 H46            4.2245     8.1158     2.2623 H       
  47 H47            1.4257     7.3917    -0.8847 H       
  48 H48            2.4035     5.1621    -1.2431 H       
  49 H49            5.8425    -5.2531     0.8078 H       
  50 H50            6.8726    -4.5522    -0.4633 H       
  51 H51            7.3390    -4.3955     1.2473 H       
  52 H52            6.6611     5.4537     0.6203 H       
  53 H53            7.4474     5.1589    -0.9501 H       
  54 H54            6.3330     3.6252    -2.6284 H       
  55 H55            4.7771     2.8631    -2.2168 H       
  56 H56            4.4574     4.8188    -3.7178 H       
  57 H57            3.7013     5.0900    -2.1296 H       
  58 H58            4.7629     6.5504    -0.5288 H       
  59 H59            6.2972     7.3517    -0.9430 H       
  60 H60            4.8118     7.1752    -4.1982 H       
  61 H61            3.8338     7.4676    -2.7400 H       
  62 H62            6.9346     8.3222    -4.5206 H       
  63 H63            8.2632    10.3377    -4.0389 H       
  64 H64            4.5374     9.0701    -1.0736 H       
@<TRIPOS>BOND
   1    1    2 ar
   2    1    6 ar
   3    1   41 1
   4    2    3 ar
   5    2   42 1
   6    3    4 ar
   7    3   19 1
   8    4    5 ar
   9    4   43 1
  10    5    7 1
  11    5    6 ar
  12    6   10 1
  13    7    8 1
  14    7   44 1
  15    8    9 1
  16    8   25 1
  17    8   24 1
  18    9   10 am
  19    9   11 1
  20   10   18 2
  21   11   12 ar
  22   11   16 ar
  23   12   13 ar
  24   12   45 1
  25   13   14 ar
  26   13   46 1
  27   14   15 ar
  28   14   17 1
  29   15   16 ar
  30   15   47 1
  31   16   48 1
  32   17   20 1
  33   19   21 2
  34   19   22 1
  35   20   38 1
  36   20   39 1
  37   20   40 1
  38   22   23 1
  39   23   49 1
  40   23   50 1
  41   23   51 1
  42   24   28 1
  43   24   52 1
  44   24   53 1
  45   25   26 1
  46   25   54 1
  47   25   55 1
  48   26   27 1
  49   26   56 1
  50   26   57 1
  51   27   28 1
  52   27   29 1
  53   28   58 1
  54   28   59 1
  55   29   30 1
  56   29   60 1
  57   29   61 1
  58   30   31 ar
  59   30   35 ar
  60   31   32 ar
  61   31   62 1
  62   32   33 ar
  63   32   63 1
  64   33   34 ar
  65   33   37 1
  66   34   35 ar
  67   34   36 1
  68   35   64 1

#	End of record

