#	Name: ASD01148238
#	Creating user name:	WinNT
#	Creation time:	15. 06. 2019 19:02

#	Modifying user name:	WinNT
#	Modification time:	15. 06. 2019 19:02

#	Program:	/corina/corina34_cracker 3.40 0067  02.08.2006

@<TRIPOS>MOLECULE
ASD01148238
  52   55    0    0    0
SMALL
NO_CHARGES


@<TRIPOS>ATOM
   1 C1            -0.0167     1.3791     0.0096 C.ar    
   2 C2             0.0021    -0.0041     0.0020 C.ar    
   3 C3            -1.1867    -0.7114     0.0101 C.ar    
   4 C4            -2.3937    -0.0352     0.0257 C.ar    
   5 C5            -2.4118     1.3469     0.0333 C.ar    
   6 C6            -1.2242     2.0542     0.0306 C.ar    
   7 C7            -3.7267     2.0828     0.0503 C.3     
   8 O8            -4.7311     1.3288     0.7589 O.3     
   9 C9            -3.6320     3.3664     0.9093 C.3     
  10 C10           -4.1221     2.8929     2.2646 C.2     
  11 N11           -4.7168     1.7582     2.1060 N.2     
  12 C12           -3.9484     3.6069     3.5448 C.ar    
  13 C13           -4.4516     3.0557     4.7260 C.ar    
  14 C14           -3.2758     4.8311     3.5764 C.ar    
  15 C15           -3.1135     5.4965     4.7705 C.ar    
  16 C16           -3.6213     4.9479     5.9505 C.ar    
  17 C17           -4.2891     3.7214     5.9199 C.ar    
  18 C18           -3.4465     5.6622     7.2325 C.2     
  19 O19           -2.8609     6.7272     7.2600 O.2     
  20 N20           -3.9364     5.1330     8.3711 N.am    
  21 C21           -4.1878     2.4076    -1.3720 C.3     
  22 F22           -4.3307     1.2205    -2.0984 F       
  23 F23           -5.4163     3.0751    -1.3230 F       
  24 F24           -3.2379     3.2241    -1.9951 F       
  25 Cl25          -1.1641    -2.4472    -0.0001 Cl      
  26 Cl26           1.4747     2.2676     0.0002 Cl      
  27 N27           -3.7707     5.8101     9.5864 N.pl3   
  28 C28           -4.5837     6.9922     9.8830 C.3     
  29 C29           -2.8304     5.3582    10.5151 C.ar    
  30 C30           -2.6649     6.0285    11.7205 C.ar    
  31 C31           -1.7346     5.5787    12.6368 C.ar    
  32 C32           -0.9684     4.4624    12.3554 C.ar    
  33 C33           -1.1303     3.7931    11.1562 C.ar    
  34 C34           -2.0628     4.2342    10.2379 C.ar    
  35 H35            0.9444    -0.5315    -0.0105 H       
  36 H36           -3.3218    -0.5873     0.0316 H       
  37 H37           -1.2390     3.1341     0.0365 H       
  38 H38           -2.6012     3.7155     0.9710 H       
  39 H39           -4.2827     4.1460     0.5133 H       
  40 H40           -4.9683     2.1076     4.7023 H       
  41 H41           -2.8829     5.2551     2.6642 H       
  42 H42           -2.5933     6.4427     4.7950 H       
  43 H43           -4.6817     3.2973     6.8323 H       
  44 H44           -4.4036     4.2832     8.3492 H       
  45 H45           -5.4997     6.6857    10.3881 H       
  46 H46           -4.0215     7.6673    10.5282 H       
  47 H47           -4.8348     7.5031     8.9534 H       
  48 H48           -3.2628     6.9005    11.9408 H       
  49 H49           -1.6052     6.0995    13.5740 H       
  50 H50           -0.2416     4.1128    13.0737 H       
  51 H51           -0.5300     2.9219    10.9394 H       
  52 H52           -2.1887     3.7110     9.3015 H       
@<TRIPOS>BOND
   1    1    2 ar
   2    1   26 1
   3    1    6 ar
   4    2    3 ar
   5    2   35 1
   6    3    4 ar
   7    3   25 1
   8    4    5 ar
   9    4   36 1
  10    5    6 ar
  11    5    7 1
  12    6   37 1
  13    7    8 1
  14    7    9 1
  15    7   21 1
  16    8   11 1
  17    9   10 1
  18    9   38 1
  19    9   39 1
  20   10   11 2
  21   10   12 1
  22   12   13 ar
  23   12   14 ar
  24   13   17 ar
  25   13   40 1
  26   14   15 ar
  27   14   41 1
  28   15   16 ar
  29   15   42 1
  30   16   17 ar
  31   16   18 1
  32   17   43 1
  33   18   19 2
  34   18   20 am
  35   20   27 1
  36   20   44 1
  37   21   22 1
  38   21   23 1
  39   21   24 1
  40   27   28 1
  41   27   29 1
  42   28   45 1
  43   28   46 1
  44   28   47 1
  45   29   30 ar
  46   29   34 ar
  47   30   31 ar
  48   30   48 1
  49   31   32 ar
  50   31   49 1
  51   32   33 ar
  52   32   50 1
  53   33   34 ar
  54   33   51 1
  55   34   52 1

#	End of record

