#	Name: ASD08150181
#	Creating user name:	WinNT
#	Creation time:	15. 06. 2019 21:15

#	Modifying user name:	WinNT
#	Modification time:	15. 06. 2019 21:15

#	Program:	/corina/corina34_cracker 3.40 0067  02.08.2006

@<TRIPOS>MOLECULE
ASD08150181
  52   55    0    0    0
SMALL
NO_CHARGES


@<TRIPOS>ATOM
   1 C1             0.2017     0.9719    -0.4285 C.ar    
   2 N2             0.4679    -0.3342    -0.4251 N.ar    
   3 C3            -0.5046    -1.2240    -0.5469 C.ar    
   4 N4            -1.7714    -0.8593    -0.6762 N.ar    
   5 C5            -2.1139     0.4254    -0.6882 C.ar    
   6 C6            -1.1214     1.3929    -0.5573 C.ar    
   7 N7            -3.4469     0.7977    -0.8245 N.am    
   8 C8             1.2957     1.9625    -0.2911 C.ar    
   9 C9             2.2214     1.8678     0.7520 C.ar    
  10 N10            3.1824     2.7697     0.8404 N.ar    
  11 C11            3.2751     3.7537    -0.0431 C.ar    
  12 N12            2.4163     3.8773    -1.0457 N.ar    
  13 C13            1.4315     3.0120    -1.2049 C.ar    
  14 C14            2.1241     0.7531     1.7616 C.3     
  15 F15            2.4901    -0.4551     1.1589 F       
  16 F16            2.9829     1.0186     2.8335 F       
  17 F17            0.8088     0.6613     2.2295 F       
  18 N18            4.2955     4.6770     0.0848 N.pl3   
  19 N19           -0.1891    -2.5716    -0.5395 N.3     
  20 C20            1.2651    -2.7719    -0.4589 C.3     
  21 C21            1.5653    -4.2717    -0.3930 C.3     
  22 O22            0.9922    -4.9180    -1.5328 O.3     
  23 C23           -0.4231    -4.7440    -1.6422 C.3     
  24 C24           -0.7436    -3.2489    -1.7207 C.3     
  25 H25           -0.7824    -5.2410    -2.5433 H       
  26 H26           -0.9115    -5.1755    -0.7684 H       
  27 H27            2.6442    -4.4271    -0.3907 H       
  28 H28            1.1348    -4.6895     0.5170 H       
  29 H29            1.7409    -2.3438    -1.3411 H       
  30 H30            1.6506    -2.2839     0.4363 H       
  31 H31           -1.8243    -3.1092    -1.7466 H       
  32 H32           -0.2998    -2.8285    -2.6231 H       
  33 C33           -3.8967     2.0543    -0.9446 C.2     
  34 C34           -4.5925    -0.1239    -0.8665 C.3     
  35 C35           -5.8084     0.8091    -1.0266 C.3     
  36 O36           -5.2261     2.1442    -1.0620 O.3     
  37 O37           -3.1639     3.0234    -0.9461 O.2     
  38 C38           -6.7560     0.6645     0.1659 C.3     
  39 C39           -4.6920    -0.9174     0.4379 C.3     
  40 O40           -3.5642    -1.7873     0.5534 O.3     
  41 H41           -1.3693     2.4440    -0.5635 H       
  42 H42            0.7357     3.1185    -2.0241 H       
  43 H43            4.9312     4.5996     0.8134 H       
  44 H44            4.3761     5.4025    -0.5540 H       
  45 H45           -4.5113    -0.7970    -1.7200 H       
  46 H46           -6.3315     0.5984    -1.9594 H       
  47 H47           -6.2282     0.9254     1.0832 H       
  48 H48           -7.6086     1.3310     0.0352 H       
  49 H49           -7.1064    -0.3657     0.2287 H       
  50 H50           -4.7073    -0.2282     1.2822 H       
  51 H51           -5.6079    -1.5084     0.4346 H       
  52 H52           -3.5613    -2.3226     1.3588 H       
@<TRIPOS>BOND
   1    1    2 ar
   2    1    8 1
   3    1    6 ar
   4    2    3 ar
   5    3    4 ar
   6    3   19 1
   7    4    5 ar
   8    5    6 ar
   9    5    7 1
  10    6   41 1
  11    7   33 am
  12    7   34 1
  13    8    9 ar
  14    8   13 ar
  15    9   10 ar
  16    9   14 1
  17   10   11 ar
  18   11   12 ar
  19   11   18 1
  20   12   13 ar
  21   13   42 1
  22   14   15 1
  23   14   16 1
  24   14   17 1
  25   18   43 1
  26   18   44 1
  27   19   20 1
  28   19   24 1
  29   20   21 1
  30   20   29 1
  31   20   30 1
  32   21   22 1
  33   21   27 1
  34   21   28 1
  35   22   23 1
  36   23   24 1
  37   23   25 1
  38   23   26 1
  39   24   31 1
  40   24   32 1
  41   33   37 2
  42   33   36 1
  43   34   35 1
  44   34   39 1
  45   34   45 1
  46   35   36 1
  47   35   38 1
  48   35   46 1
  49   38   47 1
  50   38   48 1
  51   38   49 1
  52   39   40 1
  53   39   50 1
  54   39   51 1
  55   40   52 1

#	End of record

