#	Name: ASD01916678
#	Creating user name:	WinNT
#	Creation time:	15. 06. 2019 20:07

#	Modifying user name:	WinNT
#	Modification time:	15. 06. 2019 20:07

#	Program:	/corina/corina34_cracker 3.40 0067  02.08.2006

@<TRIPOS>MOLECULE
ASD01916678
  42   45    0    0    0
SMALL
NO_CHARGES


@<TRIPOS>ATOM
   1 C1            -0.0166     1.3750     0.0096 C.ar    
   2 C2             0.0021    -0.0041     0.0020 C.ar    
   3 C3             1.2078    -0.6830    -0.0127 C.ar    
   4 C4             2.4027     0.0149    -0.0199 C.ar    
   5 C5             2.3997     1.3941    -0.0124 C.ar    
   6 C6             1.1860     2.0866     0.0019 C.ar    
   7 C7             1.1748     3.5185     0.0093 C.1     
   8 C8             1.1655     4.6925     0.0153 C.1     
   9 C9             1.1543     6.1244     0.0226 C.ar    
  10 N10           -0.0052     6.7754     0.0423 N.ar    
  11 C11            2.3615     6.8275     0.0148 C.ar    
  12 C12            2.3331     8.2105     0.0225 C.ar    
  13 C13            1.1004     8.8487     0.0377 C.ar    
  14 C14           -0.0571     8.0912     0.0500 C.ar    
  15 C15           -1.3965     8.7817     0.0724 C.3     
  16 C16           -1.9022    10.5446    -1.2956 C.2     
  17 N17           -1.2391    10.2228    -0.1765 N.am    
  18 C18           -2.2732     8.3004    -1.0998 C.3     
  19 O19           -2.5153     9.5081    -1.8782 O.3     
  20 C20           -3.5720     7.7316    -0.5894 C.ar    
  21 C21           -4.6401     8.5705    -0.3320 C.ar    
  22 C22           -3.6971     6.3704    -0.3840 C.ar    
  23 C23           -4.8885     5.8486     0.0843 C.ar    
  24 C24           -5.9546     6.6882     0.3476 C.ar    
  25 C25           -5.8316     8.0488     0.1362 C.ar    
  26 O26           -1.9431    11.6746    -1.7405 O.2     
  27 H27           -0.9584     1.9035     0.0169 H       
  28 H28           -0.9266    -0.5554     0.0079 H       
  29 H29            1.2163    -1.7630    -0.0182 H       
  30 H30            3.3399    -0.5217    -0.0310 H       
  31 H31            3.3330     1.9375    -0.0174 H       
  32 H32            3.3032     6.2990     0.0034 H       
  33 H33            3.2499     8.7813     0.0172 H       
  34 H34            1.0455     9.9272     0.0444 H       
  35 H35           -1.8998     8.6078     1.0235 H       
  36 H36           -0.7374    10.8397     0.3790 H       
  37 H37           -1.7399     7.5612    -1.6975 H       
  38 H38           -4.5437     9.6336    -0.4963 H       
  39 H39           -2.8641     5.7144    -0.5897 H       
  40 H40           -4.9864     4.7850     0.2441 H       
  41 H41           -6.8856     6.2805     0.7131 H       
  42 H42           -6.6660     8.7042     0.3377 H       
@<TRIPOS>BOND
   1    1    2 ar
   2    1    6 ar
   3    1   27 1
   4    2    3 ar
   5    2   28 1
   6    3    4 ar
   7    3   29 1
   8    4    5 ar
   9    4   30 1
  10    5    6 ar
  11    5   31 1
  12    6    7 1
  13    7    8 3
  14    8    9 1
  15    9   11 ar
  16    9   10 ar
  17   10   14 ar
  18   11   12 ar
  19   11   32 1
  20   12   13 ar
  21   12   33 1
  22   13   14 ar
  23   13   34 1
  24   14   15 1
  25   15   18 1
  26   15   17 1
  27   15   35 1
  28   16   17 am
  29   16   19 1
  30   16   26 2
  31   17   36 1
  32   18   19 1
  33   18   20 1
  34   18   37 1
  35   20   22 ar
  36   20   21 ar
  37   21   25 ar
  38   21   38 1
  39   22   23 ar
  40   22   39 1
  41   23   24 ar
  42   23   40 1
  43   24   25 ar
  44   24   41 1
  45   25   42 1

#	End of record

