#	Name: ASD06710036
#	Creating user name:	WinNT
#	Creation time:	15. 06. 2019 21:08

#	Modifying user name:	WinNT
#	Modification time:	15. 06. 2019 21:08

#	Program:	/corina/corina34_cracker 3.40 0067  02.08.2006

@<TRIPOS>MOLECULE
ASD06710036
  54   55    0    0    0
SMALL
NO_CHARGES


@<TRIPOS>ATOM
   1 C1             0.2997     1.0478     1.2386 C.ar    
   2 C2             0.0052     0.0224     0.3519 C.ar    
   3 C3             0.9026    -0.2991    -0.6560 C.ar    
   4 C4             2.0869     0.4022    -0.7743 C.ar    
   5 C5             2.3783     1.4235     0.1110 C.ar    
   6 C6             1.4853     1.7462     1.1161 C.ar    
   7 C7             2.5185     4.1187    -1.1153 C.ar    
   8 C8             3.3762     3.6598    -0.1326 C.ar    
   9 C9             3.6714     2.1863    -0.0198 C.3     
  10 C10            2.2463     5.4689    -1.2207 C.ar    
  11 C11            2.8342     6.3648    -0.3396 C.ar    
  12 C12            3.6948     5.9019     0.6452 C.ar    
  13 C13            3.9638     4.5507     0.7465 C.ar    
  14 O14           -1.1603    -0.6664     0.4707 O.3     
  15 O15            2.5684     7.6936    -0.4415 O.3     
  16 C16           -1.3971    -1.7092    -0.4773 C.3     
  17 C17           -2.7483    -2.3655    -0.1866 C.3     
  18 C18           -3.0590    -3.3962    -1.2738 C.3     
  19 O19           -2.6985    -3.0150     1.0853 O.3     
  20 C20            3.2090     8.5575     0.4994 C.3     
  21 C21            2.7914    10.0045     0.2298 C.3     
  22 O22            1.3912    10.1498     0.4756 O.3     
  23 O23           -4.3705    -3.9252    -1.0678 O.3     
  24 C24            3.5715    10.9411     1.1545 C.3     
  25 Br25           3.1546    12.8078     0.6996 Br      
  26 C26            4.5399     1.9332     1.2141 C.3     
  27 C27            4.4154     1.7180    -1.2720 C.3     
  28 H28           -0.3994     1.3029     2.0214 H       
  29 H29            0.6758    -1.0972    -1.3473 H       
  30 H30            2.7859     0.1524    -1.5588 H       
  31 H31            1.7152     2.5443     1.8064 H       
  32 H32            2.0645     3.4213    -1.8038 H       
  33 H33            1.5765     5.8268    -1.9886 H       
  34 H34            4.1541     6.5974     1.3321 H       
  35 H35            4.6334     4.1898     1.5133 H       
  36 H36           -1.4057    -1.2903    -1.4836 H       
  37 H37           -0.6067    -2.4558    -0.4012 H       
  38 H38           -3.5275    -1.6034    -0.1751 H       
  39 H39           -3.0095    -2.9185    -2.2522 H       
  40 H40           -2.3296    -4.2049    -1.2269 H       
  41 H41           -2.0259    -3.7070     1.1475 H       
  42 H42            2.9138     8.2764     1.5103 H       
  43 H43            4.2905     8.4666     0.3983 H       
  44 H44            3.0062    10.2572    -0.8085 H       
  45 H45            1.1273     9.9408     1.3821 H       
  46 H46           -4.6351    -4.5864    -1.7219 H       
  47 H47            3.2895    10.7477     2.1895 H       
  48 H48            4.6403    10.7669     1.0305 H       
  49 H49            4.0098     2.2669     2.1062 H       
  50 H50            4.7534     0.8674     1.2957 H       
  51 H51            5.4752     2.4849     1.1195 H       
  52 H52            5.3507     2.2697    -1.3666 H       
  53 H53            4.6289     0.6522    -1.1904 H       
  54 H54            3.7967     1.8983    -2.1510 H       
@<TRIPOS>BOND
   1    1    2 ar
   2    1    6 ar
   3    1   28 1
   4    2    3 ar
   5    2   14 1
   6    3    4 ar
   7    3   29 1
   8    4    5 ar
   9    4   30 1
  10    5    6 ar
  11    5    9 1
  12    6   31 1
  13    7    8 ar
  14    7   10 ar
  15    7   32 1
  16    8    9 1
  17    8   13 ar
  18    9   26 1
  19    9   27 1
  20   10   11 ar
  21   10   33 1
  22   11   12 ar
  23   11   15 1
  24   12   13 ar
  25   12   34 1
  26   13   35 1
  27   14   16 1
  28   15   20 1
  29   16   17 1
  30   16   36 1
  31   16   37 1
  32   17   18 1
  33   17   19 1
  34   17   38 1
  35   18   23 1
  36   18   39 1
  37   18   40 1
  38   19   41 1
  39   20   21 1
  40   20   42 1
  41   20   43 1
  42   21   24 1
  43   21   22 1
  44   21   44 1
  45   22   45 1
  46   23   46 1
  47   24   25 1
  48   24   47 1
  49   24   48 1
  50   26   49 1
  51   26   50 1
  52   26   51 1
  53   27   52 1
  54   27   53 1
  55   27   54 1

#	End of record

