#	Name: ASD01910301
#	Creating user name:	WinNT
#	Creation time:	15. 06. 2019 19:55

#	Modifying user name:	WinNT
#	Modification time:	15. 06. 2019 19:55

#	Program:	/corina/corina34_cracker 3.40 0067  02.08.2006

@<TRIPOS>MOLECULE
ASD01910301
  44   47    0    0    0
SMALL
NO_CHARGES


@<TRIPOS>ATOM
   1 C1            -0.6699     1.7904    -2.0505 C.ar    
   2 C2            -0.7353     0.4292    -1.8141 C.ar    
   3 C3             0.3298    -0.2273    -1.2245 C.ar    
   4 C4             1.4643     0.4737    -0.8686 C.ar    
   5 C5             1.5354     1.8448    -1.1045 C.ar    
   6 C6             0.4599     2.5010    -1.6988 C.ar    
   7 C7             2.7529     2.6041    -0.7232 C.2     
   8 N8             2.9580     3.8960    -0.8855 N.2     
   9 N9             4.1316     4.1694    -0.4288 N.pl3   
  10 N10            4.6765     3.0918     0.0176 N.2     
  11 N11            3.8551     2.1102    -0.1418 N.2     
  12 C12            4.7492     5.4978    -0.4198 C.3     
  13 C13            5.0640     5.9050     1.0215 C.3     
  14 C14            5.6791     7.3063     1.0347 C.3     
  15 C15            6.9883     7.2925     0.2392 C.3     
  16 N16            6.7192     6.7642    -1.1051 N.am    
  17 C17            6.0478     5.4635    -1.2317 C.3     
  18 C18            7.0814     7.4596    -2.2014 C.2     
  19 C19            7.6796     8.8029    -2.0597 C.ar    
  20 O20            6.9158     6.9814    -3.3067 O.2     
  21 C21            8.7529     9.0034    -1.1897 C.ar    
  22 C22            9.3084    10.2588    -1.0604 C.ar    
  23 C23            8.8033    11.3220    -1.7917 C.ar    
  24 C24            7.7354    11.1295    -2.6585 C.ar    
  25 C25            7.1769     9.8753    -2.8000 C.ar    
  26 F26            9.3512    12.5499    -1.6606 F       
  27 F27            7.2468    12.1698    -3.3686 F       
  28 H28           -1.5027     2.2974    -2.5152 H       
  29 H29           -1.6214    -0.1230    -2.0904 H       
  30 H30            0.2736    -1.2903    -1.0421 H       
  31 H31            2.2951    -0.0397    -0.4077 H       
  32 H32            0.5101     3.5637    -1.8842 H       
  33 H33            4.0630     6.2210    -0.8605 H       
  34 H34            4.1449     5.9063     1.6075 H       
  35 H35            5.7690     5.1949     1.4537 H       
  36 H36            4.9846     8.0127     0.5801 H       
  37 H37            5.8815     7.6051     2.0632 H       
  38 H38            7.3794     8.3069     0.1617 H       
  39 H39            7.7154     6.6558     0.7432 H       
  40 H40            6.6982     4.6776    -0.8477 H       
  41 H41            5.8184     5.2711    -2.2798 H       
  42 H42            9.1475     8.1762    -0.6184 H       
  43 H43           10.1387    10.4140    -0.3874 H       
  44 H44            6.3467     9.7256    -3.4743 H       
@<TRIPOS>BOND
   1    1    2 ar
   2    1    6 ar
   3    1   28 1
   4    2    3 ar
   5    2   29 1
   6    3    4 ar
   7    3   30 1
   8    4    5 ar
   9    4   31 1
  10    5    6 ar
  11    5    7 1
  12    6   32 1
  13    7    8 2
  14    7   11 1
  15    8    9 1
  16    9   10 1
  17    9   12 1
  18   10   11 2
  19   12   13 1
  20   12   17 1
  21   12   33 1
  22   13   14 1
  23   13   34 1
  24   13   35 1
  25   14   15 1
  26   14   36 1
  27   14   37 1
  28   15   16 1
  29   15   38 1
  30   15   39 1
  31   16   17 1
  32   16   18 am
  33   17   40 1
  34   17   41 1
  35   18   19 1
  36   18   20 2
  37   19   21 ar
  38   19   25 ar
  39   21   22 ar
  40   21   42 1
  41   22   23 ar
  42   22   43 1
  43   23   24 ar
  44   23   26 1
  45   24   25 ar
  46   24   27 1
  47   25   44 1

#	End of record

