#	Name: ASD01882508
#	Creating user name:	WinNT
#	Creation time:	15. 06. 2019 19:44

#	Modifying user name:	WinNT
#	Modification time:	15. 06. 2019 19:44

#	Program:	/corina/corina34_cracker 3.40 0067  02.08.2006

@<TRIPOS>MOLECULE
ASD01882508
  59   63    0    0    0
SMALL
NO_CHARGES


@<TRIPOS>ATOM
   1 C1            -0.0170     1.4050     0.0098 C.2     
   2 C2             0.0021    -0.0041     0.0020 C.2     
   3 C3             1.1991    -0.6521    -0.0129 C.2     
   4 C4             2.3930     0.0893    -0.0203 C.2     
   5 C5             2.3588     1.4383    -0.0123 C.2     
   6 N6             1.1665     2.1012     0.0022 N.pl3   
   7 N7            -0.4824     3.4846     0.0225 N.2     
   8 N8            -0.9895     2.3019     0.0186 N.2     
   9 C9             0.8240     3.4179     0.0121 C.2     
  10 C10            1.2438    -2.1584    -0.0209 C.3     
  11 N11            1.3656    -2.6373    -1.4043 N.3     
  12 C12            1.6494    -4.0776    -1.4395 C.3     
  13 C13            1.9131    -4.5118    -2.8831 C.3     
  14 C14            0.6841    -4.1937    -3.7392 C.3     
  15 C15            0.3812    -2.6956    -3.6467 C.3     
  16 C16            0.1619    -2.3141    -2.1809 C.3     
  17 C17            0.9601    -4.5640    -5.1737 C.ar    
  18 C18            0.1672    -5.5057    -5.8119 C.ar    
  19 C19            0.4243    -5.8448    -7.1342 C.ar    
  20 C20            1.4701    -5.2423    -7.8099 C.ar    
  21 C21            2.2582    -4.3039    -7.1698 C.ar    
  22 C22            2.0000    -3.9612    -5.8555 C.ar    
  23 F23           -0.3458    -6.7622    -7.7592 F       
  24 O24           -0.8596    -6.0962    -5.1445 O.3     
  25 C25           -2.1340    -5.4537    -5.2152 C.3     
  26 C26           -3.1561    -6.2581    -4.4094 C.3     
  27 C27            1.7759     4.5862     0.0100 C.3     
  28 C28            2.0856     4.9891    -1.4332 C.3     
  29 C29            2.9459     6.2357    -1.6495 C.3     
  30 C30            3.5319     4.8469    -1.9116 C.3     
  31 Cl31          -1.4832    -0.9027     0.0120 Cl      
  32 H32            3.3434    -0.4236    -0.0322 H       
  33 H33            3.2826     1.9976    -0.0178 H       
  34 H34            2.1017    -2.4995     0.5585 H       
  35 H35            0.3279    -2.5514     0.4204 H       
  36 H36            2.5280    -4.2897    -0.8302 H       
  37 H37            0.7936    -4.6261    -1.0459 H       
  38 H38            2.7773    -3.9737    -3.2728 H       
  39 H39            2.1084    -5.5838    -2.9108 H       
  40 H40           -0.1714    -4.7616    -3.3736 H       
  41 H41            1.2213    -2.1290    -4.0484 H       
  42 H42           -0.5180    -2.4701    -4.2199 H       
  43 H43           -0.6869    -2.8709    -1.7838 H       
  44 H44           -0.0399    -1.2453    -2.1101 H       
  45 H45            1.6714    -5.5053    -8.8379 H       
  46 H46            3.0746    -3.8346    -7.6987 H       
  47 H47            2.6146    -3.2245    -5.3595 H       
  48 H48           -2.0570    -4.4476    -4.8031 H       
  49 H49           -2.4550    -5.3968    -6.2553 H       
  50 H50           -3.2330    -7.2642    -4.8215 H       
  51 H51           -2.8351    -6.3151    -3.3693 H       
  52 H52           -4.1282    -5.7680    -4.4633 H       
  53 H53            1.3200     5.4273     0.5322 H       
  54 H54            2.6998     4.3030     0.5143 H       
  55 H55            1.2942     4.7920    -2.1564 H       
  56 H56            2.7208     6.8585    -2.5153 H       
  57 H57            3.2913     6.7687    -0.7637 H       
  58 H58            4.2628     4.4662    -1.1982 H       
  59 H59            3.6923     4.5560    -2.9497 H       
@<TRIPOS>BOND
   1    1    2 1
   2    1    6 1
   3    1    8 2
   4    2    3 2
   5    2   31 1
   6    3    4 1
   7    3   10 1
   8    4    5 2
   9    4   32 1
  10    5    6 1
  11    5   33 1
  12    6    9 1
  13    7    8 1
  14    7    9 2
  15    9   27 1
  16   10   11 1
  17   10   34 1
  18   10   35 1
  19   11   12 1
  20   11   16 1
  21   12   13 1
  22   12   36 1
  23   12   37 1
  24   13   14 1
  25   13   38 1
  26   13   39 1
  27   14   15 1
  28   14   17 1
  29   14   40 1
  30   15   16 1
  31   15   41 1
  32   15   42 1
  33   16   43 1
  34   16   44 1
  35   17   18 ar
  36   17   22 ar
  37   18   19 ar
  38   18   24 1
  39   19   20 ar
  40   19   23 1
  41   20   21 ar
  42   20   45 1
  43   21   22 ar
  44   21   46 1
  45   22   47 1
  46   24   25 1
  47   25   26 1
  48   25   48 1
  49   25   49 1
  50   26   50 1
  51   26   51 1
  52   26   52 1
  53   27   28 1
  54   27   53 1
  55   27   54 1
  56   28   29 1
  57   28   30 1
  58   28   55 1
  59   29   30 1
  60   29   56 1
  61   29   57 1
  62   30   58 1
  63   30   59 1

#	End of record

