#	Name: ASD04590826
#	Creating user name:	WinNT
#	Creation time:	15. 06. 2019 20:51

#	Modifying user name:	WinNT
#	Modification time:	15. 06. 2019 20:51

#	Program:	/corina/corina34_cracker 3.40 0067  02.08.2006

@<TRIPOS>MOLECULE
ASD04590826
  58   63    0    0    0
SMALL
NO_CHARGES


@<TRIPOS>ATOM
   1 N1            -0.0171     1.3231    -0.0119 N.ar    
   2 C2             0.0017    -0.0035    -0.0051 C.ar    
   3 N3             1.1297    -0.6949    -0.0122 N.ar    
   4 C4             2.3049    -0.0729    -0.0266 C.ar    
   5 C5             2.3189     1.3365    -0.0341 C.ar    
   6 C6             1.1072     2.0202    -0.0262 C.ar    
   7 N7             3.6030    -0.5196    -0.0371 N.pl3   
   8 C8             4.4822     0.5494    -0.0513 C.ar    
   9 C9             3.7312     1.7384    -0.0501 C.ar    
  10 C10            5.8680     0.6416    -0.0662 C.ar    
  11 N11            6.4612     1.8178    -0.0786 N.ar    
  12 C12            5.7850     2.9530    -0.0779 C.ar    
  13 C13            4.4064     2.9583    -0.0635 C.ar    
  14 N14           -1.2023    -0.6889     0.0103 N.pl3   
  15 C15           -2.3999     0.0104     0.1310 C.ar    
  16 N16           -2.3780     1.3188     0.3317 N.ar    
  17 C17           -3.4900     2.0191     0.4517 C.ar    
  18 C18           -4.7245     1.4066     0.3713 C.ar    
  19 C19           -4.7911     0.0355     0.1615 C.ar    
  20 C20           -3.6087    -0.6709     0.0341 C.ar    
  21 C21           -5.9871     2.2176     0.5104 C.3     
  22 C22           -5.7064     3.4062     1.4199 C.3     
  23 C23           -6.9809     4.2535     1.5566 C.3     
  24 S24           -7.2803     5.0393    -0.0577 S.o2    
  25 C25           -7.0040     3.7250    -1.2005 C.2     
  26 C26           -6.4541     2.6111    -0.8478 C.2     
  27 C27            4.0016    -1.9293    -0.0329 C.3     
  28 C28            3.4615    -2.6261     1.2283 C.3     
  29 C29            2.5281    -3.7543     0.7430 C.3     
  30 C30            3.0196    -4.0625    -0.6931 C.3     
  31 C31            3.3775    -2.6585    -1.2406 C.3     
  32 O32           -8.6557     5.3611    -0.2124 O.2     
  33 O33           -6.2621     5.9857    -0.3522 O.2     
  34 O34           -6.9901     1.4017     1.1189 O.3     
  35 H35            1.0848     3.0999    -0.0316 H       
  36 H36            6.4644    -0.2588    -0.0674 H       
  37 H37            6.3204     3.8910    -0.0883 H       
  38 H38            3.8597     3.8897    -0.0631 H       
  39 H39           -1.2107    -1.6561    -0.0630 H       
  40 H40           -3.4334     3.0852     0.6151 H       
  41 H41           -5.7446    -0.4672     0.0949 H       
  42 H42           -3.6237    -1.7383    -0.1299 H       
  43 H43           -5.4004     3.0480     2.4028 H       
  44 H44           -4.9102     4.0136     0.9895 H       
  45 H45           -7.8242     3.6154     1.8210 H       
  46 H46           -6.8386     5.0176     2.3208 H       
  47 H47           -7.3050     3.8558    -2.2294 H       
  48 H48           -6.3164     1.8789    -1.6298 H       
  49 H49            5.0880    -2.0100    -0.0677 H       
  50 H50            4.2858    -3.0456     1.8051 H       
  51 H51            2.9028    -1.9153     1.8373 H       
  52 H52            2.6307    -4.6341     1.3783 H       
  53 H53            1.4931    -3.4128     0.7269 H       
  54 H54            3.9003    -4.7044    -0.6706 H       
  55 H55            2.2244    -4.5166    -1.2845 H       
  56 H56            2.4797    -2.1400    -1.5770 H       
  57 H57            4.1000    -2.7386    -2.0529 H       
  58 H58           -7.2079     0.6053     0.6156 H       
@<TRIPOS>BOND
   1    1    2 ar
   2    1    6 ar
   3    2    3 ar
   4    2   14 1
   5    3    4 ar
   6    4    5 ar
   7    4    7 1
   8    5    6 ar
   9    5    9 1
  10    6   35 1
  11    7    8 1
  12    7   27 1
  13    8    9 ar
  14    8   10 ar
  15    9   13 ar
  16   10   11 ar
  17   10   36 1
  18   11   12 ar
  19   12   13 ar
  20   12   37 1
  21   13   38 1
  22   14   15 1
  23   14   39 1
  24   15   16 ar
  25   15   20 ar
  26   16   17 ar
  27   17   18 ar
  28   17   40 1
  29   18   19 ar
  30   18   21 1
  31   19   20 ar
  32   19   41 1
  33   20   42 1
  34   21   22 1
  35   21   34 1
  36   21   26 1
  37   22   23 1
  38   22   43 1
  39   22   44 1
  40   23   24 1
  41   23   45 1
  42   23   46 1
  43   24   25 1
  44   24   32 2
  45   24   33 2
  46   25   26 2
  47   25   47 1
  48   26   48 1
  49   27   28 1
  50   27   31 1
  51   27   49 1
  52   28   29 1
  53   28   50 1
  54   28   51 1
  55   29   30 1
  56   29   52 1
  57   29   53 1
  58   30   31 1
  59   30   54 1
  60   30   55 1
  61   31   56 1
  62   31   57 1
  63   34   58 1

#	End of record

