#	Name: ASD01912210
#	Creating user name:	WinNT
#	Creation time:	15. 06. 2019 19:59

#	Modifying user name:	WinNT
#	Modification time:	15. 06. 2019 19:59

#	Program:	/corina/corina34_cracker 3.40 0067  02.08.2006

@<TRIPOS>MOLECULE
ASD01912210
  40   42    0    0    0
SMALL
NO_CHARGES


@<TRIPOS>ATOM
   1 C1            -0.0790     1.2333     0.1585 C.ar    
   2 C2             0.1525     0.2506    -0.7990 C.ar    
   3 C3             1.4318    -0.2522    -0.9510 C.ar    
   4 C4             2.4409     0.2463    -0.1373 C.ar    
   5 C5             2.1403     1.2214     0.7921 C.ar    
   6 N6             0.9100     1.6828     0.9153 N.ar    
   7 N7            -1.3588     1.7517     0.3180 N.3     
   8 C8            -1.3103     3.1845     0.6354 C.3     
   9 C9            -2.7252     3.7701     0.5634 C.3     
  10 C10           -3.6266     2.9430     1.4561 C.2     
  11 C11           -3.5777     1.4368     1.3071 C.3     
  12 C12           -2.1086     0.9995     1.3318 C.3     
  13 C13           -4.4352     3.5212     2.3431 C.2     
  14 C14           -5.2776     2.7160     3.1754 C.1     
  15 C15           -5.9683     2.0559     3.8577 C.1     
  16 C16           -6.8107     1.2507     4.6899 C.ar    
  17 C17           -7.6573     1.8624     5.6191 C.ar    
  18 C18           -8.4643     1.0704     6.4149 C.ar    
  19 C19           -8.4019    -0.3082     6.2593 C.ar    
  20 C20           -7.5418    -0.8482     5.3206 C.ar    
  21 N21           -6.7862    -0.0736     4.5697 N.ar    
  22 N22           -0.8618    -0.2078    -1.5716 N.pl3   
  23 O23           -0.6741    -1.1395    -2.3334 O.2     
  24 O24           -1.9614     0.3119    -1.5045 O.2     
  25 H25            1.6414    -1.0156    -1.6856 H       
  26 H26            3.4506    -0.1255    -0.2307 H       
  27 H27            2.9220     1.6119     1.4268 H       
  28 H28           -0.9111     3.3209     1.6404 H       
  29 H29           -0.6688     3.6945    -0.0833 H       
  30 H30           -2.7134     4.8036     0.9094 H       
  31 H31           -3.0879     3.7298    -0.4637 H       
  32 H32           -4.1147     0.9682     2.1318 H       
  33 H33           -4.0319     1.1462     0.3598 H       
  34 H34           -2.0431    -0.0668     1.1156 H       
  35 H35           -1.6869     1.1975     2.3172 H       
  36 H36           -4.4553     4.5971     2.4346 H       
  37 H37           -7.6804     2.9380     5.7142 H       
  38 H38           -9.1283     1.5141     7.1419 H       
  39 H39           -9.0196    -0.9532     6.8665 H       
  40 H40           -7.4921    -1.9201     5.1985 H       
@<TRIPOS>BOND
   1    1    2 ar
   2    1    6 ar
   3    1    7 1
   4    2    3 ar
   5    2   22 1
   6    3    4 ar
   7    3   25 1
   8    4    5 ar
   9    4   26 1
  10    5    6 ar
  11    5   27 1
  12    7    8 1
  13    7   12 1
  14    8    9 1
  15    8   28 1
  16    8   29 1
  17    9   10 1
  18    9   30 1
  19    9   31 1
  20   10   11 1
  21   10   13 2
  22   11   12 1
  23   11   32 1
  24   11   33 1
  25   12   34 1
  26   12   35 1
  27   13   14 1
  28   13   36 1
  29   14   15 3
  30   15   16 1
  31   16   17 ar
  32   16   21 ar
  33   17   18 ar
  34   17   37 1
  35   18   19 ar
  36   18   38 1
  37   19   20 ar
  38   19   39 1
  39   20   21 ar
  40   20   40 1
  41   22   23 2
  42   22   24 2

#	End of record

