#	Name: ASD07301335
#	Creating user name:	WinNT
#	Creation time:	15. 06. 2019 21:11

#	Modifying user name:	WinNT
#	Modification time:	15. 06. 2019 21:11

#	Program:	/corina/corina34_cracker 3.40 0067  02.08.2006

@<TRIPOS>MOLECULE
ASD07301335
  34   35    0    0    0
SMALL
NO_CHARGES


@<TRIPOS>ATOM
   1 C1            -0.0171     1.4668     0.0505 C.2     
   2 C2             0.0021    -0.0041     0.0011 C.2     
   3 C3             1.2720    -0.6342    -0.0551 C.2     
   4 C4             2.3708     0.1575    -0.0594 C.2     
   5 N5             2.2546     1.5074    -0.0109 N.pl3   
   6 N6             1.1273     2.1154     0.0402 N.2     
   7 O7            -1.0313    -0.6546     0.0087 O.2     
   8 C8             4.5416     4.3853    -0.1165 C.ar    
   9 C9             3.3650     3.6638    -0.1133 C.ar    
  10 C10            3.4226     2.2746    -0.0175 C.ar    
  11 C11            4.6754     1.6704     0.0720 C.ar    
  12 C12            5.8048     2.4637     0.0626 C.ar    
  13 N13            5.7086     3.7762    -0.0299 N.ar    
  14 C14           -1.2988     2.2018     0.1044 C.2     
  15 C15           -1.3019     3.6135     0.1514 C.2     
  16 C16           -2.4741     4.2857     0.2008 C.2     
  17 O17           -2.3523     1.5898     0.1083 O.2     
  18 N18           -2.4772     5.6501     0.2462 N.pl3   
  19 C19           -1.2104     6.3860     0.2415 C.3     
  20 C20           -3.7472     6.3784     0.2996 C.3     
  21 H21            1.3596    -1.7100    -0.0929 H       
  22 H22            3.3519    -0.2921    -0.1016 H       
  23 H23            4.5066     5.4619    -0.1949 H       
  24 H24            2.4129     4.1687    -0.1841 H       
  25 H25            4.7612     0.5965     0.1480 H       
  26 H26            6.7797     2.0041     0.1316 H       
  27 H27           -0.3681     4.1560     0.1479 H       
  28 H28           -3.4080     3.7432     0.2042 H       
  29 H29           -0.9199     6.6027    -0.7865 H       
  30 H30           -1.3310     7.3204     0.7896 H       
  31 H31           -0.4378     5.7825     0.7179 H       
  32 H32           -4.2975     6.0840     1.1932 H       
  33 H33           -3.5504     7.4501     0.3307 H       
  34 H34           -4.3385     6.1431    -0.5853 H       
@<TRIPOS>BOND
   1    1    2 1
   2    1    6 2
   3    1   14 1
   4    2    3 1
   5    2    7 2
   6    3    4 2
   7    3   21 1
   8    4    5 1
   9    4   22 1
  10    5    6 1
  11    5   10 1
  12    8    9 ar
  13    8   13 ar
  14    8   23 1
  15    9   10 ar
  16    9   24 1
  17   10   11 ar
  18   11   12 ar
  19   11   25 1
  20   12   13 ar
  21   12   26 1
  22   14   15 1
  23   14   17 2
  24   15   16 2
  25   15   27 1
  26   16   18 1
  27   16   28 1
  28   18   19 1
  29   18   20 1
  30   19   29 1
  31   19   30 1
  32   19   31 1
  33   20   32 1
  34   20   33 1
  35   20   34 1

#	End of record

