#	Name: ASD01151098
#	Creating user name:	WinNT
#	Creation time:	15. 06. 2019 19:05

#	Modifying user name:	WinNT
#	Modification time:	15. 06. 2019 19:05

#	Program:	/corina/corina34_cracker 3.40 0067  02.08.2006

@<TRIPOS>MOLECULE
ASD01151098
  44   46    0    0    0
SMALL
NO_CHARGES


@<TRIPOS>ATOM
   1 C1             0.1117     1.5272     0.0756 C.3     
   2 C2             0.1324    -0.0027     0.0672 C.3     
   3 C3             0.9940    -0.5074     1.2264 C.3     
   4 O4            -1.2000    -0.4979     0.2132 O.3     
   5 C5             0.7182    -0.4975    -1.2568 C.3     
   6 N6             0.7381    -1.9623    -1.2648 N.am    
   7 C7             1.8076    -2.6165    -0.7800 C.2     
   8 O8             2.7384    -1.9672    -0.3437 O.2     
   9 N9             1.8917    -3.9558    -0.7565 N.am    
  10 C10            3.0939    -4.5904    -0.2104 C.3     
  11 C11            2.9121    -4.8227     1.2675 C.ar    
  12 C12            3.2900    -3.8477     2.1718 C.ar    
  13 C13            3.1230    -4.0601     3.5273 C.ar    
  14 C14            2.5777    -5.2484     3.9789 C.ar    
  15 Br15           2.3484    -5.5394     5.8333 Br      
  16 C16            2.1997    -6.2237     3.0737 C.ar    
  17 C17            2.3622    -6.0082     1.7181 C.ar    
  18 C18            0.8896    -4.7300    -1.2261 C.2     
  19 O19            0.9740    -5.9428    -1.2001 O.2     
  20 C20           -0.3088    -4.0676    -1.7702 C.ar    
  21 C21           -1.3842    -4.7968    -2.2730 C.ar    
  22 C22           -2.4839    -4.1311    -2.7716 C.ar    
  23 C23           -2.5239    -2.7442    -2.7748 C.ar    
  24 Cl24          -3.9178    -1.9252    -3.4071 Cl      
  25 C25           -1.4625    -2.0078    -2.2779 C.ar    
  26 F26           -1.5113    -0.6577    -2.2846 F       
  27 C27           -0.3505    -2.6623    -1.7680 C.ar    
  28 H28            1.1281     1.9049    -0.0358 H       
  29 H29           -0.5021     1.8868    -0.7502 H       
  30 H30           -0.3056     1.8797     1.0188 H       
  31 H31            0.5767    -0.1549     2.1696 H       
  32 H32            1.0088    -1.5973     1.2204 H       
  33 H33            2.0104    -0.1296     1.1150 H       
  34 H34           -1.8032    -0.2169    -0.4884 H       
  35 H35            0.1044    -0.1379    -2.0826 H       
  36 H36            1.7346    -0.1197    -1.3682 H       
  37 H37            3.2601    -5.5446    -0.7104 H       
  38 H38            3.9536    -3.9404    -0.3730 H       
  39 H39            3.7160    -2.9201     1.8191 H       
  40 H40            3.4185    -3.2986     4.2338 H       
  41 H41            1.7739    -7.1516     3.4259 H       
  42 H42            2.0634    -6.7679     1.0110 H       
  43 H43           -1.3565    -5.8765    -2.2724 H       
  44 H44           -3.3194    -4.6929    -3.1625 H       
@<TRIPOS>BOND
   1    1    2 1
   2    1   28 1
   3    1   29 1
   4    1   30 1
   5    2    3 1
   6    2    4 1
   7    2    5 1
   8    3   31 1
   9    3   32 1
  10    3   33 1
  11    4   34 1
  12    5    6 1
  13    5   35 1
  14    5   36 1
  15    6   27 1
  16    6    7 am
  17    7    8 2
  18    7    9 am
  19    9   10 1
  20    9   18 am
  21   10   11 1
  22   10   37 1
  23   10   38 1
  24   11   17 ar
  25   11   12 ar
  26   12   13 ar
  27   12   39 1
  28   13   14 ar
  29   13   40 1
  30   14   15 1
  31   14   16 ar
  32   16   17 ar
  33   16   41 1
  34   17   42 1
  35   18   19 2
  36   18   20 1
  37   20   27 ar
  38   20   21 ar
  39   21   22 ar
  40   21   43 1
  41   22   23 ar
  42   22   44 1
  43   23   24 1
  44   23   25 ar
  45   25   26 1
  46   25   27 ar

#	End of record

