#	Name: ASD01940212
#	Creating user name:	WinNT
#	Creation time:	15. 06. 2019 20:12

#	Modifying user name:	WinNT
#	Modification time:	15. 06. 2019 20:12

#	Program:	/corina/corina34_cracker 3.40 0067  02.08.2006

@<TRIPOS>MOLECULE
ASD01940212
  41   44    0    0    0
SMALL
NO_CHARGES


@<TRIPOS>ATOM
   1 C1            -0.4847     1.4479    -0.0353 C.2     
   2 C2            -0.6010     0.1173    -0.0710 C.2     
   3 C3             0.5905    -0.5712    -0.1666 C.2     
   4 C4             1.6896     0.2081    -0.2093 C.2     
   5 S5             1.2127     1.8990    -0.1253 S.3     
   6 S6            -1.8299     2.5804     0.0774 S.o2    
   7 O7            -1.3631     3.8122    -0.4555 O.2     
   8 O8            -2.9712     1.8990    -0.4248 O.2     
   9 N9            -2.1142     2.8452     1.6872 N.am    
  10 C10           -1.1089     3.3928     2.4954 C.ar    
  11 C11           -0.9719     2.9754     3.8188 C.ar    
  12 C12            0.0261     3.5209     4.6148 C.ar    
  13 C13            0.8823     4.4776     4.0923 C.ar    
  14 C14            0.7439     4.8905     2.7786 C.ar    
  15 C15           -0.2450     4.3463     1.9791 C.ar    
  16 N16           -1.8397     2.0081     4.3441 N.pl3   
  17 C17           -1.9721     1.8657     5.7289 C.ar    
  18 C18           -2.6786     2.8134     6.4630 C.ar    
  19 C19           -2.8074     2.6686     7.8316 C.ar    
  20 C20           -2.2343     1.5831     8.4705 C.ar    
  21 C21           -1.5314     0.6403     7.7429 C.ar    
  22 C22           -1.4038     0.7755     6.3736 C.ar    
  23 I23           -2.4315     1.3678    10.5451 I       
  24 F24           -3.2372     3.8736     5.8392 F       
  25 F25            1.8535     5.0084     4.8671 F       
  26 F26            0.1624     3.1199     5.8977 F       
  27 S27            5.0406    -1.6759    -0.4762 S.3     
  28 N28            3.3483    -1.5652    -0.3683 N.2     
  29 C29            3.0803    -0.2824    -0.3103 C.2     
  30 N30            4.1023     0.5536    -0.3464 N.2     
  31 C31            5.2963     0.0271    -0.4370 C.2     
  32 Cl32           6.8149     0.8657    -0.5031 Cl      
  33 H33           -1.5575    -0.3824    -0.0278 H       
  34 H34            0.6390    -1.6495    -0.2040 H       
  35 H35           -2.9766     2.6213     2.0707 H       
  36 H36            1.4125     5.6366     2.3753 H       
  37 H37           -0.3469     4.6675     0.9530 H       
  38 H38           -2.3484     1.4375     3.7470 H       
  39 H39           -3.3555     3.4034     8.4028 H       
  40 H40           -1.0849    -0.2051     8.2451 H       
  41 H41           -0.8584     0.0361     5.8061 H       
@<TRIPOS>BOND
   1    1    2 2
   2    1    5 1
   3    1    6 1
   4    2    3 1
   5    2   33 1
   6    3    4 2
   7    3   34 1
   8    4    5 1
   9    4   29 1
  10    6    7 2
  11    6    8 2
  12    6    9 am
  13    9   10 1
  14    9   35 1
  15   10   11 ar
  16   10   15 ar
  17   11   12 ar
  18   11   16 1
  19   12   13 ar
  20   12   26 1
  21   13   14 ar
  22   13   25 1
  23   14   15 ar
  24   14   36 1
  25   15   37 1
  26   16   17 1
  27   16   38 1
  28   17   18 ar
  29   17   22 ar
  30   18   19 ar
  31   18   24 1
  32   19   20 ar
  33   19   39 1
  34   20   21 ar
  35   20   23 1
  36   21   22 ar
  37   21   40 1
  38   22   41 1
  39   27   28 1
  40   27   31 1
  41   28   29 2
  42   29   30 1
  43   30   31 2
  44   31   32 1

#	End of record

