#	Name: ASD05740031
#	Creating user name:	WinNT
#	Creation time:	15. 06. 2019 21:02

#	Modifying user name:	WinNT
#	Modification time:	15. 06. 2019 21:02

#	Program:	/corina/corina34_cracker 3.40 0067  02.08.2006

@<TRIPOS>MOLECULE
ASD05740031
  46   49    0    0    0
SMALL
NO_CHARGES


@<TRIPOS>ATOM
   1 N1            -0.0159     1.3184     0.0093 N.ar    
   2 C2            -3.3120     1.2316    -0.3209 C.3     
   3 C3            -3.8703     0.9932     2.1481 C.2     
   4 C4            -3.6356     0.3914     3.3718 C.2     
   5 C5            -3.0842     0.5983     1.0275 C.2     
   6 C6            -2.1279    -0.3538     1.1839 C.2     
   7 C7            -1.9282    -0.9347     2.4467 C.2     
   8 O8            -2.6741    -0.5550     3.4936 O.3     
   9 C9            -1.2872    -0.7843     0.0096 C.3     
  10 C10            0.0021    -0.0041     0.0020 C.ar    
  11 C11            1.2212    -0.6637    -0.0132 C.ar    
  12 O12           -1.0712    -1.7900     2.5916 O.2     
  13 C13            1.1137     2.0111     0.0022 C.ar    
  14 N14            2.2949     1.4115    -0.0123 N.ar    
  15 C15            2.3831     0.0915    -0.0202 C.ar    
  16 N16            1.0582     3.3941     0.0097 N.am    
  17 S17            2.4054     4.2789    -0.3701 S.o2    
  18 O18            1.9869     5.6301    -0.2348 O.2     
  19 O19            3.4242     3.7407     0.4616 O.2     
  20 S20           -4.7318     1.0508     4.5811 S.3     
  21 C21           -5.4826     2.1223     3.4144 C.2     
  22 C22           -4.9415     1.9761     2.2153 C.2     
  23 O23           -6.4912     2.9853     3.7020 O.3     
  24 C24           -6.9512     3.0245     4.9762 C.2     
  25 N25           -6.4978     2.3020     5.9512 N.2     
  26 S26           -8.2093     4.0398     5.5323 S.3     
  27 C27           -8.0399     3.3779     7.1561 C.2     
  28 C28           -7.0634     2.4694     7.1326 C.2     
  29 C29            2.7301     3.8844    -2.1107 C.3     
  30 C30            3.9668     4.6503    -2.5851 C.3     
  31 H31           -4.1140     1.9660    -0.2465 H       
  32 H32           -2.3973     1.7247    -0.6499 H       
  33 H33           -3.5894     0.4623    -1.0414 H       
  34 H34           -1.0672    -1.8488     0.0911 H       
  35 H35           -1.8316    -0.5955    -0.9156 H       
  36 H36            1.2646    -1.7429    -0.0190 H       
  37 H37            3.3490    -0.3916    -0.0317 H       
  38 H38            0.2301     3.8450     0.2375 H       
  39 H39           -5.2642     2.5462     1.3567 H       
  40 H40           -8.6224     3.6609     8.0205 H       
  41 H41           -6.7615     1.9141     8.0083 H       
  42 H42            2.9042     2.8134    -2.2142 H       
  43 H43            1.8701     4.1728    -2.7152 H       
  44 H44            4.8268     4.3619    -1.9806 H       
  45 H45            4.1619     4.4132    -3.6310 H       
  46 H46            3.7927     5.7213    -2.4816 H       
@<TRIPOS>BOND
   1    1   10 ar
   2    1   13 ar
   3    2    5 1
   4    2   31 1
   5    2   32 1
   6    2   33 1
   7    3    4 2
   8    3    5 1
   9    3   22 1
  10    4   20 1
  11    4    8 1
  12    5    6 2
  13    6    7 1
  14    6    9 1
  15    7    8 1
  16    7   12 2
  17    9   10 1
  18    9   34 1
  19    9   35 1
  20   10   11 ar
  21   11   15 ar
  22   11   36 1
  23   13   14 ar
  24   13   16 1
  25   14   15 ar
  26   15   37 1
  27   16   17 am
  28   16   38 1
  29   17   18 2
  30   17   19 2
  31   17   29 1
  32   20   21 1
  33   21   22 2
  34   21   23 1
  35   22   39 1
  36   23   24 1
  37   24   26 1
  38   24   25 2
  39   25   28 1
  40   26   27 1
  41   27   28 2
  42   27   40 1
  43   28   41 1
  44   29   30 1
  45   29   42 1
  46   29   43 1
  47   30   44 1
  48   30   45 1
  49   30   46 1

#	End of record

