#	Name: ASD07932154
#	Creating user name:	WinNT
#	Creation time:	15. 06. 2019 21:14

#	Modifying user name:	WinNT
#	Modification time:	15. 06. 2019 21:14

#	Program:	/corina/corina34_cracker 3.40 0067  02.08.2006

@<TRIPOS>MOLECULE
ASD07932154
  34   35    0    0    0
SMALL
NO_CHARGES


@<TRIPOS>ATOM
   1 N1            -0.0178     1.4624     0.0101 N.pl3   
   2 C2             0.0021    -0.0041     0.0020 C.3     
   3 C3             0.7733    -0.5065     1.2304 C.3     
   4 S4             2.4363     0.2339     1.2028 S.o2    
   5 N5             2.1138     1.8519     0.9691 N.am    
   6 C6             1.1691     2.1662     0.0025 C.2     
   7 C7             2.7940     2.8912     1.7459 C.3     
   8 N8             1.3955     3.0951    -0.8833 N.2     
   9 C9            -1.4107    -0.5268     0.0464 C.ar    
  10 C10            0.6911    -0.4987    -1.2714 C.3     
  11 C11           -1.6803    -1.7394     0.6532 C.ar    
  12 O12            3.0376     0.1712     2.4887 O.2     
  13 O13            3.1450    -0.1615     0.0363 O.2     
  14 C14           -2.4376     0.2088    -0.5146 C.ar    
  15 C15           -3.7337    -0.2708    -0.4739 C.ar    
  16 C16           -4.0024    -1.4860     0.1273 C.ar    
  17 C17           -2.9760    -2.2188     0.6939 C.ar    
  18 N18           -4.8336     0.5174    -1.0738 N.pl3   
  19 O19           -4.5969     1.5885    -1.6032 O.2     
  20 O20           -5.9754     0.0949    -1.0380 O.2     
  21 H21           -0.8639     1.9368     0.0167 H       
  22 H22            0.2524    -0.2060     2.1395 H       
  23 H23            0.8541    -1.5929     1.1945 H       
  24 H24            3.7043     3.1942     1.2285 H       
  25 H25            2.1349     3.7523     1.8561 H       
  26 H26            3.0490     2.5003     2.7309 H       
  27 H27            2.2357     3.5798    -0.8740 H       
  28 H28            1.7134    -0.1216    -1.3012 H       
  29 H29            0.7056    -1.5886    -1.2767 H       
  30 H30            0.1453    -0.1383    -2.1433 H       
  31 H31           -0.8785    -2.3123     1.0951 H       
  32 H32           -2.2277     1.1583    -0.9843 H       
  33 H33           -5.0149    -1.8604     0.1594 H       
  34 H34           -3.1860    -3.1684     1.1637 H       
@<TRIPOS>BOND
   1    1    2 1
   2    1    6 1
   3    1   21 1
   4    2    3 1
   5    2    9 1
   6    2   10 1
   7    3    4 1
   8    3   22 1
   9    3   23 1
  10    4    5 am
  11    4   12 2
  12    4   13 2
  13    5    6 1
  14    5    7 1
  15    6    8 2
  16    7   24 1
  17    7   25 1
  18    7   26 1
  19    8   27 1
  20    9   14 ar
  21    9   11 ar
  22   10   28 1
  23   10   29 1
  24   10   30 1
  25   11   17 ar
  26   11   31 1
  27   14   15 ar
  28   14   32 1
  29   15   16 ar
  30   15   18 1
  31   16   17 ar
  32   16   33 1
  33   17   34 1
  34   18   19 2
  35   18   20 2

#	End of record

