#	Name: ASD01883184
#	Creating user name:	WinNT
#	Creation time:	15. 06. 2019 19:45

#	Modifying user name:	WinNT
#	Modification time:	15. 06. 2019 19:45

#	Program:	/corina/corina34_cracker 3.40 0067  02.08.2006

@<TRIPOS>MOLECULE
ASD01883184
  64   66    0    0    0
SMALL
NO_CHARGES


@<TRIPOS>ATOM
   1 N1            -0.0162     1.3417     0.0094 N.am    
   2 C2             0.0021    -0.0041     0.0020 C.2     
   3 C3            -1.2161    -0.7274     0.0098 C.2     
   4 C4            -2.4261    -0.0112     0.0252 C.2     
   5 C5            -2.3786     1.3969     0.0323 C.2     
   6 C6            -1.1851     2.0325     0.0299 C.2     
   7 O7             1.0657    -0.6000    -0.0117 O.2     
   8 C8            -1.2151    -2.1594     0.0016 C.1     
   9 N9            -1.2144    -3.2953    -0.0049 N.1     
  10 C10            1.2513     2.0764     0.0013 C.3     
  11 C11            1.6787     2.3399    -1.4440 C.3     
  12 C12            3.0024     3.1072    -1.4525 C.3     
  13 C13            3.4929     3.2619    -2.8935 C.3     
  14 C14            2.7939     4.4907    -0.8334 C.3     
  15 C15           -3.7219    -0.7213     0.0332 C.ar    
  16 C16           -4.5709    -0.6159     1.1375 C.ar    
  17 C17           -5.7818    -1.2815     1.1401 C.ar    
  18 C18           -6.1536    -2.0559     0.0425 C.ar    
  19 C19           -5.3096    -2.1608    -1.0545 C.ar    
  20 C20           -4.1029    -1.4948    -1.0657 C.ar    
  21 O21           -7.3444    -2.7097     0.0464 O.3     
  22 C22           -7.6625    -3.4854    -1.1108 C.3     
  23 C23           -9.0316    -4.1425    -0.9238 C.3     
  24 O24          -10.0398    -3.1320    -0.8573 O.3     
  25 C25          -11.3632    -3.6419    -0.6825 C.3     
  26 O26          -11.4958    -4.1821     0.6338 O.3     
  27 C27          -12.7805    -4.7452     0.9068 C.3     
  28 C28          -13.8502    -3.6572     0.7808 C.3     
  29 C29          -13.7873    -3.0506    -0.6243 C.3     
  30 C30          -12.3759    -2.5096    -0.8723 C.3     
  31 O31           -6.6105    -1.1813     2.2137 O.3     
  32 C32           -6.1654    -0.3712     3.3035 C.3     
  33 H33           -3.2950     1.9683     0.0441 H       
  34 H34           -1.1611     3.1122     0.0358 H       
  35 H35            1.1242     3.0258     0.5214 H       
  36 H36            2.0168     1.4859     0.5046 H       
  37 H37            1.8057     1.3905    -1.9642 H       
  38 H38            0.9132     2.9304    -1.9474 H       
  39 H39            3.7444     2.5579    -0.8731 H       
  40 H40            2.7508     3.8111    -3.4729 H       
  41 H41            4.4359     3.8085    -2.8995 H       
  42 H42            3.6415     2.2762    -3.3345 H       
  43 H43            2.0518     5.0399    -1.4129 H       
  44 H44            2.4444     4.3805     0.1931 H       
  45 H45            3.7369     5.0373    -0.8395 H       
  46 H46           -4.2814    -0.0158     1.9874 H       
  47 H47           -5.6010    -2.7621    -1.9030 H       
  48 H48           -3.4482    -1.5778    -1.9206 H       
  49 H49           -7.6870    -2.8376    -1.9870 H       
  50 H50           -6.9053    -4.2569    -1.2504 H       
  51 H51           -9.2351    -4.8039    -1.7659 H       
  52 H52           -9.0343    -4.7199     0.0007 H       
  53 H53          -11.5510    -4.4248    -1.4173 H       
  54 H54          -12.9871    -5.5424     0.1928 H       
  55 H55          -12.7921    -5.1510     1.9184 H       
  56 H56          -14.8352    -4.0940     0.9453 H       
  57 H57          -13.6674    -2.8791     1.5220 H       
  58 H58          -14.0189    -3.8176    -1.3633 H       
  59 H59          -14.5086    -2.2371    -0.7029 H       
  60 H60          -12.1633    -1.7084    -0.1645 H       
  61 H61          -12.3065    -2.1257    -1.8901 H       
  62 H62           -5.2283    -0.7691     3.6930 H       
  63 H63           -6.0102     0.6505     2.9570 H       
  64 H64           -6.9181    -0.3771     4.0918 H       
@<TRIPOS>BOND
   1    1    2 am
   2    1   10 1
   3    1    6 1
   4    2    3 1
   5    2    7 2
   6    3    4 2
   7    3    8 1
   8    4    5 1
   9    4   15 1
  10    5    6 2
  11    5   33 1
  12    6   34 1
  13    8    9 3
  14   10   11 1
  15   10   35 1
  16   10   36 1
  17   11   12 1
  18   11   37 1
  19   11   38 1
  20   12   13 1
  21   12   14 1
  22   12   39 1
  23   13   40 1
  24   13   41 1
  25   13   42 1
  26   14   43 1
  27   14   44 1
  28   14   45 1
  29   15   16 ar
  30   15   20 ar
  31   16   17 ar
  32   16   46 1
  33   17   18 ar
  34   17   31 1
  35   18   19 ar
  36   18   21 1
  37   19   20 ar
  38   19   47 1
  39   20   48 1
  40   21   22 1
  41   22   23 1
  42   22   49 1
  43   22   50 1
  44   23   24 1
  45   23   51 1
  46   23   52 1
  47   24   25 1
  48   25   26 1
  49   25   30 1
  50   25   53 1
  51   26   27 1
  52   27   28 1
  53   27   54 1
  54   27   55 1
  55   28   29 1
  56   28   56 1
  57   28   57 1
  58   29   30 1
  59   29   58 1
  60   29   59 1
  61   30   60 1
  62   30   61 1
  63   31   32 1
  64   32   62 1
  65   32   63 1
  66   32   64 1

#	End of record

