#	Name: ASD01840022
#	Creating user name:	WinNT
#	Creation time:	15. 06. 2019 19:37

#	Modifying user name:	WinNT
#	Modification time:	15. 06. 2019 19:37

#	Program:	/corina/corina34_cracker 3.40 0067  02.08.2006

@<TRIPOS>MOLECULE
ASD01840022
  47   50    0    0    0
SMALL
NO_CHARGES


@<TRIPOS>ATOM
   1 C1            -0.2974     1.0693    -0.0330 C.ar    
   2 N2             0.0731     0.4406    -1.1383 N.ar    
   3 C3             1.1931    -0.2583    -1.1853 C.ar    
   4 N4             1.9927    -0.3678    -0.1500 N.ar    
   5 C5             1.7039     0.2319     1.0121 C.ar    
   6 C6             0.5310     0.9841     1.1158 C.ar    
   7 S7             2.5644     0.2664     2.5442 S.3     
   8 C8             1.3413     1.2815     3.2849 C.2     
   9 C9             0.3716     1.5630     2.4364 C.2     
  10 C10           -0.8108     2.4195     2.8100 C.3     
  11 C11            1.3916     1.7698     4.7097 C.3     
  12 N12           -1.4702     1.8020    -0.0007 N.3     
  13 C13           -3.8665     3.0155    -1.0609 C.3     
  14 C14           -2.6308     3.8435    -0.6976 C.3     
  15 C15           -1.3773     2.9825    -0.8691 C.3     
  16 C16           -2.6226     0.9666    -0.3618 C.3     
  17 C17           -3.9133     1.7674    -0.1751 C.3     
  18 O18           -5.0441     3.7965    -0.8483 O.3     
  19 C19           -6.1463     3.4596    -1.5687 C.ar    
  20 N20           -8.3650     3.9137    -2.2008 N.ar    
  21 C21           -7.2933     4.2368    -1.5042 C.ar    
  22 C22           -6.1382     2.3335    -2.3857 C.ar    
  23 C23           -7.2855     2.0306    -3.1007 C.ar    
  24 C24           -8.3921     2.8505    -2.9801 C.ar    
  25 C25           -9.6444     2.5277    -3.7539 C.3     
  26 H26            1.4596    -0.7563    -2.1058 H       
  27 H27           -1.6345     1.7818     3.1309 H       
  28 H28           -0.5317     3.0893     3.6234 H       
  29 H29           -1.1213     3.0070     1.9459 H       
  30 H30            2.2951     1.3949     5.1905 H       
  31 H31            1.4000     2.8597     4.7202 H       
  32 H32            0.5162     1.4080     5.2489 H       
  33 H33           -3.8102     2.7172    -2.1078 H       
  34 H34           -2.5686     4.7116    -1.3539 H       
  35 H35           -2.7061     4.1743     0.3382 H       
  36 H36           -0.4968     3.5647    -0.5975 H       
  37 H37           -1.2952     2.6634    -1.9082 H       
  38 H38           -2.5347     0.6570    -1.4032 H       
  39 H39           -2.6466     0.0846     0.2783 H       
  40 H40           -4.0088     2.0656     0.8690 H       
  41 H41           -4.7674     1.1522    -0.4581 H       
  42 H42           -7.3089     5.1156    -0.8765 H       
  43 H43           -5.2589     1.7109    -2.4610 H       
  44 H44           -7.3150     1.1643    -3.7451 H       
  45 H45           -9.6067     3.0176    -4.7269 H       
  46 H46           -9.7177     1.4491    -3.8928 H       
  47 H47          -10.5144     2.8829    -3.2017 H       
@<TRIPOS>BOND
   1    1    2 ar
   2    1    6 ar
   3    1   12 1
   4    2    3 ar
   5    3    4 ar
   6    3   26 1
   7    4    5 ar
   8    5    7 1
   9    5    6 ar
  10    6    9 1
  11    7    8 1
  12    8    9 2
  13    8   11 1
  14    9   10 1
  15   10   27 1
  16   10   28 1
  17   10   29 1
  18   11   30 1
  19   11   31 1
  20   11   32 1
  21   12   16 1
  22   12   15 1
  23   13   14 1
  24   13   17 1
  25   13   18 1
  26   13   33 1
  27   14   15 1
  28   14   34 1
  29   14   35 1
  30   15   36 1
  31   15   37 1
  32   16   17 1
  33   16   38 1
  34   16   39 1
  35   17   40 1
  36   17   41 1
  37   18   19 1
  38   19   22 ar
  39   19   21 ar
  40   20   21 ar
  41   20   24 ar
  42   21   42 1
  43   22   23 ar
  44   22   43 1
  45   23   24 ar
  46   23   44 1
  47   24   25 1
  48   25   45 1
  49   25   46 1
  50   25   47 1

#	End of record

