#	Name: ASD01920007
#	Creating user name:	WinNT
#	Creation time:	15. 06. 2019 20:11

#	Modifying user name:	WinNT
#	Modification time:	15. 06. 2019 20:11

#	Program:	/corina/corina34_cracker 3.40 0067  02.08.2006

@<TRIPOS>MOLECULE
ASD01920007
  41   44    0    0    0
SMALL
NO_CHARGES


@<TRIPOS>ATOM
   1 N1            -0.0174     1.3622     0.1049 N.am    
   2 C2             0.0021    -0.0039    -0.0001 C.2     
   3 C3            -1.1514    -0.7273    -0.0885 C.2     
   4 C4            -2.3853    -0.0659    -0.0716 C.2     
   5 C5            -2.3958     1.3364     0.0369 C.2     
   6 C6            -1.1845     2.0415     0.1306 C.2     
   7 O7            -3.6722    -0.4336    -0.1361 O.3     
   8 N8            -4.4366     0.5027    -0.0847 N.2     
   9 C9            -3.8262     1.6595     0.0221 C.2     
  10 C10           -4.4481     3.0024     0.1089 C.ar    
  11 O11           -1.1864     3.2569     0.2254 O.2     
  12 C12            1.2468     2.0967     0.1967 C.3     
  13 C13            1.3007    -0.7089    -0.0186 C.ar    
  14 C14            1.5183    -1.7999     0.8250 C.ar    
  15 C15            2.7327    -2.4539     0.8023 C.ar    
  16 C16            3.7339    -2.0308    -0.0539 C.ar    
  17 C17            3.5251    -0.9500    -0.8922 C.ar    
  18 C18            2.3134    -0.2906    -0.8838 C.ar    
  19 C19           -5.6185     3.2773    -0.5974 C.ar    
  20 C20           -6.1947     4.5270    -0.5142 C.ar    
  21 C21           -5.6104     5.5117     0.2717 C.ar    
  22 C22           -4.4445     5.2411     0.9759 C.ar    
  23 C23           -3.8669     3.9915     0.9017 C.ar    
  24 O24           -6.1802     6.7421     0.3513 O.3     
  25 C25           -5.5266     7.7074     1.1777 C.3     
  26 H26           -1.1128    -1.8035    -0.1713 H       
  27 H27            1.6348     2.2789    -0.8055 H       
  28 H28            1.0781     3.0489     0.6997 H       
  29 H29            1.9682     1.5088     0.7643 H       
  30 H30            0.7377    -2.1309     1.4940 H       
  31 H31            2.9025    -3.2977     1.4546 H       
  32 H32            4.6829    -2.5463    -0.0676 H       
  33 H33            4.3109    -0.6247    -1.5578 H       
  34 H34            2.1516     0.5526    -1.5389 H       
  35 H35           -6.0730     2.5122    -1.2092 H       
  36 H36           -7.1012     4.7405    -1.0610 H       
  37 H37           -3.9922     6.0090     1.5859 H       
  38 H38           -2.9604     3.7815     1.4499 H       
  39 H39           -5.4825     7.3383     2.2023 H       
  40 H40           -4.5151     7.8765     0.8085 H       
  41 H41           -6.0838     8.6440     1.1526 H       
@<TRIPOS>BOND
   1    1    2 1
   2    1   12 1
   3    1    6 am
   4    2    3 2
   5    2   13 1
   6    3    4 1
   7    3   26 1
   8    4    5 2
   9    4    7 1
  10    5    6 1
  11    5    9 1
  12    6   11 2
  13    7    8 1
  14    8    9 2
  15    9   10 1
  16   10   19 ar
  17   10   23 ar
  18   12   27 1
  19   12   28 1
  20   12   29 1
  21   13   14 ar
  22   13   18 ar
  23   14   15 ar
  24   14   30 1
  25   15   16 ar
  26   15   31 1
  27   16   17 ar
  28   16   32 1
  29   17   18 ar
  30   17   33 1
  31   18   34 1
  32   19   20 ar
  33   19   35 1
  34   20   21 ar
  35   20   36 1
  36   21   22 ar
  37   21   24 1
  38   22   23 ar
  39   22   37 1
  40   23   38 1
  41   24   25 1
  42   25   39 1
  43   25   40 1
  44   25   41 1

#	End of record

