#	Name: ASD01020006
#	Creating user name:	WinNT
#	Creation time:	15. 06. 2019 18:56

#	Modifying user name:	WinNT
#	Modification time:	15. 06. 2019 18:56

#	Program:	/corina/corina34_cracker 3.40 0067  02.08.2006

@<TRIPOS>MOLECULE
ASD01020006
  32   31    0    0    0
SMALL
NO_CHARGES


@<TRIPOS>ATOM
   1 N1            -0.0178     1.4648     0.0101 N.3     
   2 C2             0.0021    -0.0041     0.0020 C.3     
   3 C3            -1.4074    -0.5262     0.1106 C.2     
   4 C4             0.6299    -0.4984    -1.3027 C.3     
   5 C5             0.8260    -0.5095     1.1880 C.3     
   6 O6            -2.3114     0.1316     0.8535 O.3     
   7 O7            -1.7238    -1.5369    -0.4710 O.2     
   8 C8             2.0609     0.0316    -1.4130 C.3     
   9 C9             2.6888    -0.4627    -2.7177 C.3     
  10 C10            4.1198     0.0673    -2.8280 C.3     
  11 C11            4.7476    -0.4270    -4.1327 C.3     
  12 C12            6.1571     0.0951    -4.2414 C.2     
  13 C13            7.1519    -0.7377    -4.4226 C.2     
  14 H14            0.9191     1.8392     0.0032 H       
  15 H15           -0.5563     1.8234    -0.7642 H       
  16 H16            0.6447    -1.5883    -1.3087 H       
  17 H17            0.0430    -0.1384    -2.1477 H       
  18 H18            0.3787    -0.1573     2.1176 H       
  19 H19            0.8408    -1.5994     1.1820 H       
  20 H20            1.8454    -0.1318     1.1095 H       
  21 H21           -3.2026    -0.2417     0.8929 H       
  22 H22            2.0461     1.1215    -1.4070 H       
  23 H23            2.6479    -0.3284    -0.5681 H       
  24 H24            2.7036    -1.5526    -2.7237 H       
  25 H25            2.1018    -0.1027    -3.5627 H       
  26 H26            4.1050     1.1572    -2.8220 H       
  27 H27            4.7067    -0.2927    -1.9831 H       
  28 H28            4.7624    -1.5169    -4.1387 H       
  29 H29            4.1607    -0.0670    -4.9777 H       
  30 H30            6.3471     1.1558    -4.1698 H       
  31 H31            6.9620    -1.7985    -4.4941 H       
  32 H32            8.1621    -0.3636    -4.5004 H       
@<TRIPOS>BOND
   1    1    2 1
   2    1   14 1
   3    1   15 1
   4    2    3 1
   5    2    4 1
   6    2    5 1
   7    3    6 1
   8    3    7 2
   9    4    8 1
  10    4   16 1
  11    4   17 1
  12    5   18 1
  13    5   19 1
  14    5   20 1
  15    6   21 1
  16    8    9 1
  17    8   22 1
  18    8   23 1
  19    9   10 1
  20    9   24 1
  21    9   25 1
  22   10   11 1
  23   10   26 1
  24   10   27 1
  25   11   12 1
  26   11   28 1
  27   11   29 1
  28   12   13 2
  29   12   30 1
  30   13   31 1
  31   13   32 1

#	End of record

