#	Name: ASD01890458
#	Creating user name:	WinNT
#	Creation time:	15. 06. 2019 19:51

#	Modifying user name:	WinNT
#	Modification time:	15. 06. 2019 19:51

#	Program:	/corina/corina34_cracker 3.40 0067  02.08.2006

@<TRIPOS>MOLECULE
ASD01890458
  38   40    0    0    0
SMALL
NO_CHARGES


@<TRIPOS>ATOM
   1 C1            -0.0177     1.4577     0.0101 C.2     
   2 C2             0.0021    -0.0041     0.0020 C.2     
   3 C3             1.1812    -0.6636    -0.0128 C.2     
   4 O4             1.0283     2.0808     0.0034 O.2     
   5 C5             1.2011    -2.1340    -0.0209 C.ar    
   6 C6             2.4204    -2.8205    -0.0362 C.ar    
   7 C7             2.4312    -4.1986    -0.0432 C.ar    
   8 C8             1.2387    -4.9043    -0.0351 C.ar    
   9 C9             0.0275    -4.2313    -0.0200 C.ar    
  10 C10            0.0010    -2.8535    -0.0074 C.ar    
  11 Cl11           1.2622    -6.6401    -0.0447 Cl      
  12 C12           -3.7273     3.5327     0.0380 C.ar    
  13 C13           -2.5288     4.2473     0.0367 C.ar    
  14 C14           -1.3270     3.5765     0.0278 C.ar    
  15 C15           -1.3074     2.1791     0.0201 C.ar    
  16 C16           -2.5084     1.4645     0.0214 C.ar    
  17 C17           -3.7090     2.1375     0.0303 C.ar    
  18 C18           -5.0211     4.2565     0.0533 C.ar    
  19 C19           -6.2205     3.5457     0.0546 C.ar    
  20 C20           -7.4218     4.2248     0.0689 C.ar    
  21 C21           -7.4374     5.6080     0.0813 C.ar    
  22 C22           -6.2504     6.3186     0.0800 C.ar    
  23 C23           -5.0431     5.6503     0.0721 C.ar    
  24 H24           -0.9258    -0.5567     0.0079 H       
  25 H25            2.1090    -0.1109    -0.0187 H       
  26 H26            3.3506    -2.2718    -0.0429 H       
  27 H27            3.3714    -4.7299    -0.0554 H       
  28 H28           -0.8980    -4.7880    -0.0137 H       
  29 H29           -0.9437    -2.3303     0.0089 H       
  30 H30           -2.5442     5.3272     0.0427 H       
  31 H31           -0.3995     4.1298     0.0260 H       
  32 H32           -2.4945     0.3846     0.0151 H       
  33 H33           -4.6372     1.5855     0.0317 H       
  34 H34           -6.2095     2.4658     0.0442 H       
  35 H35           -8.3515     3.6753     0.0699 H       
  36 H36           -8.3799     6.1352     0.0917 H       
  37 H37           -6.2687     7.3984     0.0897 H       
  38 H38           -4.1170     6.2060     0.0760 H       
@<TRIPOS>BOND
   1    1    2 1
   2    1    4 2
   3    1   15 1
   4    2    3 2
   5    2   24 1
   6    3    5 1
   7    3   25 1
   8    5    6 ar
   9    5   10 ar
  10    6    7 ar
  11    6   26 1
  12    7    8 ar
  13    7   27 1
  14    8    9 ar
  15    8   11 1
  16    9   10 ar
  17    9   28 1
  18   10   29 1
  19   12   13 ar
  20   12   17 ar
  21   12   18 1
  22   13   14 ar
  23   13   30 1
  24   14   15 ar
  25   14   31 1
  26   15   16 ar
  27   16   17 ar
  28   16   32 1
  29   17   33 1
  30   18   19 ar
  31   18   23 ar
  32   19   20 ar
  33   19   34 1
  34   20   21 ar
  35   20   35 1
  36   21   22 ar
  37   21   36 1
  38   22   23 ar
  39   22   37 1
  40   23   38 1

#	End of record

