#	Name: ASD03240898
#	Creating user name:	WinNT
#	Creation time:	15. 06. 2019 20:35

#	Modifying user name:	WinNT
#	Modification time:	15. 06. 2019 20:35

#	Program:	/corina/corina34_cracker 3.40 0067  02.08.2006

@<TRIPOS>MOLECULE
ASD03240898
  75   81    0    0    0
SMALL
NO_CHARGES


@<TRIPOS>ATOM
   1 N1             0.1455     1.8854     0.0348 N.3     
   2 C2            -0.0711     0.4379     0.1543 C.3     
   3 C3             0.6008    -0.0761     1.4296 C.3     
   4 C4             2.0996     0.2315     1.3706 C.3     
   5 C5             2.2967     1.7400     1.1974 C.3     
   6 C6             1.5756     2.2014    -0.0712 C.3     
   7 C7             2.7569    -0.2187     2.6498 C.2     
   8 O8             2.0929    -0.7350     3.5237 O.2     
   9 N9             4.0825    -0.0476     2.8228 N.am    
  10 C10            4.6765    -0.3753     4.0469 C.ar    
  11 C11            4.2156    -1.4633     4.7717 C.ar    
  12 C12            4.8111    -1.7858     5.9914 C.ar    
  13 C13            5.8677    -1.0099     6.4738 C.ar    
  14 C14            6.3187     0.0709     5.7444 C.ar    
  15 C15            5.7320     0.3867     4.5330 C.ar    
  16 C16            4.3405    -2.9079     6.7464 C.1     
  17 N17            3.9672    -3.7981     7.3453 N.1     
  18 C18           -0.6013     2.4372    -1.1036 C.3     
  19 C19           -0.5564     3.9426    -1.0516 C.ar    
  20 C20            0.4657     4.6237    -1.6883 C.ar    
  21 C21            0.5121     6.0020    -1.6447 C.ar    
  22 C22           -0.4744     6.7087    -0.9568 C.ar    
  23 C23           -1.5024     6.0162    -0.3168 C.ar    
  24 C24           -1.5407     4.6381    -0.3721 C.ar    
  25 N25            2.0581    10.7551    -0.7455 N.pl3   
  26 C26            2.1210    12.1215    -0.6969 C.2     
  27 N27            1.0151    12.8866    -0.7032 N.2     
  28 C28           -0.1855    12.3701    -0.7560 C.2     
  29 C29           -0.3317    10.9170    -0.8100 C.ar    
  30 C30           -1.5888    10.3058    -0.8669 C.ar    
  31 C31           -1.6359     8.9165    -0.9160 C.ar    
  32 C32           -0.4303     8.1880    -0.9057 C.ar    
  33 N33            0.7420     8.8020    -0.8507 N.ar    
  34 C34            0.8326    10.1198    -0.8036 C.ar    
  35 C35            3.4669    12.4582    -0.6455 C.2     
  36 C36            4.1991    11.2778    -0.6641 C.2     
  37 N37            3.3689    10.2640    -0.7178 N.2     
  38 C38           -2.9386     8.2113    -0.9769 C.ar    
  39 C39           -3.9487     8.5279    -0.0699 C.ar    
  40 C40           -5.1594     7.8685    -0.1317 C.ar    
  41 C41           -5.3716     6.8950    -1.0913 C.ar    
  42 C42           -4.3728     6.5763    -1.9936 C.ar    
  43 C43           -3.1601     7.2331    -1.9451 C.ar    
  44 C44            5.7023    11.1783    -0.6234 C.3     
  45 H45           -1.1407     0.2332     0.1995 H       
  46 H46            0.3588    -0.0663    -0.7112 H       
  47 H47            0.1619     0.4176     2.2966 H       
  48 H48            0.4532    -1.1531     1.5100 H       
  49 H49            2.5463    -0.2935     0.5262 H       
  50 H50            1.8844     2.2623     2.0607 H       
  51 H51            3.3607     1.9606     1.1119 H       
  52 H52            1.9977     1.6889    -0.9356 H       
  53 H53            1.7020     3.2775    -0.1897 H       
  54 H54            4.6249     0.3026     2.0989 H       
  55 H55            3.3980    -2.0592     4.3936 H       
  56 H56            6.3313    -1.2558     7.4177 H       
  57 H57            7.1355     0.6699     6.1191 H       
  58 H58            6.0926     1.2311     3.9644 H       
  59 H59           -0.1516     2.0922    -2.0346 H       
  60 H60           -1.6376     2.1027    -1.0548 H       
  61 H61            1.2291     4.0754    -2.2203 H       
  62 H62            1.3106     6.5326    -2.1418 H       
  63 H63           -2.2688     6.5578     0.2177 H       
  64 H64           -2.3383     4.1009     0.1195 H       
  65 H65           -1.0566    13.0085    -0.7593 H       
  66 H66           -2.4944    10.8942    -0.8729 H       
  67 H67            3.8719    13.4584    -0.5995 H       
  68 H68           -3.7840     9.2876     0.6799 H       
  69 H69           -5.9426     8.1128     0.5707 H       
  70 H70           -6.3207     6.3816    -1.1359 H       
  71 H71           -4.5438     5.8149    -2.7402 H       
  72 H72           -2.3825     6.9866    -2.6529 H       
  73 H73            6.0346    11.1194     0.4130 H       
  74 H74            6.0219    10.2843    -1.1588 H       
  75 H75            6.1376    12.0594    -1.0950 H       
@<TRIPOS>BOND
   1    1    2 1
   2    1    6 1
   3    1   18 1
   4    2    3 1
   5    2   45 1
   6    2   46 1
   7    3    4 1
   8    3   47 1
   9    3   48 1
  10    4    5 1
  11    4    7 1
  12    4   49 1
  13    5    6 1
  14    5   50 1
  15    5   51 1
  16    6   52 1
  17    6   53 1
  18    7    8 2
  19    7    9 am
  20    9   10 1
  21    9   54 1
  22   10   11 ar
  23   10   15 ar
  24   11   12 ar
  25   11   55 1
  26   12   13 ar
  27   12   16 1
  28   13   14 ar
  29   13   56 1
  30   14   15 ar
  31   14   57 1
  32   15   58 1
  33   16   17 3
  34   18   19 1
  35   18   59 1
  36   18   60 1
  37   19   20 ar
  38   19   24 ar
  39   20   21 ar
  40   20   61 1
  41   21   22 ar
  42   21   62 1
  43   22   23 ar
  44   22   32 1
  45   23   24 ar
  46   23   63 1
  47   24   64 1
  48   25   26 1
  49   25   34 1
  50   25   37 1
  51   26   27 1
  52   26   35 2
  53   27   28 2
  54   28   29 1
  55   28   65 1
  56   29   30 ar
  57   29   34 ar
  58   30   31 ar
  59   30   66 1
  60   31   32 ar
  61   31   38 1
  62   32   33 ar
  63   33   34 ar
  64   35   36 1
  65   35   67 1
  66   36   37 2
  67   36   44 1
  68   38   39 ar
  69   38   43 ar
  70   39   40 ar
  71   39   68 1
  72   40   41 ar
  73   40   69 1
  74   41   42 ar
  75   41   70 1
  76   42   43 ar
  77   42   71 1
  78   43   72 1
  79   44   73 1
  80   44   74 1
  81   44   75 1

#	End of record

