#	Name: ASD01885661
#	Creating user name:	WinNT
#	Creation time:	15. 06. 2019 19:49

#	Modifying user name:	WinNT
#	Modification time:	15. 06. 2019 19:49

#	Program:	/corina/corina34_cracker 3.40 0067  02.08.2006

@<TRIPOS>MOLECULE
ASD01885661
  48   51    0    0    0
SMALL
NO_CHARGES


@<TRIPOS>ATOM
   1 C1            -0.0170     1.4041     0.0098 C.ar    
   2 C2             1.2135     2.1081     0.0018 C.ar    
   3 C3             1.1955     3.5274     0.0097 C.ar    
   4 C4            -0.0418     4.1615     0.0249 C.ar    
   5 C5            -1.2099     3.3917     0.0319 C.ar    
   6 N6            -1.1705     2.0726     0.0299 N.ar    
   7 C7             0.0021    -0.0041     0.0020 C.ar    
   8 C8             1.1923    -0.6627    -0.0129 C.ar    
   9 C9             2.3992     0.0339    -0.0203 C.ar    
  10 C10            2.4196     1.3965    -0.0132 C.ar    
  11 C11            2.4488     4.3043     0.0024 C.2     
  12 C12            2.8572     4.9749    -1.2767 C.3     
  13 C13            3.9088     6.0502    -0.9953 C.3     
  14 C14            3.1401     4.3736     1.1174 C.2     
  15 C15           -2.5256     4.0753     0.0553 C.2     
  16 N16           -3.6615     3.3501     0.0741 N.am    
  17 O17           -2.5796     5.2891     0.0575 O.2     
  18 C18            1.2058    -2.1697    -0.0211 C.3     
  19 N19            1.1969    -2.6506    -1.4049 N.am    
  20 C20            2.3183    -2.8782    -2.1000 C.2     
  21 C21            1.9547    -3.3643    -3.4861 C.3     
  22 C22            0.4126    -3.3782    -3.4714 C.3     
  23 C23            0.0669    -2.9039    -2.0766 C.2     
  24 O24            3.4461    -2.7196    -1.6848 O.2     
  25 O25           -1.0555    -2.7681    -1.6392 O.2     
  26 C26            5.0126     5.4357    -0.1258 C.3     
  27 C27            4.4261     5.1349     1.2569 C.3     
  28 H28           -0.1006     5.2399     0.0317 H       
  29 H29           -0.9245    -0.5588     0.0083 H       
  30 H30            3.3303    -0.5131    -0.0315 H       
  31 H31            3.3614     1.9251    -0.0193 H       
  32 H32            3.2732     4.2321    -1.9573 H       
  33 H33            1.9837     5.4357    -1.7380 H       
  34 H34            4.3353     6.4002    -1.9353 H       
  35 H35            3.4474     6.8840    -0.4662 H       
  36 H36            2.7609     3.8526     1.9841 H       
  37 H37           -3.6183     2.3811     0.0723 H       
  38 H38           -4.5221     3.7973     0.0893 H       
  39 H39            2.1039    -2.5277     0.4822 H       
  40 H40            0.3241    -2.5438     0.4992 H       
  41 H41            2.3249    -2.6739    -4.2440 H       
  42 H42            2.3458    -4.3674    -3.6556 H       
  43 H43            0.0156    -2.6948    -4.2220 H       
  44 H44            0.0365    -4.3883    -3.6336 H       
  45 H45            5.3697     4.5137    -0.5847 H       
  46 H46            5.8368     6.1420    -0.0270 H       
  47 H47            4.2393     6.0718     1.7817 H       
  48 H48            5.1367     4.5382     1.8288 H       
@<TRIPOS>BOND
   1    1    7 ar
   2    1    2 ar
   3    1    6 ar
   4    2    3 ar
   5    2   10 ar
   6    3   11 1
   7    3    4 ar
   8    4    5 ar
   9    4   28 1
  10    5   15 1
  11    5    6 ar
  12    7    8 ar
  13    7   29 1
  14    8    9 ar
  15    8   18 1
  16    9   10 ar
  17    9   30 1
  18   10   31 1
  19   11   12 1
  20   11   14 2
  21   12   13 1
  22   12   32 1
  23   12   33 1
  24   13   26 1
  25   13   34 1
  26   13   35 1
  27   14   27 1
  28   14   36 1
  29   15   16 am
  30   15   17 2
  31   16   37 1
  32   16   38 1
  33   18   19 1
  34   18   39 1
  35   18   40 1
  36   19   20 am
  37   19   23 am
  38   20   21 1
  39   20   24 2
  40   21   22 1
  41   21   41 1
  42   21   42 1
  43   22   23 1
  44   22   43 1
  45   22   44 1
  46   23   25 2
  47   26   27 1
  48   26   45 1
  49   26   46 1
  50   27   47 1
  51   27   48 1

#	End of record

