#	Name: ASD01940159
#	Creating user name:	WinNT
#	Creation time:	15. 06. 2019 20:11

#	Modifying user name:	WinNT
#	Modification time:	15. 06. 2019 20:11

#	Program:	/corina/corina34_cracker 3.40 0067  02.08.2006

@<TRIPOS>MOLECULE
ASD01940159
  40   42    0    0    0
SMALL
NO_CHARGES


@<TRIPOS>ATOM
   1 Br1            2.7856    -4.3923    -1.5850 Br      
   2 F2             1.9036     1.5944     2.2849 F       
   3 C3             1.0648     2.1485     1.3823 C.ar    
   4 C4             1.3888     2.1337     0.0321 C.ar    
   5 C5             0.5199     2.7062    -0.8955 C.ar    
   6 C6            -0.6636     3.2877    -0.4660 C.ar    
   7 C7            -0.9808     3.2999     0.8798 C.ar    
   8 C8            -0.1222     2.7269     1.8025 C.ar    
   9 N9             2.5864     1.5451    -0.3969 N.pl3   
  10 N10            0.8419     2.6945    -2.2592 N.am    
  11 C11            2.6329     0.1745    -0.6713 C.ar    
  12 C12            1.4779    -0.5911    -0.5887 C.ar    
  13 C13            1.5267    -1.9451    -0.8603 C.ar    
  14 C14            2.7246    -2.5389    -1.2144 C.ar    
  15 C15            3.8790    -1.7798    -1.2976 C.ar    
  16 C16            3.8360    -0.4237    -1.0332 C.ar    
  17 F17            4.9625     0.3176    -1.1147 F       
  18 F18           -0.4399     2.7363     3.1156 F       
  19 S19            0.4252     3.9778    -3.2194 S.o2    
  20 O20            0.9897     3.6659    -4.4856 O.2     
  21 O21           -0.9810     4.0974    -3.0536 O.2     
  22 C22           -0.3273     7.0928    -3.0150 C.3     
  23 C23           -0.5229     8.6036    -3.1569 C.3     
  24 C24           -1.0694     7.6575    -4.2280 C.3     
  25 C25            1.2769     5.3957    -2.4746 C.3     
  26 O26            0.9874     6.5748    -3.2282 O.3     
  27 H27           -1.3380     3.7317    -1.1833 H       
  28 H28           -1.9027     3.7540     1.2117 H       
  29 H29            3.3829     2.0884    -0.5034 H       
  30 H30            1.3089     1.9348    -2.6408 H       
  31 H31            0.5419    -0.1288    -0.3121 H       
  32 H32            0.6281    -2.5406    -0.7957 H       
  33 H33            4.8130    -2.2463    -1.5739 H       
  34 H34           -0.9184     6.5776    -2.2579 H       
  35 H35           -1.2432     9.0823    -2.4934 H       
  36 H36            0.3511     9.2024    -3.4129 H       
  37 H37           -0.5548     7.6339    -5.1886 H       
  38 H38           -2.1491     7.5138    -4.2691 H       
  39 H39            0.9342     5.5273    -1.4483 H       
  40 H40            2.3521     5.2168    -2.4785 H       
@<TRIPOS>BOND
   1    1   14 1
   2    2    3 1
   3    3    4 ar
   4    3    8 ar
   5    4    5 ar
   6    4    9 1
   7    5    6 ar
   8    5   10 1
   9    6    7 ar
  10    6   27 1
  11    7    8 ar
  12    7   28 1
  13    8   18 1
  14    9   11 1
  15    9   29 1
  16   10   19 am
  17   10   30 1
  18   11   12 ar
  19   11   16 ar
  20   12   13 ar
  21   12   31 1
  22   13   14 ar
  23   13   32 1
  24   14   15 ar
  25   15   16 ar
  26   15   33 1
  27   16   17 1
  28   19   20 2
  29   19   21 2
  30   19   25 1
  31   22   23 1
  32   22   26 1
  33   22   24 1
  34   22   34 1
  35   23   24 1
  36   23   35 1
  37   23   36 1
  38   24   37 1
  39   24   38 1
  40   25   26 1
  41   25   39 1
  42   25   40 1

#	End of record

