#	Name: ASD08151018
#	Creating user name:	WinNT
#	Creation time:	15. 06. 2019 21:16

#	Modifying user name:	WinNT
#	Modification time:	15. 06. 2019 21:16

#	Program:	/corina/corina34_cracker 3.40 0067  02.08.2006

@<TRIPOS>MOLECULE
ASD08151018
  35   37    0    0    0
SMALL
NO_CHARGES


@<TRIPOS>ATOM
   1 C1            -0.0187     1.5258     0.0104 C.3     
   2 C2             0.0021    -0.0041     0.0020 C.3     
   3 N3             4.1768     2.6226     2.2788 N.ar    
   4 C4             5.4071     3.0771     2.2710 C.ar    
   5 C5             6.0126     3.5304     1.1014 C.ar    
   6 C6             5.3215     3.5075    -0.0765 C.ar    
   7 C7             4.0012     3.0183    -0.0629 C.ar    
   8 C8             3.2312     2.9659    -1.2360 C.ar    
   9 C9             1.9556     2.4884    -1.1934 C.ar    
  10 C10            1.3951     2.0474    -0.0003 C.ar    
  11 C11            2.1200     2.0822     1.1777 C.ar    
  12 C12            3.4477     2.5736     1.1622 C.ar    
  13 C13            1.5125     1.6100     2.4434 C.ar    
  14 C14            0.8150     2.5015     3.2621 C.ar    
  15 C15            0.2509     2.0536     4.4416 C.ar    
  16 C16            0.3768     0.7266     4.8109 C.ar    
  17 C17            1.0670    -0.1599     4.0038 C.ar    
  18 C18            1.6294     0.2728     2.8201 C.ar    
  19 F19            0.6926     3.7979     2.9021 F       
  20 N20           -0.7292     2.0124    -1.1797 N.3     
  21 H21           -0.5289     1.8773     0.9072 H       
  22 H22            0.5123    -0.3556    -0.8948 H       
  23 H23            0.5293    -0.3651     0.8851 H       
  24 H24           -1.0205    -0.3814     0.0098 H       
  25 H25            5.9649     3.1008     3.1955 H       
  26 H26            7.0272     3.8998     1.1260 H       
  27 H27            5.7751     3.8554    -0.9929 H       
  28 H28            3.6498     3.3049    -2.1720 H       
  29 H29            1.3710     2.4524    -2.1008 H       
  30 H30           -0.2888     2.7409     5.0762 H       
  31 H31           -0.0653     0.3811     5.7337 H       
  32 H32            1.1618    -1.1946     4.2984 H       
  33 H33            2.1633    -0.4222     2.1890 H       
  34 H34           -0.2400     1.7542    -2.0236 H       
  35 H35           -1.6803     1.6760    -1.1957 H       
@<TRIPOS>BOND
   1    1    2 1
   2    1   10 1
   3    1   20 1
   4    1   21 1
   5    2   22 1
   6    2   23 1
   7    2   24 1
   8    3    4 ar
   9    3   12 ar
  10    4    5 ar
  11    4   25 1
  12    5    6 ar
  13    5   26 1
  14    6    7 ar
  15    6   27 1
  16    7    8 ar
  17    7   12 ar
  18    8    9 ar
  19    8   28 1
  20    9   10 ar
  21    9   29 1
  22   10   11 ar
  23   11   12 ar
  24   11   13 1
  25   13   14 ar
  26   13   18 ar
  27   14   15 ar
  28   14   19 1
  29   15   16 ar
  30   15   30 1
  31   16   17 ar
  32   16   31 1
  33   17   18 ar
  34   17   32 1
  35   18   33 1
  36   20   34 1
  37   20   35 1

#	End of record

