#	Name: ASD01580009
#	Creating user name:	WinNT
#	Creation time:	15. 06. 2019 19:22

#	Modifying user name:	WinNT
#	Modification time:	15. 06. 2019 19:22

#	Program:	/corina/corina34_cracker 3.40 0067  02.08.2006

@<TRIPOS>MOLECULE
ASD01580009
  21   21    0    0    0
SMALL
NO_CHARGES


@<TRIPOS>ATOM
   1 C1            -0.0184     1.5028     0.0103 C.2     
   2 N2            -1.2880    -0.5139     0.4853 N.3     
   3 C3             0.0021    -0.0041     0.0020 C.3     
   4 C4             0.2459    -0.5030    -1.4237 C.3     
   5 C5             0.3887    -2.0032    -1.4133 C.2     
   6 C6            -0.3319    -2.8718    -2.1481 C.2     
   7 N7             0.1194    -4.1254    -1.8345 N.pl3   
   8 C8             1.1007    -3.9792    -0.9184 C.2     
   9 N9             1.2597    -2.7069    -0.6751 N.2     
  10 N10            1.1395     2.1925     0.0030 N.am    
  11 O11           -1.0768     2.0948     0.0185 O.2     
  12 H12           -1.4430    -0.2519     1.4473 H       
  13 H13           -2.0449    -0.1974    -0.1021 H       
  14 H14            0.8004    -0.3602     0.6531 H       
  15 H15           -0.5966    -0.2225    -2.0558 H       
  16 H16            1.1588    -0.0538    -1.8147 H       
  17 H17           -1.1155    -2.6264    -2.8496 H       
  18 H18           -0.2051    -4.9625    -2.2017 H       
  19 H19            1.6636    -4.7818    -0.4653 H       
  20 H20            1.9860     1.7190    -0.0077 H       
  21 H21            1.1264     3.1624     0.0083 H       
@<TRIPOS>BOND
   1    1    3 1
   2    1   10 am
   3    1   11 2
   4    2    3 1
   5    2   12 1
   6    2   13 1
   7    3    4 1
   8    3   14 1
   9    4    5 1
  10    4   15 1
  11    4   16 1
  12    5    6 2
  13    5    9 1
  14    6    7 1
  15    6   17 1
  16    7    8 1
  17    7   18 1
  18    8    9 2
  19    8   19 1
  20   10   20 1
  21   10   21 1

#	End of record

