#	Name: ASD01720008
#	Creating user name:	WinNT
#	Creation time:	15. 06. 2019 19:23

#	Modifying user name:	WinNT
#	Modification time:	15. 06. 2019 19:23

#	Program:	/corina/corina34_cracker 3.40 0067  02.08.2006

@<TRIPOS>MOLECULE
ASD01720008
  12   11    0    0    0
SMALL
NO_CHARGES


@<TRIPOS>ATOM
   1 C1            -0.0184     1.5028     0.0103 C.3     
   2 C2             0.0021    -0.0041     0.0020 C.2     
   3 C3             1.2993    -0.7297    -0.0143 C.2     
   4 C4             1.3197    -2.2365    -0.0226 C.3     
   5 O5            -1.0356    -0.6222     0.0086 O.2     
   6 O6             2.3370    -0.1116    -0.0209 O.2     
   7 H7             1.0042     1.8801     0.0026 H       
   8 H8            -0.5455     1.8639    -0.8728 H       
   9 H9            -0.5286     1.8543     0.9071 H       
  10 H10            0.2971    -2.6138    -0.0148 H       
  11 H11            1.8299    -2.5880    -0.9193 H       
  12 H12            1.8469    -2.5976     0.8605 H       
@<TRIPOS>BOND
   1    1    2 1
   2    1    7 1
   3    1    8 1
   4    1    9 1
   5    2    3 1
   6    2    5 2
   7    3    4 1
   8    3    6 2
   9    4   10 1
  10    4   11 1
  11    4   12 1

#	End of record

