#	Name: ASD02500970
#	Creating user name:	WinNT
#	Creation time:	15. 06. 2019 20:23

#	Modifying user name:	WinNT
#	Modification time:	15. 06. 2019 20:23

#	Program:	/corina/corina34_cracker 3.40 0067  02.08.2006

@<TRIPOS>MOLECULE
ASD02500970
  37   40    0    0    0
SMALL
NO_CHARGES


@<TRIPOS>ATOM
   1 C1            -0.0169     1.3939     0.0097 C.2     
   2 C2             0.0021    -0.0041     0.0020 C.2     
   3 C3            -1.2259    -0.6920     0.0100 C.2     
   4 N4            -2.3863    -0.0127     0.0243 N.am    
   5 C5            -2.4330     1.3513     0.0321 C.2     
   6 C6            -1.3023     2.0849     0.0310 C.2     
   7 C7             1.3768     1.8339    -0.0012 C.2     
   8 C8             2.1619     0.7023    -0.0148 C.2     
   9 N9             1.3186    -0.4101    -0.0127 N.pl3   
  10 S10            2.3994     3.2661    -0.0033 S.3     
  11 C11            3.8508     2.2781    -0.0225 C.2     
  12 C12            3.5324     0.9898    -0.0259 C.2     
  13 C13            1.7676    -1.8045    -0.0240 C.3     
  14 C14           -3.6446    -0.7630     0.0313 C.3     
  15 C15           -4.0633    -1.0284     1.4545 C.ar    
  16 C16           -5.0991    -0.3062     2.0165 C.ar    
  17 C17           -3.4143    -1.9996     2.1976 C.ar    
  18 C18           -3.8004    -2.2427     3.5050 C.ar    
  19 C19           -4.8328    -1.5158     4.0664 C.ar    
  20 C20           -5.4834    -0.5494     3.3218 C.ar    
  21 F21           -2.4053    -2.7099     1.6475 F       
  22 O22           -1.2375    -1.9126     0.0036 O.2     
  23 N23            5.2335     2.8071    -0.0328 N.pl3   
  24 O24            6.1791     2.0396    -0.0464 O.2     
  25 O25            5.4254     4.0099    -0.0277 O.2     
  26 H26           -3.3906     1.8505     0.0435 H       
  27 H27           -1.3467     3.1640     0.0372 H       
  28 H28            4.2823     0.2127    -0.0368 H       
  29 H29            1.8889    -2.1555     1.0007 H       
  30 H30            1.0269    -2.4206    -0.5338 H       
  31 H31            2.7211    -1.8750    -0.5475 H       
  32 H32           -4.4170    -0.1818    -0.4723 H       
  33 H33           -3.5054    -1.7105    -0.4892 H       
  34 H34           -5.6083     0.4486     1.4356 H       
  35 H35           -3.2951    -3.0003     4.0856 H       
  36 H36           -5.1341    -1.7053     5.0861 H       
  37 H37           -6.2900     0.0184     3.7615 H       
@<TRIPOS>BOND
   1    1    2 2
   2    1    7 1
   3    1    6 1
   4    2    3 1
   5    2    9 1
   6    3    4 am
   7    3   22 2
   8    4    5 1
   9    4   14 1
  10    5    6 2
  11    5   26 1
  12    6   27 1
  13    7    8 2
  14    7   10 1
  15    8    9 1
  16    8   12 1
  17    9   13 1
  18   10   11 1
  19   11   12 2
  20   11   23 1
  21   12   28 1
  22   13   29 1
  23   13   30 1
  24   13   31 1
  25   14   15 1
  26   14   32 1
  27   14   33 1
  28   15   16 ar
  29   15   17 ar
  30   16   20 ar
  31   16   34 1
  32   17   18 ar
  33   17   21 1
  34   18   19 ar
  35   18   35 1
  36   19   20 ar
  37   19   36 1
  38   20   37 1
  39   23   24 2
  40   23   25 2

#	End of record

