#	Name: ASD06660214
#	Creating user name:	WinNT
#	Creation time:	15. 06. 2019 21:08

#	Modifying user name:	WinNT
#	Modification time:	15. 06. 2019 21:08

#	Program:	/corina/corina34_cracker 3.40 0067  02.08.2006

@<TRIPOS>MOLECULE
ASD06660214
  74   78    0    0    0
SMALL
NO_CHARGES


@<TRIPOS>ATOM
   1 C1            -0.0184     1.5028     0.0103 C.2     
   2 C2             0.0021    -0.0041     0.0020 C.3     
   3 C3            -0.7241    -0.5171    -1.2431 C.3     
   4 O4             1.0197     2.1211     0.0037 O.2     
   5 O5            -1.1898     2.1580     0.0194 O.3     
   6 C6             2.2790    -0.1851    -0.9833 C.2     
   7 N7             1.3897    -0.4735    -0.0138 N.am    
   8 C8             1.9908    -1.3190     1.0258 C.3     
   9 C9             3.5196    -1.1956     0.8267 C.3     
  10 C10            3.6068    -0.8138    -0.6605 C.3     
  11 C11            3.8586    -2.0567    -1.5243 C.3     
  12 C12            4.7856    -1.5442    -2.6570 C.3     
  13 C13            5.6999    -0.5313    -1.9225 C.3     
  14 C14            4.7625     0.1589    -0.9068 C.3     
  15 O15            2.0432     0.4779    -1.9711 O.2     
  16 C16           -0.8113    -2.0207    -1.1900 C.ar    
  17 C17           -1.8983    -2.6278    -0.5884 C.ar    
  18 C18           -1.9814    -4.0054    -0.5380 C.ar    
  19 C19           -0.9713    -4.7813    -1.0925 C.ar    
  20 C20            0.1192    -4.1682    -1.6960 C.ar    
  21 C21            0.1932    -2.7901    -1.7480 C.ar    
  22 N22           -1.0519    -6.1748    -1.0428 N.3     
  23 C23            0.1154    -6.7927    -1.6847 C.3     
  24 C24           -0.0755    -8.3100    -1.7414 C.3     
  25 C25           -0.2456    -8.8516    -0.3193 C.3     
  26 C26           -1.4383    -8.1570     0.3437 C.3     
  27 C27           -1.2079    -6.6440     0.3399 C.3     
  28 C28           -0.4975   -10.3598    -0.3732 C.3     
  29 N29           -0.5413   -10.8966     0.9892 N.pl3   
  30 C30           -0.7596   -12.2539     1.1947 C.ar    
  31 C31           -0.9358   -13.0971     0.1020 C.ar    
  32 C32           -1.1521   -14.4454     0.3210 C.ar    
  33 C33           -1.1853   -14.9073     1.6304 C.ar    
  34 C34           -1.0027   -14.0145     2.6670 C.ar    
  35 N35           -0.7927   -12.7337     2.4282 N.ar    
  36 C36           -1.3481   -15.3920    -0.8351 C.3     
  37 H37           -0.4983    -0.3791     0.8948 H       
  38 H38           -1.7288    -0.0959    -1.2772 H       
  39 H39           -0.1736    -0.2164    -2.1345 H       
  40 H40           -1.1523     3.1243     0.0245 H       
  41 H41            1.7090    -0.9580     2.0150 H       
  42 H42            1.6763    -2.3548     0.8980 H       
  43 H43            3.9335    -0.4086     1.4571 H       
  44 H44            4.0163    -2.1472     1.0156 H       
  45 H45            4.3582    -2.8315    -0.9428 H       
  46 H46            2.9220    -2.4314    -1.9371 H       
  47 H47            5.3730    -2.3619    -3.0747 H       
  48 H48            4.2060    -1.0473    -3.4350 H       
  49 H49            6.5064    -1.0509    -1.4051 H       
  50 H50            6.1036     0.1975    -2.6253 H       
  51 H51            4.3838     1.0931    -1.3214 H       
  52 H52            5.2955     0.3507     0.0245 H       
  53 H53           -2.6831    -2.0240    -0.1572 H       
  54 H54           -2.8305    -4.4790    -0.0677 H       
  55 H55            0.9062    -4.7685    -2.1281 H       
  56 H56            1.0385    -2.3127    -2.2213 H       
  57 H57            0.2226    -6.4021    -2.6967 H       
  58 H58            1.0115    -6.5606    -1.1092 H       
  59 H59           -0.9638    -8.5434    -2.3284 H       
  60 H60            0.7981    -8.7697    -2.2037 H       
  61 H61            0.6581    -8.6527     0.2568 H       
  62 H62           -2.3480    -8.3879    -0.2105 H       
  63 H63           -1.5385    -8.5072     1.3710 H       
  64 H64           -0.3056    -6.4127     0.9059 H       
  65 H65           -2.0619    -6.1455     0.7984 H       
  66 H66           -1.4485   -10.5517    -0.8701 H       
  67 H67            0.3065   -10.8428    -0.9284 H       
  68 H68           -0.4180   -10.3049     1.7478 H       
  69 H69           -0.9043   -12.7040    -0.9034 H       
  70 H70           -1.3525   -15.9544     1.8353 H       
  71 H71           -1.0277   -14.3695     3.6867 H       
  72 H72           -0.3820   -15.7884    -1.1479 H       
  73 H73           -1.9951   -16.2132    -0.5267 H       
  74 H74           -1.8087   -14.8592    -1.6669 H       
@<TRIPOS>BOND
   1    1    2 1
   2    1    4 2
   3    1    5 1
   4    2    3 1
   5    2    7 1
   6    2   37 1
   7    3   16 1
   8    3   38 1
   9    3   39 1
  10    5   40 1
  11    6    7 am
  12    6   10 1
  13    6   15 2
  14    7    8 1
  15    8    9 1
  16    8   41 1
  17    8   42 1
  18    9   10 1
  19    9   43 1
  20    9   44 1
  21   10   11 1
  22   10   14 1
  23   11   12 1
  24   11   45 1
  25   11   46 1
  26   12   13 1
  27   12   47 1
  28   12   48 1
  29   13   14 1
  30   13   49 1
  31   13   50 1
  32   14   51 1
  33   14   52 1
  34   16   17 ar
  35   16   21 ar
  36   17   18 ar
  37   17   53 1
  38   18   19 ar
  39   18   54 1
  40   19   20 ar
  41   19   22 1
  42   20   21 ar
  43   20   55 1
  44   21   56 1
  45   22   23 1
  46   22   27 1
  47   23   24 1
  48   23   57 1
  49   23   58 1
  50   24   25 1
  51   24   59 1
  52   24   60 1
  53   25   26 1
  54   25   28 1
  55   25   61 1
  56   26   27 1
  57   26   62 1
  58   26   63 1
  59   27   64 1
  60   27   65 1
  61   28   29 1
  62   28   66 1
  63   28   67 1
  64   29   30 1
  65   29   68 1
  66   30   31 ar
  67   30   35 ar
  68   31   32 ar
  69   31   69 1
  70   32   33 ar
  71   32   36 1
  72   33   34 ar
  73   33   70 1
  74   34   35 ar
  75   34   71 1
  76   36   72 1
  77   36   73 1
  78   36   74 1

#	End of record

