#	Name: ASD03240568
#	Creating user name:	WinNT
#	Creation time:	15. 06. 2019 20:35

#	Modifying user name:	WinNT
#	Modification time:	15. 06. 2019 20:35

#	Program:	/corina/corina34_cracker 3.40 0067  02.08.2006

@<TRIPOS>MOLECULE
ASD03240568
  63   70    0    0    0
SMALL
NO_CHARGES


@<TRIPOS>ATOM
   1 C1            -0.0166     1.3755     0.0096 C.ar    
   2 C2             0.0021    -0.0041     0.0020 C.ar    
   3 N3             1.1422    -0.6683    -0.0054 N.ar    
   4 C4             2.3145    -0.0481    -0.0053 C.ar    
   5 C5             2.3702     1.3442    -0.0124 C.ar    
   6 C6             1.1860     2.0698     0.0019 C.ar    
   7 N7             3.4819    -0.8059     0.0229 N.pl3   
   8 C8             4.3585    -0.7195     1.1010 C.ar    
   9 C9             4.9949     0.4887     1.4050 C.ar    
  10 C10            4.7644     1.6833     0.5630 C.2     
  11 N11            3.5938     2.0277    -0.0512 N.pl3   
  12 C12            4.6037    -1.8391     1.8848 C.ar    
  13 C13            5.4629    -1.7539     2.9636 C.ar    
  14 C14            6.0838    -0.5559     3.2726 C.ar    
  15 C15            5.8552     0.5649     2.5000 C.ar    
  16 N16            5.6769     2.5926     0.2871 N.2     
  17 C17            5.1478     3.5401    -0.5052 C.2     
  18 C18            3.8215     3.2033    -0.7374 C.2     
  19 C19            2.8493     3.9527    -1.5553 C.ar    
  20 C20            2.7501     5.3411    -1.4314 C.ar    
  21 C21            2.0270     3.2783    -2.4618 C.ar    
  22 C22            1.1206     3.9857    -3.2235 C.ar    
  23 C23            1.0247     5.3600    -3.0920 C.ar    
  24 C24            1.8391     6.0351    -2.1998 C.ar    
  25 C25            5.8497     4.7250    -1.0327 C.2     
  26 C26            0.0321     6.1257    -3.9284 C.3     
  27 N27           -1.0467     5.2775    -4.4524 N.3     
  28 C28           -0.4689     7.4175    -3.2611 C.3     
  29 C29           -0.3813     8.0749    -4.6485 C.3     
  30 C30            0.6856     7.0203    -4.9949 C.3     
  31 O31            5.6366     5.2767    -2.2440 O.3     
  32 C32            6.4338     6.3486    -2.4311 C.ar    
  33 C33            7.2137     6.5048    -1.2711 C.ar    
  34 C34            6.8025     5.4268    -0.3694 C.2     
  35 C35            6.5974     7.2410    -3.4824 C.ar    
  36 C36            7.5168     8.2639    -3.3781 C.ar    
  37 C37            8.2838     8.4132    -2.2317 C.ar    
  38 C38            8.1384     7.5469    -1.1840 C.ar    
  39 H39           -0.9556     1.9091     0.0170 H       
  40 H40           -0.9306    -0.5486     0.0025 H       
  41 H41            1.2002     3.1497     0.0061 H       
  42 H42            3.6865    -1.4002    -0.7158 H       
  43 H43            4.1221    -2.7772     1.6512 H       
  44 H44            5.6510    -2.6276     3.5699 H       
  45 H45            6.7494    -0.4980     4.1211 H       
  46 H46            6.3410     1.4984     2.7430 H       
  47 H47            3.3851     5.8692    -0.7355 H       
  48 H48            2.1013     2.2059    -2.5660 H       
  49 H49            0.4845     3.4659    -3.9246 H       
  50 H50            1.7584     7.1077    -2.1022 H       
  51 H51           -0.6738     4.4551    -4.9026 H       
  52 H52           -1.6967     5.0269    -3.7225 H       
  53 H53           -1.4860     7.3440    -2.8762 H       
  54 H54            0.2302     7.8337    -2.5357 H       
  55 H55           -1.2947     7.9791    -5.2355 H       
  56 H56            0.0030     9.0947    -4.6250 H       
  57 H57            1.7008     7.3275    -4.7437 H       
  58 H58            0.5993     6.6285    -6.0083 H       
  59 H59            7.1850     5.2270     0.6206 H       
  60 H60            6.0063     7.1341    -4.3800 H       
  61 H61            7.6411     8.9559    -4.1979 H       
  62 H62            8.9998     9.2191    -2.1663 H       
  63 H63            8.7376     7.6673    -0.2935 H       
@<TRIPOS>BOND
   1    1    2 ar
   2    1    6 ar
   3    1   39 1
   4    2    3 ar
   5    2   40 1
   6    3    4 ar
   7    4    5 ar
   8    4    7 1
   9    5    6 ar
  10    5   11 1
  11    6   41 1
  12    7    8 1
  13    7   42 1
  14    8    9 ar
  15    8   12 ar
  16    9   10 1
  17    9   15 ar
  18   10   11 1
  19   10   16 2
  20   11   18 1
  21   12   13 ar
  22   12   43 1
  23   13   14 ar
  24   13   44 1
  25   14   15 ar
  26   14   45 1
  27   15   46 1
  28   16   17 1
  29   17   18 2
  30   17   25 1
  31   18   19 1
  32   19   20 ar
  33   19   21 ar
  34   20   24 ar
  35   20   47 1
  36   21   22 ar
  37   21   48 1
  38   22   23 ar
  39   22   49 1
  40   23   24 ar
  41   23   26 1
  42   24   50 1
  43   25   31 1
  44   25   34 2
  45   26   27 1
  46   26   28 1
  47   26   30 1
  48   27   51 1
  49   27   52 1
  50   28   29 1
  51   28   53 1
  52   28   54 1
  53   29   30 1
  54   29   55 1
  55   29   56 1
  56   30   57 1
  57   30   58 1
  58   31   32 1
  59   32   33 ar
  60   32   35 ar
  61   33   34 1
  62   33   38 ar
  63   34   59 1
  64   35   36 ar
  65   35   60 1
  66   36   37 ar
  67   36   61 1
  68   37   38 ar
  69   37   62 1
  70   38   63 1

#	End of record

