#	Name: ASD01140679
#	Creating user name:	WinNT
#	Creation time:	15. 06. 2019 19:01

#	Modifying user name:	WinNT
#	Modification time:	15. 06. 2019 19:01

#	Program:	/corina/corina34_cracker 3.40 0067  02.08.2006

@<TRIPOS>MOLECULE
ASD01140679
  49   53    0    0    0
SMALL
NO_CHARGES


@<TRIPOS>ATOM
   1 C1             0.2127     1.6452    -0.9625 C.2     
   2 N2             0.1350     0.3484    -0.8974 N.2     
   3 C3             1.3716    -0.1737    -0.6868 C.ar    
   4 C4             2.2667     0.9072    -0.6204 C.ar    
   5 N5             1.5036     2.0453    -0.7985 N.pl3   
   6 C6             1.8519    -1.4786    -0.5405 C.ar    
   7 C7             3.1953    -1.6948    -0.3328 C.ar    
   8 C8             4.0821    -0.6193    -0.2669 C.ar    
   9 C9             3.6188     0.6774    -0.4107 C.ar    
  10 N10            5.4459    -0.8525    -0.0543 N.pl3   
  11 C11            6.2537     0.1596     0.4528 C.ar    
  12 C12            7.6301    -0.0342     0.5314 C.ar    
  13 C13            8.4253     0.9758     1.0358 C.ar    
  14 C14            7.8107     2.1626     1.4509 C.ar    
  15 C15            6.4286     2.2829     1.3416 C.ar    
  16 N16            5.7043     1.2973     0.8498 N.ar    
  17 C17           10.3267     4.4277     2.6663 C.2     
  18 N18            9.9608     3.2847     2.1570 N.2     
  19 C19            8.6215     3.2773     2.0004 C.2     
  20 C20            8.1481     4.4740     2.4354 C.2     
  21 N21            9.2315     5.1959     2.8548 N.pl3   
  22 C22            9.2085     6.5527     3.4069 C.3     
  23 C23            0.9009    -2.6456    -0.6094 C.3     
  24 F24            3.6582    -2.9562    -0.1916 F       
  25 C25            1.9928     3.4262    -0.8088 C.3     
  26 C26            2.4861     3.7820    -2.2127 C.3     
  27 C27            2.9303     5.2250    -2.4608 C.3     
  28 C28            3.9719     4.1073    -2.3781 C.3     
  29 H29           -0.6242     2.3077    -1.1274 H       
  30 H30            4.3078     1.5076    -0.3596 H       
  31 H31            5.8276    -1.7201    -0.2608 H       
  32 H32            8.0707    -0.9636     0.2021 H       
  33 H33            9.4958     0.8526     1.1086 H       
  34 H34            5.9447     3.1946     1.6595 H       
  35 H35           11.3410     4.7127     2.9036 H       
  36 H36            7.1165     4.7936     2.4474 H       
  37 H37            9.3109     7.2760     2.5978 H       
  38 H38            8.2639     6.7183     3.9249 H       
  39 H39           10.0338     6.6734     4.1087 H       
  40 H40            0.5243    -2.8669     0.3892 H       
  41 H41            0.0667    -2.3962    -1.2653 H       
  42 H42            1.4237    -3.5176    -1.0021 H       
  43 H43            1.1842     4.1002    -0.5260 H       
  44 H44            2.8140     3.5260    -0.0990 H       
  45 H45            1.9906     3.2602    -3.0314 H       
  46 H46            2.7274     5.6522    -3.4428 H       
  47 H47            2.8711     5.9207    -1.6238 H       
  48 H48            4.5980     4.0678    -1.4868 H       
  49 H49            4.4543     3.7993    -3.3058 H       
@<TRIPOS>BOND
   1    1    2 2
   2    1    5 1
   3    1   29 1
   4    2    3 1
   5    3    4 ar
   6    3    6 ar
   7    4    5 1
   8    4    9 ar
   9    5   25 1
  10    6    7 ar
  11    6   23 1
  12    7    8 ar
  13    7   24 1
  14    8    9 ar
  15    8   10 1
  16    9   30 1
  17   10   11 1
  18   10   31 1
  19   11   12 ar
  20   11   16 ar
  21   12   13 ar
  22   12   32 1
  23   13   14 ar
  24   13   33 1
  25   14   15 ar
  26   14   19 1
  27   15   16 ar
  28   15   34 1
  29   17   18 2
  30   17   21 1
  31   17   35 1
  32   18   19 1
  33   19   20 2
  34   20   21 1
  35   20   36 1
  36   21   22 1
  37   22   37 1
  38   22   38 1
  39   22   39 1
  40   23   40 1
  41   23   41 1
  42   23   42 1
  43   25   26 1
  44   25   43 1
  45   25   44 1
  46   26   27 1
  47   26   28 1
  48   26   45 1
  49   27   28 1
  50   27   46 1
  51   27   47 1
  52   28   48 1
  53   28   49 1

#	End of record

