#	Name: ASD01190183
#	Creating user name:	WinNT
#	Creation time:	15. 06. 2019 19:07

#	Modifying user name:	WinNT
#	Modification time:	15. 06. 2019 19:07

#	Program:	/corina/corina34_cracker 3.40 0067  02.08.2006

@<TRIPOS>MOLECULE
ASD01190183
  56   60    0    0    0
SMALL
NO_CHARGES


@<TRIPOS>ATOM
   1 C1             0.1569     2.0228    -0.7317 C.3     
   2 C2            -1.0314     2.7801    -0.1357 C.3     
   3 C3            -2.1274     2.9233    -1.1936 C.3     
   4 O4            -1.5433     2.0568     0.9855 O.3     
   5 N5             1.2521     1.9894     0.2408 N.pl3   
   6 C6             2.2934     2.8761     0.2826 C.2     
   7 C7             3.1202     2.5635     1.2930 C.2     
   8 C8             2.5628     1.3799     1.9519 C.ar    
   9 C9             2.9568     0.5992     3.0405 C.ar    
  10 C10            2.1969    -0.4718     3.4174 C.ar    
  11 C11            1.0355    -0.7905     2.7267 C.ar    
  12 C12            0.6287    -0.0342     1.6497 C.ar    
  13 C13            1.3838     1.0647     1.2524 C.ar    
  14 C14            4.3824     3.2921     1.6765 C.3     
  15 C15            4.6161     4.4524     0.7070 C.3     
  16 O16            4.2538     3.8005     3.0058 O.3     
  17 N17            8.8084    -0.1750     1.6836 N.pl3   
  18 N18            9.3136     0.1227     2.9535 N.2     
  19 C19            8.5691     1.0221     3.5320 C.2     
  20 C20            7.4891     1.3666     2.6127 C.ar    
  21 C21            6.4049     2.2492     2.6730 C.ar    
  22 C22            5.5501     2.3415     1.6130 C.ar    
  23 C23            5.7460     1.5670     0.4761 C.ar    
  24 C24            6.7969     0.6979     0.3940 C.ar    
  25 C25            7.6857     0.5826     1.4593 C.ar    
  26 C26            9.3625    -1.0939     0.7830 C.ar    
  27 C27           10.7402    -1.2528     0.7111 C.ar    
  28 C28           11.2843    -2.1592    -0.1774 C.ar    
  29 C29           10.4572    -2.9094    -0.9964 C.ar    
  30 C30            9.0830    -2.7524    -0.9264 C.ar    
  31 C31            8.5345    -1.8513    -0.0352 C.ar    
  32 F32           10.9915    -3.7952    -1.8653 F       
  33 F33            3.5321     5.3349     0.7660 F       
  34 F34            5.7879     5.1288     1.0631 F       
  35 F35            4.7421     3.9547    -0.5943 F       
  36 H36           -0.1457     1.0038    -0.9731 H       
  37 H37            0.4913     2.5270    -1.6383 H       
  38 H38           -0.7068     3.7692     0.1875 H       
  39 H39           -2.4520     1.9342    -1.5167 H       
  40 H40           -2.9740     3.4628    -0.7690 H       
  41 H41           -1.7370     3.4750    -2.0488 H       
  42 H42           -1.8513     1.1656     0.7713 H       
  43 H43            2.4301     3.7044    -0.3967 H       
  44 H44            3.8592     0.8410     3.5824 H       
  45 H45            2.5022    -1.0755     4.2592 H       
  46 H46            0.4454    -1.6403     3.0366 H       
  47 H47           -0.2761    -0.2905     1.1186 H       
  48 H48            4.1034     3.1187     3.6748 H       
  49 H49            8.7236     1.4383     4.5165 H       
  50 H50            6.2454     2.8540     3.5534 H       
  51 H51            5.0589     1.6529    -0.3527 H       
  52 H52            6.9377     0.1014    -0.4953 H       
  53 H53           11.3856    -0.6677     1.3495 H       
  54 H54           12.3558    -2.2828    -0.2338 H       
  55 H55            8.4397    -3.3382    -1.5662 H       
  56 H56            7.4626    -1.7327     0.0226 H       
@<TRIPOS>BOND
   1    1    2 1
   2    1    5 1
   3    1   36 1
   4    1   37 1
   5    2    3 1
   6    2    4 1
   7    2   38 1
   8    3   39 1
   9    3   40 1
  10    3   41 1
  11    4   42 1
  12    5    6 1
  13    5   13 1
  14    6    7 2
  15    6   43 1
  16    7    8 1
  17    7   14 1
  18    8    9 ar
  19    8   13 ar
  20    9   10 ar
  21    9   44 1
  22   10   11 ar
  23   10   45 1
  24   11   12 ar
  25   11   46 1
  26   12   13 ar
  27   12   47 1
  28   14   15 1
  29   14   16 1
  30   14   22 1
  31   15   33 1
  32   15   34 1
  33   15   35 1
  34   16   48 1
  35   17   18 1
  36   17   25 1
  37   17   26 1
  38   18   19 2
  39   19   20 1
  40   19   49 1
  41   20   21 ar
  42   20   25 ar
  43   21   22 ar
  44   21   50 1
  45   22   23 ar
  46   23   24 ar
  47   23   51 1
  48   24   25 ar
  49   24   52 1
  50   26   27 ar
  51   26   31 ar
  52   27   28 ar
  53   27   53 1
  54   28   29 ar
  55   28   54 1
  56   29   30 ar
  57   29   32 1
  58   30   31 ar
  59   30   55 1
  60   31   56 1

#	End of record

