#	Name: ASD00310285
#	Creating user name:	WinNT
#	Creation time:	15. 06. 2019 18:34

#	Modifying user name:	WinNT
#	Modification time:	15. 06. 2019 18:34

#	Program:	/corina/corina34_cracker 3.40 0067  02.08.2006

@<TRIPOS>MOLECULE
ASD00310285
  39   39    0    0    0
SMALL
NO_CHARGES


@<TRIPOS>ATOM
   1 N1             0.0753     1.3845     0.2221 N.am    
   2 C2             0.0326    -0.0753     0.0207 C.3     
   3 C3             1.4500    -0.5699     0.4027 C.3     
   4 C4             2.3379     0.5828    -0.1361 C.3     
   5 C5             1.4712     1.8342     0.1177 C.3     
   6 C6            -0.9896     2.1765     0.4573 C.2     
   7 O7            -2.1123     1.7139     0.4130 O.2     
   8 O8            -0.8093     3.4802     0.7411 O.3     
   9 C9            -1.0170    -0.7086     0.9362 C.3     
  10 O10           -2.3235    -0.3444     0.4862 O.3     
  11 S11           -3.4518    -0.9225     1.3285 S.o2    
  12 O12           -4.6243    -0.6640     0.5684 O.2     
  13 O13           -3.0365    -2.2530     1.6050 O.2     
  14 C14           -3.4426     0.0752     2.8435 C.3     
  15 C15           -2.0014     4.2730     0.9833 C.3     
  16 C16           -2.7652     3.6944     2.1760 C.3     
  17 C17           -1.5999     5.7178     1.2871 C.3     
  18 C18           -2.8951     4.2424    -0.2582 C.3     
  19 H19           -0.1823    -0.3082    -1.0222 H       
  20 H20            1.5513    -0.6687     1.4834 H       
  21 H21            1.6839    -1.5097    -0.0976 H       
  22 H22            3.2730     0.6420     0.4209 H       
  23 H23            2.5298     0.4562    -1.2015 H       
  24 H24            1.5747     2.5316    -0.7136 H       
  25 H25            1.7765     2.3144     1.0474 H       
  26 H26           -0.9135    -1.7934     0.9115 H       
  27 H27           -0.8717    -0.3528     1.9562 H       
  28 H28           -3.6179     1.1209     2.5909 H       
  29 H29           -4.2288    -0.2736     3.5130 H       
  30 H30           -2.4755    -0.0223     3.3368 H       
  31 H31           -2.1285     3.7162     3.0604 H       
  32 H32           -3.6601     4.2896     2.3577 H       
  33 H33           -3.0512     2.6651     1.9595 H       
  34 H34           -1.0558     6.1301     0.4374 H       
  35 H35           -2.4948     6.3130     1.4689 H       
  36 H36           -0.9632     5.7397     2.1715 H       
  37 H37           -3.1812     3.2131    -0.4746 H       
  38 H38           -3.7900     4.8376    -0.0764 H       
  39 H39           -2.3510     4.6546    -1.1079 H       
@<TRIPOS>BOND
   1    1    2 1
   2    1    5 1
   3    1    6 am
   4    2    3 1
   5    2    9 1
   6    2   19 1
   7    3    4 1
   8    3   20 1
   9    3   21 1
  10    4    5 1
  11    4   22 1
  12    4   23 1
  13    5   24 1
  14    5   25 1
  15    6    7 2
  16    6    8 1
  17    8   15 1
  18    9   10 1
  19    9   26 1
  20    9   27 1
  21   10   11 1
  22   11   12 2
  23   11   13 2
  24   11   14 1
  25   14   28 1
  26   14   29 1
  27   14   30 1
  28   15   16 1
  29   15   18 1
  30   15   17 1
  31   16   31 1
  32   16   32 1
  33   16   33 1
  34   17   34 1
  35   17   35 1
  36   17   36 1
  37   18   37 1
  38   18   38 1
  39   18   39 1

#	End of record

