#	Name: ASD02398030
#	Creating user name:	WinNT
#	Creation time:	15. 06. 2019 20:20

#	Modifying user name:	WinNT
#	Modification time:	15. 06. 2019 20:20

#	Program:	/corina/corina34_cracker 3.40 0067  02.08.2006

@<TRIPOS>MOLECULE
ASD02398030
  67   71    0    0    0
SMALL
NO_CHARGES


@<TRIPOS>ATOM
   1 C1            -0.8263     1.0074     0.3561 C.ar    
   2 C2            -0.4006    -0.3241     0.3194 C.ar    
   3 C3            -1.3108    -1.3467     0.5745 C.ar    
   4 C4            -2.6262    -1.0423     0.8619 C.ar    
   5 C5            -3.0445     0.2760     0.8975 C.ar    
   6 C6            -2.1482     1.2990     0.6510 C.ar    
   7 C7            -3.6103    -2.1499     1.1373 C.3     
   8 C8            -3.5401    -2.5338     2.5929 C.2     
   9 O9            -2.7071    -2.0325     3.3104 O.2     
  10 O10           -4.4030    -3.4325     3.0923 O.3     
  11 C11            1.0139    -0.6457     0.0096 C.ar    
  12 C12            2.0233    -0.2943     0.9042 C.ar    
  13 C13            1.3379    -1.3054    -1.1743 C.ar    
  14 C14            2.6558    -1.6027    -1.4572 C.ar    
  15 C15            3.6538    -1.2469    -0.5682 C.ar    
  16 C16            3.3374    -0.5965     0.6111 C.ar    
  17 C17            1.6802     0.4147     2.1890 C.3     
  18 N18            2.8826     0.5333     3.0174 N.am    
  19 C19            3.8028     1.5028     2.9212 C.2     
  20 O20            4.8077     1.3837     3.7961 O.3     
  21 C21            4.5977     0.1998     4.6190 C.3     
  22 C22            3.2736    -0.3887     4.0948 C.3     
  23 O23            3.7310     2.4071     2.1128 O.2     
  24 C24            3.4949    -1.7953     3.5350 C.3     
  25 C25            5.7271    -0.7803     4.4325 C.ar    
  26 C26            6.1422    -1.5662     5.4912 C.ar    
  27 C27            6.3443    -0.8975     3.2011 C.ar    
  28 C28            7.3803    -1.7966     3.0300 C.ar    
  29 C29            7.7994    -2.5781     4.0904 C.ar    
  30 C30            7.1782    -2.4652     5.3202 C.ar    
  31 O31            0.0545     2.0117     0.1090 O.3     
  32 C32           -0.4519     3.3469     0.1641 C.3     
  33 C33            0.6775     4.3335    -0.1391 C.3     
  34 C34            0.3116     5.8154    -0.2443 C.3     
  35 C35            1.0857     5.3031     0.9719 C.3     
  36 C36            5.0908    -1.5746    -0.8825 C.3     
  37 F37            5.1603    -2.2321    -2.1155 F       
  38 F38            5.8365    -0.3924    -0.9417 F       
  39 F39            5.6096    -2.4036     0.1179 F       
  40 H40           -0.9879    -2.3770     0.5472 H       
  41 H41           -4.0751     0.5070     1.1231 H       
  42 H42           -2.4805     2.3261     0.6803 H       
  43 H43           -4.6178    -1.8082     0.8998 H       
  44 H44           -3.3654    -3.0150     0.5212 H       
  45 H45           -4.3191    -3.6468     4.0316 H       
  46 H46            0.5593    -1.5840    -1.8690 H       
  47 H47            2.9081    -2.1143    -2.3742 H       
  48 H48            4.1207    -0.3210     1.3016 H       
  49 H49            1.2948     1.4090     1.9635 H       
  50 H50            0.9228    -0.1551     2.7274 H       
  51 H51            4.5000     0.4766     5.6687 H       
  52 H52            2.5221    -0.4036     4.8842 H       
  53 H53            3.9103    -2.4350     4.3136 H       
  54 H54            2.5435    -2.2056     3.1968 H       
  55 H55            4.1888    -1.7473     2.6957 H       
  56 H56            5.6573    -1.4775     6.4522 H       
  57 H57            6.0169    -0.2869     2.3727 H       
  58 H58            7.8621    -1.8886     2.0678 H       
  59 H59            8.6086    -3.2808     3.9567 H       
  60 H60            7.5056    -3.0758     6.1487 H       
  61 H61           -1.2455     3.4652    -0.5737 H       
  62 H62           -0.8491     3.5441     1.1598 H       
  63 H63            1.4632     3.9612    -0.7964 H       
  64 H64            0.8570     6.4181    -0.9706 H       
  65 H65           -0.7336     6.0874    -0.0976 H       
  66 H66            0.5497     5.2380     1.9188 H       
  67 H67            2.1403     5.5687     1.0458 H       
@<TRIPOS>BOND
   1    1    2 ar
   2    1   31 1
   3    1    6 ar
   4    2    3 ar
   5    2   11 1
   6    3    4 ar
   7    3   40 1
   8    4    5 ar
   9    4    7 1
  10    5    6 ar
  11    5   41 1
  12    6   42 1
  13    7    8 1
  14    7   43 1
  15    7   44 1
  16    8    9 2
  17    8   10 1
  18   10   45 1
  19   11   12 ar
  20   11   13 ar
  21   12   17 1
  22   12   16 ar
  23   13   14 ar
  24   13   46 1
  25   14   15 ar
  26   14   47 1
  27   15   16 ar
  28   15   36 1
  29   16   48 1
  30   17   18 1
  31   17   49 1
  32   17   50 1
  33   18   19 am
  34   18   22 1
  35   19   20 1
  36   19   23 2
  37   20   21 1
  38   21   22 1
  39   21   25 1
  40   21   51 1
  41   22   24 1
  42   22   52 1
  43   24   53 1
  44   24   54 1
  45   24   55 1
  46   25   26 ar
  47   25   27 ar
  48   26   30 ar
  49   26   56 1
  50   27   28 ar
  51   27   57 1
  52   28   29 ar
  53   28   58 1
  54   29   30 ar
  55   29   59 1
  56   30   60 1
  57   31   32 1
  58   32   33 1
  59   32   61 1
  60   32   62 1
  61   33   34 1
  62   33   35 1
  63   33   63 1
  64   34   35 1
  65   34   64 1
  66   34   65 1
  67   35   66 1
  68   35   67 1
  69   36   37 1
  70   36   38 1
  71   36   39 1

#	End of record

