#	Name: ASD03092220
#	Creating user name:	WinNT
#	Creation time:	15. 06. 2019 20:32

#	Modifying user name:	WinNT
#	Modification time:	15. 06. 2019 20:32

#	Program:	/corina/corina34_cracker 3.40 0067  02.08.2006

@<TRIPOS>MOLECULE
ASD03092220
  40   41    0    0    0
SMALL
NO_CHARGES


@<TRIPOS>ATOM
   1 C1            -0.9443     1.2769    -0.0767 C.3     
   2 O2            -0.4787    -0.0738    -0.0458 O.3     
   3 C3             0.1720    -0.4919    -1.2474 C.3     
   4 C4             0.6263    -1.9456    -1.1021 C.3     
   5 C5             1.3125    -2.3865    -2.3692 C.2     
   6 N6             0.6741    -2.9306    -3.3726 N.2     
   7 C7             1.3782    -3.2703    -4.4149 C.2     
   8 N8             0.8646    -3.8524    -5.5542 N.pl3   
   9 C9             1.7276    -4.2985    -6.5623 C.ar    
  10 C10            2.9456    -4.8764    -6.2288 C.ar    
  11 C11            3.7960    -5.3166    -7.2237 C.ar    
  12 C12            3.4342    -5.1811    -8.5560 C.ar    
  13 O13            4.2723    -5.6148    -9.5352 O.3     
  14 C14            3.8361    -5.4439   -10.8852 C.3     
  15 C15            2.2179    -4.6039    -8.8901 C.ar    
  16 C16            1.3637    -4.1684    -7.8962 C.ar    
  17 S17            3.0273    -2.8923    -4.1727 S.3     
  18 C18            2.6584    -2.2480    -2.5748 C.2     
  19 C19            3.5895    -1.6887    -1.6641 C.2     
  20 O20            3.2113    -1.2773    -0.5832 O.2     
  21 O21            4.8954    -1.6125    -1.9958 O.3     
  22 C22            5.7775    -1.0372    -1.0300 C.3     
  23 H23           -0.1006     1.9485    -0.2359 H       
  24 H24           -1.6615     1.3955    -0.8888 H       
  25 H25           -1.4258     1.5170     0.8713 H       
  26 H26           -0.5220    -0.4099    -2.0838 H       
  27 H27            1.0388     0.1430    -1.4309 H       
  28 H28            1.3203    -2.0276    -0.2656 H       
  29 H29           -0.2405    -2.5805    -0.9185 H       
  30 H30           -0.0946    -3.9529    -5.6574 H       
  31 H31            3.2277    -4.9813    -5.1916 H       
  32 H32            4.7432    -5.7660    -6.9645 H       
  33 H33            2.9029    -5.9863   -11.0369 H       
  34 H34            3.6768    -4.3841   -11.0842 H       
  35 H35            4.5958    -5.8309   -11.5643 H       
  36 H36            1.9371    -4.4985    -9.9276 H       
  37 H37            0.4150    -3.7228    -8.1563 H       
  38 H38            5.7424    -1.6230    -0.1114 H       
  39 H39            6.7947    -1.0366    -1.4218 H       
  40 H40            5.4685    -0.0132    -0.8200 H       
@<TRIPOS>BOND
   1    1    2 1
   2    1   23 1
   3    1   24 1
   4    1   25 1
   5    2    3 1
   6    3    4 1
   7    3   26 1
   8    3   27 1
   9    4    5 1
  10    4   28 1
  11    4   29 1
  12    5   18 2
  13    5    6 1
  14    6    7 2
  15    7    8 1
  16    7   17 1
  17    8    9 1
  18    8   30 1
  19    9   16 ar
  20    9   10 ar
  21   10   11 ar
  22   10   31 1
  23   11   12 ar
  24   11   32 1
  25   12   13 1
  26   12   15 ar
  27   13   14 1
  28   14   33 1
  29   14   34 1
  30   14   35 1
  31   15   16 ar
  32   15   36 1
  33   16   37 1
  34   17   18 1
  35   18   19 1
  36   19   20 2
  37   19   21 1
  38   21   22 1
  39   22   38 1
  40   22   39 1
  41   22   40 1

#	End of record

