#	Name: ASD02198803
#	Creating user name:	WinNT
#	Creation time:	15. 06. 2019 20:20

#	Modifying user name:	WinNT
#	Modification time:	15. 06. 2019 20:20

#	Program:	/corina/corina34_cracker 3.40 0067  02.08.2006

@<TRIPOS>MOLECULE
ASD02198803
  48   52    0    0    0
SMALL
NO_CHARGES


@<TRIPOS>ATOM
   1 F1             2.2521    -1.7111     2.4719 F       
   2 C2            -0.0435     1.5030    -0.1145 C.2     
   3 C3            -0.0736     0.1633     0.0981 C.2     
   4 N4             1.0706    -0.5386     0.2604 N.pl3   
   5 N5             2.2353    -0.0042     0.2262 N.2     
   6 C6             2.4071     1.2852     0.0279 C.2     
   7 C7             1.2215     2.1366    -0.1602 C.2     
   8 C8             0.9788    -1.9176     0.4771 C.ar    
   9 C9             1.5795    -2.4883     1.5952 C.ar    
  10 C10            1.4879    -3.8508     1.8077 C.ar    
  11 C11            0.7967    -4.6488     0.9057 C.ar    
  12 C12            0.1977    -4.0785    -0.2104 C.ar    
  13 C13            0.2829    -2.7175    -0.4209 C.ar    
  14 C14            3.7642     1.8671    -0.0050 C.2     
  15 N15            4.3062     2.6070    -1.0182 N.pl3   
  16 N16            5.6081     2.9586    -0.6404 N.2     
  17 C17            5.8519     2.4592     0.5450 C.2     
  18 C18            4.7200     1.7713     0.9826 C.2     
  19 C19            3.6733     2.9512    -2.2193 C.ar    
  20 C20            2.9113     2.0101    -2.8988 C.ar    
  21 C21            2.2884     2.3527    -4.0831 C.ar    
  22 C22            2.4232     3.6311    -4.5922 C.ar    
  23 C23            3.1819     4.5706    -3.9180 C.ar    
  24 C24            3.8020     4.2362    -2.7304 C.ar    
  25 O25            1.3247     3.3397    -0.3481 O.2     
  26 N26            0.7038    -6.0307     1.1213 N.pl3   
  27 N27            1.2562    -6.7361     2.1981 N.2     
  28 C28            0.9588    -8.0025     2.0535 C.2     
  29 C29            0.2081    -8.1450     0.8813 C.2     
  30 C30            0.0601    -6.9181     0.3297 C.2     
  31 C31            3.3269     5.9626    -4.4770 C.3     
  32 F32            2.6097     6.0615    -5.6741 F       
  33 F33            2.8269     6.8894    -3.5559 F       
  34 F34            4.6786     6.2292    -4.7198 F       
  35 H35           -0.9548     2.0668    -0.2490 H       
  36 H36           -1.0235    -0.3490     0.1385 H       
  37 H37            1.9540    -4.2949     2.6748 H       
  38 H38           -0.3390    -4.7003    -0.9117 H       
  39 H39           -0.1834    -2.2752    -1.2888 H       
  40 H40            6.7754     2.5653     1.0947 H       
  41 H41            4.6143     1.2517     1.9234 H       
  42 H42            2.8059     1.0112    -2.5018 H       
  43 H43            1.6959     1.6210    -4.6123 H       
  44 H44            1.9352     3.8965    -5.5184 H       
  45 H45            4.3940     4.9704    -2.2042 H       
  46 H46            1.2439    -8.8002     2.7234 H       
  47 H47           -0.1868    -9.0701     0.4883 H       
  48 H48           -0.4709    -6.6898    -0.5826 H       
@<TRIPOS>BOND
   1    1    9 1
   2    2    3 2
   3    2    7 1
   4    2   35 1
   5    3    4 1
   6    3   36 1
   7    4    5 1
   8    4    8 1
   9    5    6 2
  10    6    7 1
  11    6   14 1
  12    7   25 2
  13    8    9 ar
  14    8   13 ar
  15    9   10 ar
  16   10   11 ar
  17   10   37 1
  18   11   12 ar
  19   11   26 1
  20   12   13 ar
  21   12   38 1
  22   13   39 1
  23   14   15 1
  24   14   18 2
  25   15   16 1
  26   15   19 1
  27   16   17 2
  28   17   18 1
  29   17   40 1
  30   18   41 1
  31   19   20 ar
  32   19   24 ar
  33   20   21 ar
  34   20   42 1
  35   21   22 ar
  36   21   43 1
  37   22   23 ar
  38   22   44 1
  39   23   24 ar
  40   23   31 1
  41   24   45 1
  42   26   27 1
  43   26   30 1
  44   27   28 2
  45   28   29 1
  46   28   46 1
  47   29   30 2
  48   29   47 1
  49   30   48 1
  50   31   32 1
  51   31   33 1
  52   31   34 1

#	End of record

