#	Name: ASD00310244
#	Creating user name:	WinNT
#	Creation time:	15. 06. 2019 18:34

#	Modifying user name:	WinNT
#	Modification time:	15. 06. 2019 18:34

#	Program:	/corina/corina34_cracker 3.40 0067  02.08.2006

@<TRIPOS>MOLECULE
ASD00310244
  42   45    0    0    0
SMALL
NO_CHARGES


@<TRIPOS>ATOM
   1 N1            -0.0163     1.3505     0.0195 N.pl3   
   2 C2             0.0023    -0.0030     0.0592 C.2     
   3 C3             1.2925    -0.4471     0.0667 C.2     
   4 C4             2.1477     0.7546     0.0279 C.ar    
   5 C5             3.5232     0.9590     0.0156 C.ar    
   6 C6             4.0239     2.2539    -0.0249 C.ar    
   7 C7             3.1463     3.3433    -0.0527 C.ar    
   8 C8             1.7847     3.1433    -0.0402 C.ar    
   9 C9             1.2694     1.8504    -0.0006 C.ar    
  10 C10            1.7409    -1.8436     0.1058 C.2     
  11 O11            2.9294    -2.1008     0.1088 O.2     
  12 O12            0.8350    -2.8419     0.1385 O.3     
  13 C13            5.4899     2.4821    -0.0382 C.ar    
  14 C14            6.0565     3.3273    -0.9893 C.ar    
  15 C15            7.4256     3.5362    -0.9966 C.ar    
  16 C16            8.2296     2.9037    -0.0579 C.ar    
  17 C17            7.6678     2.0649     0.8860 C.ar    
  18 C18            6.3031     1.8559     0.9044 C.ar    
  19 O19            7.9823     4.3602    -1.9230 O.3     
  20 C20            7.0957     4.9774    -2.8585 C.3     
  21 O21           11.1979     4.1824     0.9302 O.3     
  22 C22           10.1400     4.6012     0.0582 C.3     
  23 C23            9.7192     3.1319    -0.0686 C.3     
  24 C24           10.3843     3.0655     1.3117 C.3     
  25 O25           10.4005     2.4050    -1.0930 O.3     
  26 Cl26           3.7795     4.9589    -0.1027 Cl      
  27 H27           -0.8207     1.8923     0.0033 H       
  28 H28           -0.8725    -0.6359     0.0818 H       
  29 H29            4.1979     0.1160     0.0379 H       
  30 H30            1.1151     3.9904    -0.0615 H       
  31 H31            1.1783    -3.7456     0.1635 H       
  32 H32            5.4300     3.8182    -1.7193 H       
  33 H33            8.2974     1.5752     1.6141 H       
  34 H34            5.8666     1.2034     1.6461 H       
  35 H35            7.6676     5.6074    -3.5397 H       
  36 H36            6.5741     4.2075    -3.4270 H       
  37 H37            6.3693     5.5880    -2.3222 H       
  38 H38            9.3937     5.2242     0.5512 H       
  39 H39           10.4957     5.0318    -0.8779 H       
  40 H40           10.9540     2.1506     1.4740 H       
  41 H41            9.7018     3.2875     2.1321 H       
  42 H42           11.3570     2.5466    -1.1060 H       
@<TRIPOS>BOND
   1    1    2 1
   2    1    9 1
   3    1   27 1
   4    2    3 2
   5    2   28 1
   6    3    4 1
   7    3   10 1
   8    4    5 ar
   9    4    9 ar
  10    5    6 ar
  11    5   29 1
  12    6    7 ar
  13    6   13 1
  14    7    8 ar
  15    7   26 1
  16    8    9 ar
  17    8   30 1
  18   10   11 2
  19   10   12 1
  20   12   31 1
  21   13   14 ar
  22   13   18 ar
  23   14   15 ar
  24   14   32 1
  25   15   16 ar
  26   15   19 1
  27   16   17 ar
  28   16   23 1
  29   17   18 ar
  30   17   33 1
  31   18   34 1
  32   19   20 1
  33   20   35 1
  34   20   36 1
  35   20   37 1
  36   21   22 1
  37   21   24 1
  38   22   23 1
  39   22   38 1
  40   22   39 1
  41   23   24 1
  42   23   25 1
  43   24   40 1
  44   24   41 1
  45   25   42 1

#	End of record

