#	Name: ASD01150021
#	Creating user name:	WinNT
#	Creation time:	15. 06. 2019 19:03

#	Modifying user name:	WinNT
#	Modification time:	15. 06. 2019 19:03

#	Program:	/corina/corina34_cracker 3.40 0067  02.08.2006

@<TRIPOS>MOLECULE
ASD01150021
  42   44    0    0    0
SMALL
NO_CHARGES


@<TRIPOS>ATOM
   1 N1            -0.0159     1.3197     0.0093 N.ar    
   2 C2             0.0021    -0.0041     0.0020 C.ar    
   3 C3             1.2289    -0.6636    -0.0132 C.ar    
   4 C4             2.4001     0.1158    -0.0202 C.ar    
   5 N5             2.2878     1.4399    -0.0121 N.ar    
   6 C6             1.1031     2.0166     0.0024 C.ar    
   7 C7             2.0971    -2.8024    -0.9563 C.ar    
   8 C8             2.1604    -4.1811    -0.9614 C.ar    
   9 C9             1.4336    -4.9138    -0.0414 C.ar    
  10 C10            0.6362    -4.2672     0.8926 C.ar    
  11 C11            0.5665    -2.8837     0.9051 C.ar    
  12 C12            1.2985    -2.1451    -0.0214 C.ar    
  13 C13            6.0358    -0.4503     0.5539 C.3     
  14 C14            4.8572     0.3391    -0.0420 C.3     
  15 C15            5.2496     0.6891    -1.4923 C.3     
  16 C16            6.3028    -0.3820    -1.8699 C.3     
  17 C17            7.1034    -0.5525    -0.5549 C.3     
  18 N18            3.6462    -0.4853    -0.0349 N.pl3   
  19 C19            1.0249     3.5216     0.0112 C.3     
  20 O20           -0.0769    -4.9916     1.7948 O.3     
  21 C21            0.0418    -6.4139     1.7239 C.3     
  22 F22            1.3777    -6.7806     1.9191 F       
  23 F23           -0.7520    -6.9981     2.7168 F       
  24 F24           -0.3841    -6.8553     0.4666 F       
  25 H25           -0.9211    -0.5645     0.0082 H       
  26 H26            2.6694    -2.2327    -1.6734 H       
  27 H27            2.7792    -4.6890    -1.6864 H       
  28 H28            1.4863    -5.9925    -0.0498 H       
  29 H29           -0.0536    -2.3793     1.6314 H       
  30 H30            6.4421     0.0791     1.4158 H       
  31 H31            5.7069    -1.4469     0.8485 H       
  32 H32            4.6914     1.2517     0.5305 H       
  33 H33            4.3827     0.6200    -2.1494 H       
  34 H34            5.6863     1.6867    -1.5392 H       
  35 H35            5.8189    -1.3172    -2.1515 H       
  36 H36            6.9484    -0.0232    -2.6715 H       
  37 H37            7.8395     0.2446    -0.4504 H       
  38 H38            7.5894    -1.5278    -0.5279 H       
  39 H39            3.7180    -1.4526    -0.0405 H       
  40 H40            0.9962     3.8899    -1.0143 H       
  41 H41            0.1222     3.8354     0.5354 H       
  42 H42            1.8996     3.9279     0.5189 H       
@<TRIPOS>BOND
   1    1    2 ar
   2    1    6 ar
   3    2    3 ar
   4    2   25 1
   5    3    4 ar
   6    3   12 1
   7    4    5 ar
   8    4   18 1
   9    5    6 ar
  10    6   19 1
  11    7    8 ar
  12    7   12 ar
  13    7   26 1
  14    8    9 ar
  15    8   27 1
  16    9   10 ar
  17    9   28 1
  18   10   11 ar
  19   10   20 1
  20   11   12 ar
  21   11   29 1
  22   13   14 1
  23   13   17 1
  24   13   30 1
  25   13   31 1
  26   14   15 1
  27   14   18 1
  28   14   32 1
  29   15   16 1
  30   15   33 1
  31   15   34 1
  32   16   17 1
  33   16   35 1
  34   16   36 1
  35   17   37 1
  36   17   38 1
  37   18   39 1
  38   19   40 1
  39   19   41 1
  40   19   42 1
  41   20   21 1
  42   21   22 1
  43   21   23 1
  44   21   24 1

#	End of record

