#	Name: ASD08178031
#	Creating user name:	WinNT
#	Creation time:	15. 06. 2019 21:18

#	Modifying user name:	WinNT
#	Modification time:	15. 06. 2019 21:18

#	Program:	/corina/corina34_cracker 3.40 0067  02.08.2006

@<TRIPOS>MOLECULE
ASD08178031
  88   92    0    0    0
SMALL
NO_CHARGES


@<TRIPOS>ATOM
   1 C1             0.4560     0.5078    -0.7130 C.ar    
   2 C2             0.4876    -0.8701    -0.8199 C.ar    
   3 C3             1.6994    -1.5281    -0.9173 C.ar    
   4 C4             2.8795    -0.8082    -0.9083 C.ar    
   5 C5             2.8478     0.5697    -0.8023 C.ar    
   6 C6             1.6361     1.2276    -0.7035 C.ar    
   7 O7             3.8008     1.3830    -3.1282 O.2     
   8 C8             4.5089     1.7236    -2.2043 C.2     
   9 C9             4.1344     1.3544    -0.7920 C.3     
  10 N10            5.3018     2.4665    -4.8108 N.2     
  11 C11            5.9764     2.7729    -3.7439 C.2     
  12 N12            5.6307     2.4322    -2.4406 N.am    
  13 N13            5.7564     2.8540    -5.9231 N.2     
  14 C14            6.8628     3.5267    -5.8943 C.2     
  15 S15            7.3629     3.6654    -4.2084 S.3     
  16 C16            7.5923     4.0892    -7.0870 C.3     
  17 C17            7.0906     5.5066    -7.3699 C.3     
  18 S18            7.9687     6.1837    -8.8055 S.3     
  19 C19            7.2489     7.8395    -8.9805 C.3     
  20 C20            7.8954     8.5536   -10.1692 C.3     
  21 C21            7.2974     9.9292   -10.3146 C.2     
  22 N22            7.7314    11.0139    -9.7553 N.2     
  23 N23            7.0895    12.0726   -10.0024 N.2     
  24 C24            6.0594    11.9837   -10.7884 C.2     
  25 S25            5.8852    10.3528   -11.2830 S.3     
  26 N26            5.2373    13.0387   -11.1699 N.am    
  27 C27            5.4837    14.2833   -10.7155 C.2     
  28 O28            4.8267    15.2184   -11.1217 O.2     
  29 C29            6.5756    14.5133    -9.7026 C.3     
  30 C30            6.6451    15.9799    -9.3631 C.ar    
  31 C31            4.1036    12.7970   -12.0657 C.3     
  32 C32            5.8901    16.4847    -8.3210 C.ar    
  33 C33            5.9538    17.8300    -8.0096 C.ar    
  34 C34            6.7730    18.6705    -8.7401 C.ar    
  35 C35            7.5287    18.1655    -9.7816 C.ar    
  36 C36            7.4682    16.8194   -10.0902 C.ar    
  37 O37            3.0428    12.1277   -11.3341 O.3     
  38 C38            2.3045    12.8834   -10.5012 C.2     
  39 O39            2.4698    14.0858   -10.4649 O.2     
  40 O40            1.3830    12.3068    -9.7085 O.3     
  41 C41            0.6233    13.1835    -8.8353 C.3     
  42 C42           -0.3679    12.3538    -8.0167 C.3     
  43 C43           -1.1684    13.2776    -7.0965 C.3     
  44 N44           -2.1201    12.4810    -6.3105 N.3     
  45 C45           -2.7378    13.2923    -5.2516 C.3     
  46 C46           -3.7635    12.4419    -4.4973 C.3     
  47 O47           -3.1190    11.2751    -3.9791 O.3     
  48 C48           -2.5071    10.4614    -4.9834 C.3     
  49 C49           -1.4687    11.2917    -5.7426 C.3     
  50 H50           -0.4909     1.0222    -0.6414 H       
  51 H51           -0.4343    -1.4325    -0.8269 H       
  52 H52            1.7242    -2.6046    -1.0001 H       
  53 H53            3.8263    -1.3224    -0.9837 H       
  54 H54            1.6114     2.3042    -0.6211 H       
  55 H55            4.0020     2.2615    -0.2023 H       
  56 H56            4.9264     0.7478    -0.3528 H       
  57 H57            6.1970     2.7046    -1.7017 H       
  58 H58            8.6619     4.1172    -6.8787 H       
  59 H59            7.4079     3.4582    -7.9564 H       
  60 H60            6.0210     5.4786    -7.5782 H       
  61 H61            7.2750     6.1376    -6.5004 H       
  62 H62            6.1754     7.7532    -9.1485 H       
  63 H63            7.4294     8.4121    -8.0707 H       
  64 H64            8.9689     8.6400   -10.0012 H       
  65 H65            7.7149     7.9810   -11.0790 H       
  66 H66            6.3603    13.9413    -8.8000 H       
  67 H67            7.5303    14.1909   -10.1180 H       
  68 H68            3.7355    13.7480   -12.4506 H       
  69 H69            4.4245    12.1685   -12.8965 H       
  70 H70            5.2501    15.8281    -7.7503 H       
  71 H71            5.3634    18.2245    -7.1959 H       
  72 H72            6.8222    19.7217    -8.4973 H       
  73 H73            8.1684    18.8222   -10.3525 H       
  74 H74            8.0587    16.4249   -10.9039 H       
  75 H75            1.3040    13.7046    -8.1621 H       
  76 H76            0.0784    13.9116    -9.4362 H       
  77 H77           -1.0486    11.8327    -8.6899 H       
  78 H78            0.1770    11.6257    -7.4158 H       
  79 H79           -0.4877    13.7987    -6.4233 H       
  80 H80           -1.7133    14.0057    -7.6974 H       
  81 H81           -1.9684    13.6338    -4.5591 H       
  82 H82           -3.2360    14.1536    -5.6967 H       
  83 H83           -4.1828    13.0217    -3.6750 H       
  84 H84           -4.5613    12.1451    -5.1781 H       
  85 H85           -2.0177     9.6087    -4.5127 H       
  86 H86           -3.2683    10.1069    -5.6784 H       
  87 H87           -1.0405    10.6926    -6.5462 H       
  88 H88           -0.6791    11.6012    -5.0580 H       
@<TRIPOS>BOND
   1    1    2 ar
   2    1    6 ar
   3    1   50 1
   4    2    3 ar
   5    2   51 1
   6    3    4 ar
   7    3   52 1
   8    4    5 ar
   9    4   53 1
  10    5    6 ar
  11    5    9 1
  12    6   54 1
  13    7    8 2
  14    8    9 1
  15    8   12 am
  16    9   55 1
  17    9   56 1
  18   10   11 2
  19   10   13 1
  20   11   12 1
  21   11   15 1
  22   12   57 1
  23   13   14 2
  24   14   15 1
  25   14   16 1
  26   16   17 1
  27   16   58 1
  28   16   59 1
  29   17   18 1
  30   17   60 1
  31   17   61 1
  32   18   19 1
  33   19   20 1
  34   19   62 1
  35   19   63 1
  36   20   21 1
  37   20   64 1
  38   20   65 1
  39   21   22 2
  40   21   25 1
  41   22   23 1
  42   23   24 2
  43   24   25 1
  44   24   26 1
  45   26   27 am
  46   26   31 1
  47   27   28 2
  48   27   29 1
  49   29   30 1
  50   29   66 1
  51   29   67 1
  52   30   32 ar
  53   30   36 ar
  54   31   37 1
  55   31   68 1
  56   31   69 1
  57   32   33 ar
  58   32   70 1
  59   33   34 ar
  60   33   71 1
  61   34   35 ar
  62   34   72 1
  63   35   36 ar
  64   35   73 1
  65   36   74 1
  66   37   38 1
  67   38   39 2
  68   38   40 1
  69   40   41 1
  70   41   42 1
  71   41   75 1
  72   41   76 1
  73   42   43 1
  74   42   77 1
  75   42   78 1
  76   43   44 1
  77   43   79 1
  78   43   80 1
  79   44   45 1
  80   44   49 1
  81   45   46 1
  82   45   81 1
  83   45   82 1
  84   46   47 1
  85   46   83 1
  86   46   84 1
  87   47   48 1
  88   48   49 1
  89   48   85 1
  90   48   86 1
  91   49   87 1
  92   49   88 1

#	End of record

