#	Name: ASD03430754
#	Creating user name:	WinNT
#	Creation time:	15. 06. 2019 20:41

#	Modifying user name:	WinNT
#	Modification time:	15. 06. 2019 20:41

#	Program:	/corina/corina34_cracker 3.40 0067  02.08.2006

@<TRIPOS>MOLECULE
ASD03430754
  34   38    0    0    0
SMALL
NO_CHARGES


@<TRIPOS>ATOM
   1 C1            -0.0169     1.3929     0.0097 C.ar    
   2 C2             0.0021    -0.0041     0.0020 C.ar    
   3 C3             1.1908    -0.6688    -0.0105 C.ar    
   4 C4             2.4042     0.0263    -0.0042 C.ar    
   5 C5             2.3959     1.4151    -0.0033 C.ar    
   6 C6             1.1944     2.1061     0.0020 C.ar    
   7 O7             3.4619    -0.8333     0.0132 O.3     
   8 C8             1.5381    -2.1334    -0.0453 C.3     
   9 C9             3.0255    -2.1342    -0.4240 C.3     
  10 C10            0.4071    -3.8493     1.0016 C.ar    
  11 C11            1.2950    -2.8107     1.2705 C.ar    
  12 C12            0.7086    -2.8907    -1.0422 C.2     
  13 N13            0.0841    -3.8693    -0.3573 N.am    
  14 O14            0.6184    -2.6659    -2.2307 O.2     
  15 C15            1.7548    -2.5960     2.5506 C.ar    
  16 C16            1.3364    -3.4153     3.5839 C.ar    
  17 C17            0.4556    -4.4505     3.3282 C.ar    
  18 C18           -0.0082    -4.6695     2.0478 C.ar    
  19 O19            0.8802     3.4181     0.0015 O.3     
  20 C20           -1.0869     2.3927     0.0312 C.2     
  21 N21           -0.5256     3.5629     0.0207 N.2     
  22 C22           -2.5677     2.1139     0.0577 C.3     
  23 H23           -0.9258    -0.5568     0.0063 H       
  24 H24            3.3291     1.9587    -0.0064 H       
  25 H25            3.1502    -2.2420    -1.5015 H       
  26 H26            3.5598    -2.9207     0.1088 H       
  27 H27           -0.5194    -4.5125    -0.7610 H       
  28 H28            2.4425    -1.7871     2.7482 H       
  29 H29            1.6969    -3.2470     4.5879 H       
  30 H30            0.1296    -5.0905     4.1347 H       
  31 H31           -0.6960    -5.4797     1.8558 H       
  32 H32           -2.9059     2.0447     1.0916 H       
  33 H33           -3.0987     2.9222    -0.4450 H       
  34 H34           -2.7695     1.1730    -0.4543 H       
@<TRIPOS>BOND
   1    1    2 ar
   2    1    6 ar
   3    1   20 1
   4    2    3 ar
   5    2   23 1
   6    3    4 ar
   7    3    8 1
   8    4    5 ar
   9    4    7 1
  10    5    6 ar
  11    5   24 1
  12    6   19 1
  13    7    9 1
  14    8    9 1
  15    8   11 1
  16    8   12 1
  17    9   25 1
  18    9   26 1
  19   10   11 ar
  20   10   13 1
  21   10   18 ar
  22   11   15 ar
  23   12   13 am
  24   12   14 2
  25   13   27 1
  26   15   16 ar
  27   15   28 1
  28   16   17 ar
  29   16   29 1
  30   17   18 ar
  31   17   30 1
  32   18   31 1
  33   19   21 1
  34   20   21 2
  35   20   22 1
  36   22   32 1
  37   22   33 1
  38   22   34 1

#	End of record

