#	Name: ASD09116330
#	Creating user name:	WinNT
#	Creation time:	15. 06. 2019 21:21

#	Modifying user name:	WinNT
#	Modification time:	15. 06. 2019 21:21

#	Program:	/corina/corina34_cracker 3.40 0067  02.08.2006

@<TRIPOS>MOLECULE
ASD09116330
  80   86    0    0    0
SMALL
NO_CHARGES


@<TRIPOS>ATOM
   1 N1            -0.1353     1.7750     0.2418 N.2     
   2 N2            -0.1675     0.4000     0.5246 N.pl3   
   3 C3             1.1271     2.1293     0.2074 C.2     
   4 N4             1.8881     1.0560     0.4523 N.2     
   5 C5             1.1214     0.0043     0.6459 C.2     
   6 N6             1.5554    -1.2778     0.9246 N.pl3   
   7 C7            -1.3038    -0.4005     0.6550 C.ar    
   8 N8             1.6002     3.4171    -0.0440 N.pl3   
   9 C9             2.9698     3.6914     0.0541 C.ar    
  10 C10            3.5394     4.6771    -0.7419 C.ar    
  11 C11            3.7572     2.9820     0.9509 C.ar    
  12 C12            5.1087     3.2522     1.0486 C.ar    
  13 C13            5.6802     4.2326     0.2502 C.ar    
  14 C14            4.8913     4.9475    -0.6448 C.ar    
  15 N15            7.0509     4.5067     0.3501 N.3     
  16 C16            7.4247     5.6396    -0.5062 C.3     
  17 C17            7.8501     3.3160     0.0342 C.3     
  18 C18            9.3295     3.6094     0.2936 C.3     
  19 C19            9.7711     4.7891    -0.5770 C.3     
  20 C20            8.8914     6.0024    -0.2630 C.3     
  21 N21           11.1748     5.1129    -0.2896 N.3     
  22 F22            5.4472     5.9019    -1.4228 F       
  23 C23           12.0589     3.9850    -0.6362 C.3     
  24 C24           13.1035     4.5149    -1.6409 C.3     
  25 C25           13.1030     6.0429    -1.3723 C.3     
  26 C26           11.6104     6.3035    -1.0502 C.3     
  27 N27           -1.2250    -1.7038     0.4317 N.ar    
  28 N28           -2.2426    -2.4833     0.5286 N.ar    
  29 C29           -3.4391    -2.0244     0.8591 C.ar    
  30 C30           -3.6132    -0.6650     1.1342 C.ar    
  31 C31           -2.5228     0.1721     1.0267 C.ar    
  32 C32           -4.6242    -2.9110     0.9187 C.ar    
  33 C33           -5.7917    -2.5218     0.2602 C.ar    
  34 C34           -5.7993    -1.2456    -0.5358 C.3     
  35 C35           -5.8987    -0.0232     0.3728 C.3     
  36 C36           -4.9584    -0.1593     1.5674 C.3     
  37 C37           -4.5879    -4.1116     1.6193 C.ar    
  38 C38           -5.7174    -4.9051     1.6750 C.ar    
  39 C39           -6.8785    -4.5058     1.0385 C.ar    
  40 C40           -6.9163    -3.3155     0.3330 C.ar    
  41 Si41          -8.4047    -5.5789     1.1315 Si      
  42 C42           -9.4181    -5.0899     2.6163 C.3     
  43 H43            2.5049    -1.4644     0.9924 H       
  44 H44            0.9106    -1.9911     1.0523 H       
  45 H45            0.9805     4.1227    -0.2867 H       
  46 H46            2.9261     5.2318    -1.4366 H       
  47 H47            3.3131     2.2187     1.5726 H       
  48 H48            5.7204     2.7004     1.7470 H       
  49 H49            7.2871     5.3652    -1.5521 H       
  50 H50            6.7945     6.4970    -0.2698 H       
  51 H51            7.5288     2.4856     0.6631 H       
  52 H52            7.7105     3.0525    -1.0142 H       
  53 H53            9.4720     3.8595     1.3449 H       
  54 H54            9.9240     2.7304     0.0442 H       
  55 H55            9.6653     4.5250    -1.6292 H       
  56 H56            9.1730     6.8332    -0.9100 H       
  57 H57            9.0271     6.2901     0.7796 H       
  58 H58           12.5593     3.6171     0.2595 H       
  59 H59           11.4771     3.1848    -1.0937 H       
  60 H60           14.0856     4.0881    -1.4370 H       
  61 H61           12.7953     4.3035    -2.6648 H       
  62 H62           13.7354     6.2896    -0.5194 H       
  63 H63           13.4133     6.5953    -2.2592 H       
  64 H64           11.0343     6.3973    -1.9708 H       
  65 H65           11.5046     7.2019    -0.4421 H       
  66 H66           -2.6095     1.2320     1.2153 H       
  67 H67           -4.8800    -1.1831    -1.1181 H       
  68 H68           -6.6510    -1.2545    -1.2159 H       
  69 H69           -5.6315     0.8683    -0.1945 H       
  70 H70           -6.9232     0.0745     0.7319 H       
  71 H71           -5.3895    -0.8571     2.2852 H       
  72 H72           -4.8393     0.8145     2.0425 H       
  73 H73           -3.6814    -4.4219     2.1177 H       
  74 H74           -5.6935    -5.8393     2.2163 H       
  75 H75           -7.8266    -3.0089    -0.1608 H       
  76 H76           -9.2131    -5.3978    -0.1009 H       
  77 H77           -8.0018    -7.0029     1.2544 H       
  78 H78           -8.8248    -5.2228     3.5210 H       
  79 H79           -9.7139    -4.0446     2.5261 H       
  80 H80          -10.3087    -5.7160     2.6706 H       
@<TRIPOS>BOND
   1    1    2 1
   2    1    3 2
   3    2    7 1
   4    2    5 1
   5    3    4 1
   6    3    8 1
   7    4    5 2
   8    5    6 1
   9    6   43 1
  10    6   44 1
  11    7   27 ar
  12    7   31 ar
  13    8    9 1
  14    8   45 1
  15    9   10 ar
  16    9   11 ar
  17   10   14 ar
  18   10   46 1
  19   11   12 ar
  20   11   47 1
  21   12   13 ar
  22   12   48 1
  23   13   14 ar
  24   13   15 1
  25   14   22 1
  26   15   17 1
  27   15   16 1
  28   16   20 1
  29   16   49 1
  30   16   50 1
  31   17   18 1
  32   17   51 1
  33   17   52 1
  34   18   19 1
  35   18   53 1
  36   18   54 1
  37   19   20 1
  38   19   21 1
  39   19   55 1
  40   20   56 1
  41   20   57 1
  42   21   23 1
  43   21   26 1
  44   23   24 1
  45   23   58 1
  46   23   59 1
  47   24   25 1
  48   24   60 1
  49   24   61 1
  50   25   26 1
  51   25   62 1
  52   25   63 1
  53   26   64 1
  54   26   65 1
  55   27   28 ar
  56   28   29 ar
  57   29   30 ar
  58   29   32 1
  59   30   31 ar
  60   30   36 1
  61   31   66 1
  62   32   33 ar
  63   32   37 ar
  64   33   34 1
  65   33   40 ar
  66   34   35 1
  67   34   67 1
  68   34   68 1
  69   35   36 1
  70   35   69 1
  71   35   70 1
  72   36   71 1
  73   36   72 1
  74   37   38 ar
  75   37   73 1
  76   38   39 ar
  77   38   74 1
  78   39   40 ar
  79   39   41 1
  80   40   75 1
  81   41   42 1
  82   41   76 1
  83   41   77 1
  84   42   78 1
  85   42   79 1
  86   42   80 1

#	End of record

