#	Name: ASD01100063
#	Creating user name:	WinNT
#	Creation time:	15. 06. 2019 18:58

#	Modifying user name:	WinNT
#	Modification time:	15. 06. 2019 18:58

#	Program:	/corina/corina34_cracker 3.40 0067  02.08.2006

@<TRIPOS>MOLECULE
ASD01100063
  50   52    0    0    0
SMALL
NO_CHARGES


@<TRIPOS>ATOM
   1 C1             0.2703     1.7623    -2.0927 C.ar    
   2 C2            -0.0213     0.4558    -1.7431 C.ar    
   3 C3             0.8594    -0.2613    -0.9531 C.ar    
   4 C4             2.0300     0.3278    -0.5136 C.ar    
   5 C5             2.3208     1.6333    -0.8632 C.ar    
   6 C6             1.4411     2.3503    -1.6526 C.ar    
   7 C7             3.5970     2.2751    -0.3833 C.3     
   8 C8             3.2683     3.3496     0.6551 C.3     
   9 C9             2.7084     2.6868     1.9153 C.3     
  10 C10            4.5400     4.1237     1.0081 C.3     
  11 Cl11          -1.4920    -0.2832    -2.2950 Cl      
  12 C12            4.3116     2.9062    -1.5503 C.2     
  13 N13            5.6356     3.1483    -1.4789 N.am    
  14 O14            3.6953     3.1964    -2.5539 O.2     
  15 C15            6.3146     3.6381    -2.5911 C.2     
  16 N16            5.7794     3.8981    -3.7430 N.2     
  17 C17            6.5805     4.3588    -4.6874 C.2     
  18 C18            7.8652     4.5035    -4.3367 C.2     
  19 S19            8.0353     4.0095    -2.6536 S.3     
  20 C20            2.2279     4.3130     0.0803 C.3     
  21 C21           11.2574     5.5715    -5.3621 C.3     
  22 C22           10.1752     4.9984    -4.4432 C.3     
  23 N23            8.8931     4.9716    -5.1622 N.3     
  24 C24            8.9980     4.1609    -6.3841 C.3     
  25 C25           10.0921     4.7424    -7.2835 C.3     
  26 O26           11.3235     4.7898    -6.5578 O.3     
  27 H27           -0.4147     2.3211    -2.7131 H       
  28 H28            0.6322    -1.2811    -0.6795 H       
  29 H29            2.7174    -0.2318     0.1035 H       
  30 H30            1.6689     3.3702    -1.9255 H       
  31 H31            4.2373     1.5173     0.0682 H       
  32 H32            3.4496     2.0005     2.3248 H       
  33 H33            2.4742     3.4523     2.6550 H       
  34 H34            1.8024     2.1353     1.6638 H       
  35 H35            5.0120     4.4834     0.0938 H       
  36 H36            4.2845     4.9720     1.6431 H       
  37 H37            5.2294     3.4672     1.5389 H       
  38 H38            6.1153     2.9812    -0.6525 H       
  39 H39            6.2231     4.6023    -5.6771 H       
  40 H40            1.3030     3.7719    -0.1195 H       
  41 H41            2.0347     5.1099     0.7985 H       
  42 H42            2.6047     4.7434    -0.8474 H       
  43 H43           11.0117     6.6030    -5.6146 H       
  44 H44           12.2209     5.5404    -4.8532 H       
  45 H45           10.4479     3.9854    -4.1474 H       
  46 H46           10.0819     5.6247    -3.5560 H       
  47 H47            9.2519     3.1345    -6.1193 H       
  48 H48            8.0454     4.1759    -6.9137 H       
  49 H49           10.2126     4.1117    -8.1642 H       
  50 H50            9.8124     5.7498    -7.5919 H       
@<TRIPOS>BOND
   1    1    2 ar
   2    1    6 ar
   3    1   27 1
   4    2    3 ar
   5    2   11 1
   6    3    4 ar
   7    3   28 1
   8    4    5 ar
   9    4   29 1
  10    5    6 ar
  11    5    7 1
  12    6   30 1
  13    7    8 1
  14    7   12 1
  15    7   31 1
  16    8    9 1
  17    8   10 1
  18    8   20 1
  19    9   32 1
  20    9   33 1
  21    9   34 1
  22   10   35 1
  23   10   36 1
  24   10   37 1
  25   12   13 am
  26   12   14 2
  27   13   15 1
  28   13   38 1
  29   15   16 2
  30   15   19 1
  31   16   17 1
  32   17   18 2
  33   17   39 1
  34   18   19 1
  35   18   23 1
  36   20   40 1
  37   20   41 1
  38   20   42 1
  39   21   22 1
  40   21   26 1
  41   21   43 1
  42   21   44 1
  43   22   23 1
  44   22   45 1
  45   22   46 1
  46   23   24 1
  47   24   25 1
  48   24   47 1
  49   24   48 1
  50   25   26 1
  51   25   49 1
  52   25   50 1

#	End of record

