#	Name: ASD01820217
#	Creating user name:	WinNT
#	Creation time:	15. 06. 2019 19:36

#	Modifying user name:	WinNT
#	Modification time:	15. 06. 2019 19:36

#	Program:	/corina/corina34_cracker 3.40 0067  02.08.2006

@<TRIPOS>MOLECULE
ASD01820217
  48   51    0    0    0
SMALL
NO_CHARGES


@<TRIPOS>ATOM
   1 C1            -7.2690     1.2925     0.8951 C.ar    
   2 C2            -8.5008     1.6713     0.3532 C.ar    
   3 C3            -8.6058     2.7607    -0.4541 C.ar    
   4 C4            -7.4625     3.5228    -0.7524 C.ar    
   5 C5            -6.2136     3.1391    -0.2026 C.ar    
   6 C6            -6.1385     2.0130     0.6310 C.ar    
   7 N7            -7.5384     4.5977    -1.5436 N.ar    
   8 C8            -6.4767     5.3125    -1.8262 C.ar    
   9 C9            -5.2194     4.9902    -1.3193 C.ar    
  10 C10           -5.0711     3.9049    -0.5038 C.ar    
  11 O11           -7.1962     0.1986     1.6980 O.3     
  12 C12           -8.4133    -0.5097     1.9414 C.3     
  13 C13           -3.7218     3.5363     0.0572 C.3     
  14 O14           -2.6958     4.0350    -0.8035 O.3     
  15 C15           -3.5631     4.1509     1.4493 C.3     
  16 N16           -2.3427     3.6291     2.0791 N.3     
  17 C17           -2.1808     4.1624     3.4387 C.3     
  18 C18           -2.0390     5.6856     3.3729 C.3     
  19 C19           -2.1140     6.1272     1.9058 C.3     
  20 C20           -3.4601     5.6739     1.3267 C.3     
  21 C21           -0.9884     5.4337     1.1280 C.3     
  22 C22            0.3454     5.8416     1.6988 C.2     
  23 C23            1.2238     6.4499     0.9408 C.2     
  24 C24           -1.1595     3.9175     1.2568 C.3     
  25 H25           -9.3824     1.0897     0.5789 H       
  26 H26           -9.5648     3.0395    -0.8653 H       
  27 H27           -5.1915     1.7128     1.0547 H       
  28 H28           -6.5790     6.1740    -2.4694 H       
  29 H29           -4.3631     5.5985    -1.5706 H       
  30 H30           -8.2150    -1.3587     2.5956 H       
  31 H31           -9.1321     0.1565     2.4185 H       
  32 H32           -8.8210    -0.8670     0.9959 H       
  33 H33           -3.6416     2.4516     0.1276 H       
  34 H34           -2.7066     4.9957    -0.9128 H       
  35 H35           -4.4271     3.8926     2.0615 H       
  36 H36           -3.0545     3.9039     4.0371 H       
  37 H37           -1.2881     3.7333     3.8938 H       
  38 H38           -2.8469     6.1523     3.9365 H       
  39 H39           -1.0785     5.9816     3.7947 H       
  40 H40           -2.0216     7.2110     1.8354 H       
  41 H41           -3.5213     5.9608     0.2769 H       
  42 H42           -4.2728     6.1409     1.8829 H       
  43 H43           -1.0394     5.7210     0.0778 H       
  44 H44            0.5770     5.6324     2.7327 H       
  45 H45            2.1796     6.7422     1.3499 H       
  46 H46            0.9921     6.6591    -0.0931 H       
  47 H47           -0.2751     3.4906     1.7297 H       
  48 H48           -1.2895     3.4808     0.2666 H       
@<TRIPOS>BOND
   1    1    2 ar
   2    1   11 1
   3    1    6 ar
   4    2    3 ar
   5    2   25 1
   6    3    4 ar
   7    3   26 1
   8    4    5 ar
   9    4    7 ar
  10    5    6 ar
  11    5   10 ar
  12    6   27 1
  13    7    8 ar
  14    8    9 ar
  15    8   28 1
  16    9   10 ar
  17    9   29 1
  18   10   13 1
  19   11   12 1
  20   12   30 1
  21   12   31 1
  22   12   32 1
  23   13   14 1
  24   13   15 1
  25   13   33 1
  26   14   34 1
  27   15   16 1
  28   15   20 1
  29   15   35 1
  30   16   17 1
  31   16   24 1
  32   17   18 1
  33   17   36 1
  34   17   37 1
  35   18   19 1
  36   18   38 1
  37   18   39 1
  38   19   20 1
  39   19   21 1
  40   19   40 1
  41   20   41 1
  42   20   42 1
  43   21   22 1
  44   21   24 1
  45   21   43 1
  46   22   23 2
  47   22   44 1
  48   23   45 1
  49   23   46 1
  50   24   47 1
  51   24   48 1

#	End of record

