#	Name: ASD01148716
#	Creating user name:	WinNT
#	Creation time:	15. 06. 2019 19:03

#	Modifying user name:	WinNT
#	Modification time:	15. 06. 2019 19:03

#	Program:	/corina/corina34_cracker 3.40 0067  02.08.2006

@<TRIPOS>MOLECULE
ASD01148716
  58   61    0    0    0
SMALL
NO_CHARGES


@<TRIPOS>ATOM
   1 N1            -0.0159     1.3406     0.0806 N.pl3   
   2 C2             0.0025     0.0049    -0.1115 C.2     
   3 C3             1.3184    -0.4071    -0.1549 C.2     
   4 C4             2.1213     0.7501     0.0213 C.2     
   5 C5             1.2767     1.8042     0.1629 C.2     
   6 C6             1.7986    -1.7847    -0.3470 C.2     
   7 O7             1.0019    -2.6920    -0.4868 O.2     
   8 O8             3.1218    -2.0405    -0.3680 O.3     
   9 C9            -1.1690     2.1310     0.1752 C.ar    
  10 C10           -2.0122     2.0029     1.2709 C.ar    
  11 C11           -3.1481     2.7833     1.3612 C.ar    
  12 C12           -3.4460     3.6916     0.3619 C.ar    
  13 C13           -2.6082     3.8214    -0.7305 C.ar    
  14 C14           -1.4678     3.0478    -0.8238 C.ar    
  15 S15           -4.8964     4.6850     0.4806 S.o2    
  16 O16           -5.2288     5.0698    -0.8463 O.2     
  17 O17           -5.7921     3.9870     1.3348 O.2     
  18 N18           -4.4755     6.0736     1.2787 N.am    
  19 C19           -1.2063    -0.8837    -0.2535 C.3     
  20 C20            2.4315     5.8513     0.7573 C.ar    
  21 C21            3.3315     4.9448     0.1971 C.ar    
  22 C22            2.9584     3.6336     0.0043 C.ar    
  23 C23            1.6783     3.2113     0.3698 C.ar    
  24 C24            0.7778     4.1198     0.9307 C.ar    
  25 C25            1.1528     5.4306     1.1227 C.ar    
  26 C26            2.8364     7.2620     0.9702 C.ar    
  27 C27            1.9398     8.1677     1.5289 C.ar    
  28 C28            2.3280     9.4920     1.7263 C.ar    
  29 C29            3.6135     9.9009     1.3623 C.ar    
  30 C30            4.4967     8.9965     0.8083 C.ar    
  31 C31            4.1185     7.6818     0.6160 C.ar    
  32 C32            1.4115    10.4308     2.3002 C.1     
  33 N33            0.6845    11.1756     2.7555 N.1     
  34 C34            3.5230    -3.4224    -0.5617 C.3     
  35 C35            5.0502    -3.5155    -0.5568 C.3     
  36 H36            3.2006     0.7857     0.0394 H       
  37 H37           -1.7803     1.2935     2.0515 H       
  38 H38           -3.8046     2.6839     2.2130 H       
  39 H39           -2.8437     4.5313    -1.5095 H       
  40 H40           -0.8115     3.1529    -1.6750 H       
  41 H41           -3.5622     6.2027     1.5787 H       
  42 H42           -5.1424     6.7578     1.4462 H       
  43 H43           -1.4858    -0.9516    -1.3048 H       
  44 H44           -0.9723    -1.8787     0.1252 H       
  45 H45           -2.0350    -0.4637     0.3165 H       
  46 H46            4.3212     5.2717    -0.0858 H       
  47 H47            3.6553     2.9320    -0.4298 H       
  48 H48           -0.2123     3.7942     1.2137 H       
  49 H49            0.4568     6.1331     1.5567 H       
  50 H50            0.9473     7.8462     1.8080 H       
  51 H51            3.9164    10.9263     1.5143 H       
  52 H52            5.4891     9.3170     0.5277 H       
  53 H53            4.8160     6.9781     0.1861 H       
  54 H54            3.1192    -4.0345     0.2448 H       
  55 H55            3.1402    -3.7815    -1.5170 H       
  56 H56            5.4541    -2.9035    -1.3633 H       
  57 H57            5.4331    -3.1565     0.3985 H       
  58 H58            5.3514    -4.5529    -0.7022 H       
@<TRIPOS>BOND
   1    1    2 1
   2    1    5 1
   3    1    9 1
   4    2    3 2
   5    2   19 1
   6    3    4 1
   7    3    6 1
   8    4    5 2
   9    4   36 1
  10    5   23 1
  11    6    7 2
  12    6    8 1
  13    8   34 1
  14    9   10 ar
  15    9   14 ar
  16   10   11 ar
  17   10   37 1
  18   11   12 ar
  19   11   38 1
  20   12   13 ar
  21   12   15 1
  22   13   14 ar
  23   13   39 1
  24   14   40 1
  25   15   16 2
  26   15   17 2
  27   15   18 am
  28   18   41 1
  29   18   42 1
  30   19   43 1
  31   19   44 1
  32   19   45 1
  33   20   21 ar
  34   20   25 ar
  35   20   26 1
  36   21   22 ar
  37   21   46 1
  38   22   23 ar
  39   22   47 1
  40   23   24 ar
  41   24   25 ar
  42   24   48 1
  43   25   49 1
  44   26   27 ar
  45   26   31 ar
  46   27   28 ar
  47   27   50 1
  48   28   29 ar
  49   28   32 1
  50   29   30 ar
  51   29   51 1
  52   30   31 ar
  53   30   52 1
  54   31   53 1
  55   32   33 3
  56   34   35 1
  57   34   54 1
  58   34   55 1
  59   35   56 1
  60   35   57 1
  61   35   58 1

#	End of record

