#	Name: ASD01914743
#	Creating user name:	WinNT
#	Creation time:	15. 06. 2019 20:04

#	Modifying user name:	WinNT
#	Modification time:	15. 06. 2019 20:04

#	Program:	/corina/corina34_cracker 3.40 0067  02.08.2006

@<TRIPOS>MOLECULE
ASD01914743
  57   61    0    0    0
SMALL
NO_CHARGES


@<TRIPOS>ATOM
   1 C1            -0.0416     1.3823     0.2832 C.ar    
   2 C2            -0.0260    -0.0117     0.3137 C.ar    
   3 N3             1.1050     2.0558     0.2558 N.ar    
   4 N4             1.1265    -0.6569     0.3153 N.ar    
   5 C5             2.2627     0.0171     0.2879 C.ar    
   6 C6             2.2506     1.4040     0.2575 C.ar    
   7 C7            -1.3315     2.1109     0.2752 C.2     
   8 O8            -2.3780     1.4937     0.2952 O.2     
   9 N9            -1.3442     3.4583     0.2457 N.am    
  10 C10           -2.6198     4.1787     0.2377 C.3     
  11 C11           -2.3544     5.6852     0.2030 C.3     
  12 C12           -3.6866     6.4376     0.1947 C.3     
  13 C13           -4.4776     6.0881     1.4568 C.3     
  14 C14           -4.7430     4.5817     1.4915 C.3     
  15 C15           -5.5495     4.1772     0.2559 C.3     
  16 C16           -4.7584     4.5268    -1.0063 C.3     
  17 C17           -3.4263     3.7743    -0.9980 C.3     
  18 C18           -4.4931     6.0332    -1.0410 C.3     
  19 C19           -3.4108     3.8292     1.4998 C.3     
  20 N20           -3.4325     7.8800     0.1614 N.am    
  21 C21           -4.4651     8.7461     0.1488 C.2     
  22 O22           -5.6069     8.3305     0.1649 O.2     
  23 C23           -4.2082    10.2049     0.1151 C.ar    
  24 C24           -5.2747    11.0912    -0.0182 C.ar    
  25 C25           -5.0186    12.4529    -0.0476 C.ar    
  26 C26           -3.7043    12.8810     0.0573 C.ar    
  27 C27           -2.6928    11.9430     0.1875 C.ar    
  28 N28           -2.9644    10.6565     0.2177 N.ar    
  29 C29           -6.6867    10.5766    -0.1292 C.3     
  30 C30            3.5499     2.1669     0.2259 C.3     
  31 H31           -0.9546    -0.5628     0.3365 H       
  32 H32            3.2035    -0.5132     0.2893 H       
  33 H33           -0.5088     3.9509     0.2297 H       
  34 H34           -1.7799     5.9733     1.0833 H       
  35 H35           -1.7909     5.9342    -0.6962 H       
  36 H36           -3.9031     6.3762     2.3371 H       
  37 H37           -5.4267     6.6241     1.4509 H       
  38 H38           -5.3065     4.3326     2.3907 H       
  39 H39           -5.7385     3.1040     0.2806 H       
  40 H40           -6.4985     4.7133     0.2499 H       
  41 H41           -5.3330     4.2387    -1.8866 H       
  42 H42           -2.8627     4.0233    -1.8972 H       
  43 H43           -3.6153     2.7011    -0.9732 H       
  44 H44           -5.4421     6.5692    -1.0469 H       
  45 H45           -3.9295     6.2822    -1.9402 H       
  46 H46           -3.5999     2.7560     1.5246 H       
  47 H47           -2.8363     4.1173     2.3802 H       
  48 H48           -2.5211     8.2118     0.1485 H       
  49 H49           -5.8247    13.1644    -0.1503 H       
  50 H50           -3.4710    13.9353     0.0374 H       
  51 H51           -1.6677    12.2730     0.2695 H       
  52 H52           -7.0803    10.3774     0.8675 H       
  53 H53           -7.3081    11.3240    -0.6226 H       
  54 H54           -6.6930     9.6561    -0.7130 H       
  55 H55            3.8746     2.3738     1.2456 H       
  56 H56            4.3082     1.5721    -0.2833 H       
  57 H57            3.4066     3.1066    -0.3075 H       
@<TRIPOS>BOND
   1    1    2 ar
   2    1    3 ar
   3    1    7 1
   4    2    4 ar
   5    2   31 1
   6    3    6 ar
   7    4    5 ar
   8    5    6 ar
   9    5   32 1
  10    6   30 1
  11    7    8 2
  12    7    9 am
  13    9   10 1
  14    9   33 1
  15   10   11 1
  16   10   17 1
  17   10   19 1
  18   11   12 1
  19   11   34 1
  20   11   35 1
  21   12   13 1
  22   12   18 1
  23   12   20 1
  24   13   14 1
  25   13   36 1
  26   13   37 1
  27   14   15 1
  28   14   19 1
  29   14   38 1
  30   15   16 1
  31   15   39 1
  32   15   40 1
  33   16   17 1
  34   16   18 1
  35   16   41 1
  36   17   42 1
  37   17   43 1
  38   18   44 1
  39   18   45 1
  40   19   46 1
  41   19   47 1
  42   20   21 am
  43   20   48 1
  44   21   22 2
  45   21   23 1
  46   23   24 ar
  47   23   28 ar
  48   24   25 ar
  49   24   29 1
  50   25   26 ar
  51   25   49 1
  52   26   27 ar
  53   26   50 1
  54   27   28 ar
  55   27   51 1
  56   29   52 1
  57   29   53 1
  58   29   54 1
  59   30   55 1
  60   30   56 1
  61   30   57 1

#	End of record

