#	Name: ASD01230260
#	Creating user name:	WinNT
#	Creation time:	15. 06. 2019 19:12

#	Modifying user name:	WinNT
#	Modification time:	15. 06. 2019 19:12

#	Program:	/corina/corina34_cracker 3.40 0067  02.08.2006

@<TRIPOS>MOLECULE
ASD01230260
  45   48    0    0    0
SMALL
NO_CHARGES


@<TRIPOS>ATOM
   1 S1             1.8668    -4.6539    -3.3163 S.o2    
   2 N2             1.1482    -3.8611    -2.0533 N.am    
   3 C3             1.6539    -2.7712    -1.5400 C.2     
   4 N4             2.7997    -2.1549    -1.9564 N.pl3   
   5 C5             3.6708    -2.6621    -3.0157 C.3     
   6 C6             2.8436    -3.3400    -4.1128 C.3     
   7 C7             0.9116    -2.1601    -0.4112 C.2     
   8 N8             1.3532    -1.0450     0.1256 N.2     
   9 C9             2.4570    -0.4573    -0.3324 C.2     
  10 C10            3.1739    -0.9814    -1.3439 C.2     
  11 C11           -1.3429    -2.0288     0.6503 C.ar    
  12 C12           -0.3165    -2.8012     0.1071 C.ar    
  13 C13           -0.4663    -4.1935     0.0592 C.ar    
  14 C14           -1.6311    -4.7454     0.5550 C.ar    
  15 C15           -2.6092    -3.9090     1.0811 C.ar    
  16 N16           -2.4379    -2.5969     1.1122 N.ar    
  17 O17           -3.7554    -4.4452     1.5691 O.3     
  18 C18           -4.7236    -3.5363     2.0967 C.3     
  19 C19           -6.1262    -4.1158     1.9025 C.3     
  20 C20           -7.1629    -3.1426     2.4675 C.3     
  21 C21           -6.9016    -2.9288     3.9597 C.3     
  22 C22           -5.4990    -2.3493     4.1540 C.3     
  23 C23           -4.4623    -3.3225     3.5890 C.3     
  24 O24            2.7172    -5.6110    -2.7000 O.2     
  25 O25            0.7865    -5.0537    -4.1483 O.2     
  26 H26            4.2312    -1.8333    -3.4481 H       
  27 H27            4.3681    -3.3851    -2.5925 H       
  28 H28            3.5056    -3.7726    -4.8629 H       
  29 H29            2.1780    -2.6132    -4.5785 H       
  30 H30            2.7862     0.4663     0.1205 H       
  31 H31            4.0628    -0.4694    -1.6818 H       
  32 H32           -1.2371    -0.9550     0.6967 H       
  33 H33            0.3099    -4.8196    -0.3555 H       
  34 H34           -1.7807    -5.8148     0.5339 H       
  35 H35           -4.6490    -2.5824     1.5745 H       
  36 H36           -6.3124    -4.2681     0.8393 H       
  37 H37           -6.2008    -5.0696     2.4247 H       
  38 H38           -7.0883    -2.1887     1.9452 H       
  39 H39           -8.1621    -3.5554     2.3290 H       
  40 H40           -7.6401    -2.2355     4.3623 H       
  41 H41           -6.9762    -3.8827     4.4820 H       
  42 H42           -5.4244    -1.3955     3.6318 H       
  43 H43           -5.3128    -2.1970     5.2172 H       
  44 H44           -4.5369    -4.2763     4.1112 H       
  45 H45           -3.4631    -2.9096     3.7274 H       
@<TRIPOS>BOND
   1    1    2 am
   2    1    6 1
   3    1   24 2
   4    1   25 2
   5    2    3 2
   6    3    4 1
   7    3    7 1
   8    4    5 1
   9    4   10 1
  10    5    6 1
  11    5   26 1
  12    5   27 1
  13    6   28 1
  14    6   29 1
  15    7    8 2
  16    7   12 1
  17    8    9 1
  18    9   10 2
  19    9   30 1
  20   10   31 1
  21   11   12 ar
  22   11   16 ar
  23   11   32 1
  24   12   13 ar
  25   13   14 ar
  26   13   33 1
  27   14   15 ar
  28   14   34 1
  29   15   16 ar
  30   15   17 1
  31   17   18 1
  32   18   19 1
  33   18   23 1
  34   18   35 1
  35   19   20 1
  36   19   36 1
  37   19   37 1
  38   20   21 1
  39   20   38 1
  40   20   39 1
  41   21   22 1
  42   21   40 1
  43   21   41 1
  44   22   23 1
  45   22   42 1
  46   22   43 1
  47   23   44 1
  48   23   45 1

#	End of record

