#	Name: ASD01915606
#	Creating user name:	WinNT
#	Creation time:	15. 06. 2019 20:05

#	Modifying user name:	WinNT
#	Modification time:	15. 06. 2019 20:05

#	Program:	/corina/corina34_cracker 3.40 0067  02.08.2006

@<TRIPOS>MOLECULE
ASD01915606
  47   50    0    0    0
SMALL
NO_CHARGES


@<TRIPOS>ATOM
   1 C1            -0.0166     1.3728     0.0096 C.2     
   2 N2             0.0021    -0.0041     0.0020 N.pl3   
   3 C3            -1.2433    -0.7807    -0.0179 C.3     
   4 C4            -2.3411     0.0068     0.6954 C.3     
   5 N5            -2.4043     1.3988     0.2637 N.am    
   6 C6            -1.2811     2.1228     0.0393 C.2     
   7 C7             1.2846     1.7904    -0.0006 C.2     
   8 C8             2.0437     0.6125    -0.0024 C.2     
   9 N9             1.2133    -0.4042     0.0045 N.2     
  10 C10            3.5483     0.5278    -0.0111 C.3     
  11 O11            4.0996     1.8461    -0.0175 O.3     
  12 C12            5.4547     1.9482    -0.0258 C.ar    
  13 O13           -1.3168     3.3270    -0.1277 O.2     
  14 C14            6.0574     3.1977    -0.0322 C.ar    
  15 C15            6.2378     0.8030    -0.0220 C.ar    
  16 C16            7.6151     0.9094    -0.0305 C.ar    
  17 C17            8.2133     2.1559    -0.0427 C.ar    
  18 C18            7.4351     3.2988    -0.0407 C.ar    
  19 C19           -3.6454     1.9964     0.0782 C.ar    
  20 N20           -4.7406     1.2874     0.2979 N.ar    
  21 C21           -5.9423     1.8213     0.1326 C.ar    
  22 C22           -6.0451     3.1411    -0.2762 C.ar    
  23 C23           -4.8678     3.8618    -0.4996 C.ar    
  24 N24           -3.7001     3.2618    -0.3086 N.ar    
  25 O25           -7.2625     3.7220    -0.4565 O.3     
  26 C26           -8.4119     2.9108    -0.2056 C.3     
  27 O27           -4.9189     5.1560    -0.9010 O.3     
  28 C28           -3.6710     5.8210    -1.1071 C.3     
  29 H29           -1.5404    -0.9656    -1.0502 H       
  30 H30           -1.0875    -1.7313     0.4922 H       
  31 H31           -3.3017    -0.4679     0.4954 H       
  32 H32           -2.1536    -0.0209     1.7688 H       
  33 H33            1.6488     2.8072    -0.0064 H       
  34 H34            3.8875    -0.0036     0.8781 H       
  35 H35            3.8769    -0.0078    -0.9018 H       
  36 H36            5.4500     4.0907    -0.0310 H       
  37 H37            5.7710    -0.1709    -0.0121 H       
  38 H38            8.2251     0.0182    -0.0273 H       
  39 H39            9.2902     2.2370    -0.0494 H       
  40 H40            7.9047     4.2713    -0.0506 H       
  41 H41           -6.8307     1.2346     0.3141 H       
  42 H42           -8.3986     2.0465    -0.8695 H       
  43 H43           -8.3991     2.5732     0.8307 H       
  44 H44           -9.3147     3.4941    -0.3865 H       
  45 H45           -3.1034     5.8252    -0.1766 H       
  46 H46           -3.1033     5.2980    -1.8766 H       
  47 H47           -3.8544     6.8473    -1.4254 H       
@<TRIPOS>BOND
   1    1    2 1
   2    1    7 2
   3    1    6 1
   4    2    3 1
   5    2    9 1
   6    3    4 1
   7    3   29 1
   8    3   30 1
   9    4    5 1
  10    4   31 1
  11    4   32 1
  12    5    6 am
  13    5   19 1
  14    6   13 2
  15    7    8 1
  16    7   33 1
  17    8    9 2
  18    8   10 1
  19   10   11 1
  20   10   34 1
  21   10   35 1
  22   11   12 1
  23   12   14 ar
  24   12   15 ar
  25   14   18 ar
  26   14   36 1
  27   15   16 ar
  28   15   37 1
  29   16   17 ar
  30   16   38 1
  31   17   18 ar
  32   17   39 1
  33   18   40 1
  34   19   20 ar
  35   19   24 ar
  36   20   21 ar
  37   21   22 ar
  38   21   41 1
  39   22   23 ar
  40   22   25 1
  41   23   24 ar
  42   23   27 1
  43   25   26 1
  44   26   42 1
  45   26   43 1
  46   26   44 1
  47   27   28 1
  48   28   45 1
  49   28   46 1
  50   28   47 1

#	End of record

