#	Name: ASD02198539
#	Creating user name:	WinNT
#	Creation time:	15. 06. 2019 20:19

#	Modifying user name:	WinNT
#	Modification time:	15. 06. 2019 20:19

#	Program:	/corina/corina34_cracker 3.40 0067  02.08.2006

@<TRIPOS>MOLECULE
ASD02198539
  44   47    0    0    0
SMALL
NO_CHARGES


@<TRIPOS>ATOM
   1 C1            -0.2430     1.8777    -0.0482 C.2     
   2 C2            -0.3670     0.5281     0.0213 C.2     
   3 N3             0.7251    -0.2641     0.1045 N.pl3   
   4 N4             1.9238     0.1895     0.1236 N.2     
   5 C5             2.1851     1.4756     0.0626 C.2     
   6 C6             1.0630     2.4225    -0.0306 C.2     
   7 C7             0.5375    -1.6485     0.1737 C.ar    
   8 C8            -0.9236    -3.5392     0.3774 C.ar    
   9 C9             0.1667    -4.3871     0.3114 C.ar    
  10 C10            1.4427    -3.8692     0.1820 C.ar    
  11 C11            1.6313    -2.5032     0.1130 C.ar    
  12 C12            3.5839     1.9633     0.0877 C.2     
  13 C13            4.2600     2.6279    -0.9673 C.2     
  14 N14            5.4795     2.8977    -0.5565 N.2     
  15 N15            5.6213     2.4226     0.7526 N.pl3   
  16 C16            4.4557     1.8608     1.1315 C.2     
  17 C17            3.6925     2.9593    -2.2968 C.ar    
  18 C18            2.8134     2.0768    -2.9219 C.ar    
  19 O19            1.2508     3.6287    -0.0900 O.2     
  20 C20            4.0318     4.1573    -2.9232 C.ar    
  21 C21            3.5003     4.4607    -4.1602 C.ar    
  22 C22            2.6320     3.5788    -4.7780 C.ar    
  23 C23            2.2880     2.3906    -4.1588 C.ar    
  24 C24           -0.7420    -2.1717     0.3089 C.ar    
  25 F25           -2.2538    -5.5038     0.4448 F       
  26 F26           -2.8476    -3.7285     1.7543 F       
  27 C27           -2.3119    -4.1080     0.5189 C.3     
  28 F28           -3.1232    -3.6197    -0.5110 F       
  29 C29            6.8302     2.5238     1.5741 C.3     
  30 H30           -1.1122     2.5148    -0.1192 H       
  31 H31           -1.3503     0.0816     0.0104 H       
  32 H32            0.0216    -5.4562     0.3615 H       
  33 H33            2.2922    -4.5343     0.1315 H       
  34 H34            2.6279    -2.0995     0.0116 H       
  35 H35            4.2508     1.4049     2.0889 H       
  36 H36            2.5441     1.1488    -2.4393 H       
  37 H37            4.7091     4.8469    -2.4414 H       
  38 H38            3.7625     5.3887    -4.6466 H       
  39 H39            2.2182     3.8205    -5.7459 H       
  40 H40            1.6096     1.7058    -4.6458 H       
  41 H41           -1.5940    -1.5100     0.3609 H       
  42 H42            6.8070     3.4541     2.1416 H       
  43 H43            6.8737     1.6794     2.2620 H       
  44 H44            7.7092     2.5131     0.9297 H       
@<TRIPOS>BOND
   1    1    2 2
   2    1    6 1
   3    1   30 1
   4    2    3 1
   5    2   31 1
   6    3    4 1
   7    3    7 1
   8    4    5 2
   9    5    6 1
  10    5   12 1
  11    6   19 2
  12    7   24 ar
  13    7   11 ar
  14    8    9 ar
  15    8   27 1
  16    8   24 ar
  17    9   10 ar
  18    9   32 1
  19   10   11 ar
  20   10   33 1
  21   11   34 1
  22   12   13 1
  23   12   16 2
  24   13   14 2
  25   13   17 1
  26   14   15 1
  27   15   16 1
  28   15   29 1
  29   16   35 1
  30   17   20 ar
  31   17   18 ar
  32   18   23 ar
  33   18   36 1
  34   20   21 ar
  35   20   37 1
  36   21   22 ar
  37   21   38 1
  38   22   23 ar
  39   22   39 1
  40   23   40 1
  41   24   41 1
  42   25   27 1
  43   26   27 1
  44   27   28 1
  45   29   42 1
  46   29   43 1
  47   29   44 1

#	End of record

