#	Name: ASD09200021
#	Creating user name:	WinNT
#	Creation time:	15. 06. 2019 21:21

#	Modifying user name:	WinNT
#	Modification time:	15. 06. 2019 21:21

#	Program:	/corina/corina34_cracker 3.40 0067  02.08.2006

@<TRIPOS>MOLECULE
ASD09200021
  43   46    0    0    0
SMALL
NO_CHARGES


@<TRIPOS>ATOM
   1 C1            -0.0187     1.5270     0.0104 C.3     
   2 C2             0.0021    -0.0041     0.0020 C.3     
   3 C3             0.7943    -0.5026     1.2138 C.3     
   4 C4             2.2082     0.0811     1.1680 C.3     
   5 N5             2.1343     1.5477     1.1786 N.3     
   6 C6             1.4188     2.0518    -0.0005 C.3     
   7 N7            -1.3701    -0.5127     0.0712 N.am    
   8 C8            -1.6604    -1.7363    -0.4135 C.2     
   9 S9            -0.6476    -2.7251    -1.0743 S.o     
  10 C10           -1.7841    -4.0427    -1.4172 C.2     
  11 C11           -2.9673    -3.5741    -0.9519 C.2     
  12 N12           -2.8654    -2.3183    -0.4072 N.am    
  13 C13           -4.2275    -4.3335    -1.0187 C.ar    
  14 C14           -4.2396    -5.6115    -1.5865 C.ar    
  15 C15           -5.4429    -6.3266    -1.6453 C.ar    
  16 C16           -6.6281    -5.7433    -1.1284 C.ar    
  17 C17           -6.5834    -4.4515    -0.5615 C.ar    
  18 C18           -5.4095    -3.7719    -0.5062 C.ar    
  19 C19           -5.4940    -7.6156    -2.2102 C.ar    
  20 C20           -6.6800    -8.2899    -2.2549 C.ar    
  21 C21           -7.8434    -7.7216    -1.7494 C.ar    
  22 C22           -7.8294    -6.4616    -1.1895 C.ar    
  23 H23           -0.5449     1.8886    -0.8730 H       
  24 H24           -0.5279     1.8791     0.9076 H       
  25 H25            0.4766    -0.3569    -0.9136 H       
  26 H26            0.2979    -0.1824     2.1299 H       
  27 H27            0.8490    -1.5910     1.1901 H       
  28 H28            2.7705    -0.2605     2.0371 H       
  29 H29            2.7088    -0.2507     0.2584 H       
  30 H30            1.7087     1.8821     2.0302 H       
  31 H31            1.9231     1.7108    -0.9046 H       
  32 H32            1.4077     3.1416     0.0199 H       
  33 H33           -2.0696     0.0312     0.4658 H       
  34 H34           -0.4406    -2.1809    -2.2867 H       
  35 H35           -1.5811    -4.9940    -1.8864 H       
  36 H36           -3.6399    -1.8664    -0.0373 H       
  37 H37           -3.3296    -6.0431    -1.9765 H       
  38 H38           -7.4840    -4.0045    -0.1671 H       
  39 H39           -5.3852    -2.7839    -0.0705 H       
  40 H40           -4.5977    -8.0691    -2.6070 H       
  41 H41           -6.7149    -9.2781    -2.6892 H       
  42 H42           -8.7704    -8.2739    -1.7960 H       
  43 H43           -8.7398    -6.0308    -0.7997 H       
@<TRIPOS>BOND
   1    1    2 1
   2    1    6 1
   3    1   23 1
   4    1   24 1
   5    2    3 1
   6    2    7 1
   7    2   25 1
   8    3    4 1
   9    3   26 1
  10    3   27 1
  11    4    5 1
  12    4   28 1
  13    4   29 1
  14    5    6 1
  15    5   30 1
  16    6   31 1
  17    6   32 1
  18    7    8 am
  19    7   33 1
  20    8    9 2
  21    8   12 am
  22    9   10 1
  23    9   34 1
  24   10   11 2
  25   10   35 1
  26   11   12 1
  27   11   13 1
  28   12   36 1
  29   13   14 ar
  30   13   18 ar
  31   14   15 ar
  32   14   37 1
  33   15   16 ar
  34   15   19 ar
  35   16   17 ar
  36   16   22 ar
  37   17   18 ar
  38   17   38 1
  39   18   39 1
  40   19   20 ar
  41   19   40 1
  42   20   21 ar
  43   20   41 1
  44   21   22 ar
  45   21   42 1
  46   22   43 1

#	End of record

