#	Name: ASD01917900
#	Creating user name:	WinNT
#	Creation time:	15. 06. 2019 20:10

#	Modifying user name:	WinNT
#	Modification time:	15. 06. 2019 20:10

#	Program:	/corina/corina34_cracker 3.40 0067  02.08.2006

@<TRIPOS>MOLECULE
ASD01917900
  40   43    0    0    0
SMALL
NO_CHARGES


@<TRIPOS>ATOM
   1 C1             0.0045     1.2840    -0.0789 C.2     
   2 C2            -0.0055    -0.0621    -0.0686 C.2     
   3 C3            -1.2869    -0.8801    -0.0219 C.3     
   4 C4            -2.4291     0.0057     0.4815 C.3     
   5 N5            -2.3965     1.2882    -0.2376 N.am    
   6 C6            -1.2263     2.1602    -0.0343 C.3     
   7 C7            -3.4039     1.6536    -1.0549 C.2     
   8 O8            -4.3065     0.8744    -1.2934 O.2     
   9 S9             1.6729     1.8343    -0.1446 S.3     
  10 C10            2.2150     0.2132    -0.1479 C.2     
  11 N11            1.2106    -0.5896    -0.1049 N.2     
  12 C12            3.6595    -0.2135    -0.1950 C.3     
  13 O13            4.0685    -0.3611    -1.5562 O.3     
  14 C14            5.3537    -0.7443    -1.7762 C.ar    
  15 C15            5.8179    -0.9069    -3.0734 C.ar    
  16 C16            7.1247    -1.2965    -3.2944 C.ar    
  17 C17            7.9697    -1.5245    -2.2241 C.ar    
  18 C18            7.5094    -1.3636    -0.9303 C.ar    
  19 C19            6.2052    -0.9681    -0.7041 C.ar    
  20 C20           -3.4117     2.9979    -1.6598 C.2     
  21 N21           -4.2993     3.4497    -2.5956 N.pl3   
  22 C22           -3.9595     4.7286    -2.8826 C.2     
  23 C23           -2.8787     5.0351    -2.1239 C.2     
  24 N24           -2.5684     3.9709    -1.3872 N.2     
  25 H25           -1.5226    -1.2455    -1.0215 H       
  26 H26           -1.1556    -1.7247     0.6544 H       
  27 H27           -3.3824    -0.4902     0.2991 H       
  28 H28           -2.3083     0.1839     1.5500 H       
  29 H29           -1.2963     2.6539     0.9349 H       
  30 H30           -1.1776     2.9057    -0.8280 H       
  31 H31            4.2775     0.5419     0.2903 H       
  32 H32            3.7743    -1.1651     0.3241 H       
  33 H33            5.1581    -0.7292    -3.9098 H       
  34 H34            7.4864    -1.4235    -4.3041 H       
  35 H35            8.9910    -1.8291    -2.3989 H       
  36 H36            8.1712    -1.5430    -0.0959 H       
  37 H37            5.8461    -0.8426     0.3067 H       
  38 H38           -5.0346     2.9484    -2.9816 H       
  39 H39           -4.4563     5.3819    -3.5846 H       
  40 H40           -2.3601     5.9825    -2.1160 H       
@<TRIPOS>BOND
   1    1    2 2
   2    1    9 1
   3    1    6 1
   4    2    3 1
   5    2   11 1
   6    3    4 1
   7    3   25 1
   8    3   26 1
   9    4    5 1
  10    4   27 1
  11    4   28 1
  12    5    6 1
  13    5    7 am
  14    6   29 1
  15    6   30 1
  16    7    8 2
  17    7   20 1
  18    9   10 1
  19   10   11 2
  20   10   12 1
  21   12   13 1
  22   12   31 1
  23   12   32 1
  24   13   14 1
  25   14   15 ar
  26   14   19 ar
  27   15   16 ar
  28   15   33 1
  29   16   17 ar
  30   16   34 1
  31   17   18 ar
  32   17   35 1
  33   18   19 ar
  34   18   36 1
  35   19   37 1
  36   20   21 1
  37   20   24 2
  38   21   22 1
  39   21   38 1
  40   22   23 2
  41   22   39 1
  42   23   24 1
  43   23   40 1

#	End of record

