#	Name: ASD04882235
#	Creating user name:	WinNT
#	Creation time:	15. 06. 2019 20:54

#	Modifying user name:	WinNT
#	Modification time:	15. 06. 2019 20:54

#	Program:	/corina/corina34_cracker 3.40 0067  02.08.2006

@<TRIPOS>MOLECULE
ASD04882235
  75   79    0    0    0
SMALL
NO_CHARGES


@<TRIPOS>ATOM
   1 N1            -0.1365     1.5551    -0.0362 N.am    
   2 C2            -0.0764     0.1558    -0.0457 C.ar    
   3 C3            -1.2528    -0.5954     0.0295 C.ar    
   4 C4            -1.1946    -1.9843     0.0202 C.ar    
   5 C5             0.0216    -2.6251    -0.0630 C.ar    
   6 C6             1.2018    -1.8801    -0.1384 C.ar    
   7 C7             1.1459    -0.4836    -0.1350 C.ar    
   8 N8            -2.4845     0.0483     0.1142 N.3     
   9 C9            -2.6119     0.7767     1.3842 C.3     
  10 C10           -3.5898    -0.9051    -0.0559 C.3     
  11 C11           -4.9202    -0.1487    -0.0359 C.3     
  12 N12           -5.0475     0.5797     1.2341 N.3     
  13 C13           -3.9422     1.5332     1.4041 C.3     
  14 C14            2.5045    -2.5669    -0.2270 C.2     
  15 O15            3.5307    -1.9179    -0.2926 O.2     
  16 C16            0.8450     2.2677     0.5514 C.2     
  17 O17            1.7287     1.6971     1.1629 O.2     
  18 C18            0.8478     3.7343     0.4536 C.2     
  19 N19            2.5571    -3.9136    -0.2352 N.am    
  20 C20            3.8507    -4.5956    -0.3232 C.3     
  21 C21            3.6307    -6.1097    -0.3140 C.3     
  22 C22            4.9816    -6.8219    -0.4058 C.3     
  23 N23            4.7710    -8.2717    -0.3970 N.am    
  24 C24            4.5891    -9.0184    -1.4998 C.2     
  25 C25            4.7376    -9.0962     0.8166 C.3     
  26 C26            4.0723   -10.4249     0.3940 C.3     
  27 C27            4.3926   -10.4693    -1.1192 C.3     
  28 O28            4.5828    -8.5910    -2.6348 O.2     
  29 C29           -6.2831     1.2255     1.3190 C.ar    
  30 C30           -6.6353     2.1813     0.3749 C.ar    
  31 C31           -7.1650     0.9090     2.3449 C.ar    
  32 C32           -8.3857     1.5493     2.4259 C.ar    
  33 C33           -8.7311     2.5044     1.4871 C.ar    
  34 C34           -7.8580     2.8180     0.4619 C.ar    
  35 C35           -6.7899    -0.1323     3.3677 C.3     
  36 C36            1.7812     4.5685     1.0019 C.2     
  37 C37            1.4070     5.8755     0.6706 C.2     
  38 C38            0.2508     5.7825    -0.0723 C.2     
  39 O39           -0.0657     4.4805    -0.1961 O.3     
  40 C40           -0.4842     6.8812    -0.6228 C.1     
  41 N41           -1.0673     7.7529    -1.0595 N.1     
  42 H42           -0.8824     2.0113    -0.4561 H       
  43 H43           -2.1051    -2.5622     0.0788 H       
  44 H44            0.0635    -3.7043    -0.0696 H       
  45 H45            2.0561     0.0947    -0.1932 H       
  46 H46           -2.5831     0.0698     2.2133 H       
  47 H47           -1.7892     1.4852     1.4811 H       
  48 H48           -3.4801    -1.4228    -1.0088 H       
  49 H49           -3.5721    -1.6312     0.7569 H       
  50 H50           -4.9490     0.5583    -0.8651 H       
  51 H51           -5.7428    -0.8571    -0.1329 H       
  52 H52           -4.0519     2.0509     2.3571 H       
  53 H53           -3.9600     2.2592     0.5913 H       
  54 H54            1.7385    -4.4313    -0.1829 H       
  55 H55            4.3516    -4.3069    -1.2472 H       
  56 H56            4.4690    -4.3131     0.5289 H       
  57 H57            3.1298    -6.3984     0.6101 H       
  58 H58            3.0123    -6.3921    -1.1660 H       
  59 H59            5.4825    -6.5332    -1.3299 H       
  60 H60            5.6000    -6.5395     0.4462 H       
  61 H61            5.7501    -9.2791     1.1764 H       
  62 H62            4.1447    -8.6065     1.5892 H       
  63 H63            4.5254   -11.2701     0.9121 H       
  64 H64            2.9965   -10.3946     0.5667 H       
  65 H65            3.5584   -10.8995    -1.6733 H       
  66 H66            5.3051   -11.0376    -1.2994 H       
  67 H67           -5.9538     2.4267    -0.4262 H       
  68 H68           -9.0717     1.3037     3.2231 H       
  69 H69           -9.6868     3.0032     1.5525 H       
  70 H70           -8.1307     3.5643    -0.2695 H       
  71 H71           -6.2774     0.3462     4.2022 H       
  72 H72           -7.6912    -0.6267     3.7301 H       
  73 H73           -6.1299    -0.8695     2.9105 H       
  74 H74            2.6438     4.2747     1.5815 H       
  75 H75            1.9248     6.7827     0.9450 H       
@<TRIPOS>BOND
   1    1    2 1
   2    1   16 am
   3    1   42 1
   4    2    3 ar
   5    2    7 ar
   6    3    4 ar
   7    3    8 1
   8    4    5 ar
   9    4   43 1
  10    5    6 ar
  11    5   44 1
  12    6    7 ar
  13    6   14 1
  14    7   45 1
  15    8    9 1
  16    8   10 1
  17    9   13 1
  18    9   46 1
  19    9   47 1
  20   10   11 1
  21   10   48 1
  22   10   49 1
  23   11   12 1
  24   11   50 1
  25   11   51 1
  26   12   13 1
  27   12   29 1
  28   13   52 1
  29   13   53 1
  30   14   15 2
  31   14   19 am
  32   16   17 2
  33   16   18 1
  34   18   36 2
  35   18   39 1
  36   19   20 1
  37   19   54 1
  38   20   21 1
  39   20   55 1
  40   20   56 1
  41   21   22 1
  42   21   57 1
  43   21   58 1
  44   22   23 1
  45   22   59 1
  46   22   60 1
  47   23   24 am
  48   23   25 1
  49   24   28 2
  50   24   27 1
  51   25   26 1
  52   25   61 1
  53   25   62 1
  54   26   27 1
  55   26   63 1
  56   26   64 1
  57   27   65 1
  58   27   66 1
  59   29   30 ar
  60   29   31 ar
  61   30   34 ar
  62   30   67 1
  63   31   32 ar
  64   31   35 1
  65   32   33 ar
  66   32   68 1
  67   33   34 ar
  68   33   69 1
  69   34   70 1
  70   35   71 1
  71   35   72 1
  72   35   73 1
  73   36   37 1
  74   36   74 1
  75   37   38 2
  76   37   75 1
  77   38   39 1
  78   38   40 1
  79   40   41 3

#	End of record

