#	Name: ASD03731409
#	Creating user name:	WinNT
#	Creation time:	15. 06. 2019 20:45

#	Modifying user name:	WinNT
#	Modification time:	15. 06. 2019 20:45

#	Program:	/corina/corina34_cracker 3.40 0067  02.08.2006

@<TRIPOS>MOLECULE
ASD03731409
  69   73    0    0    0
SMALL
NO_CHARGES


@<TRIPOS>ATOM
   1 O1             5.1193     5.0094     3.5204 O.3     
   2 C2             5.9255     3.8297     3.6980 C.3     
   3 O3             7.2341     4.3508     3.9956 O.3     
   4 C4             7.0200     5.5729     4.5662 C.ar    
   5 C5             5.7199     5.9778     4.2728 C.ar    
   6 C6             7.8428     6.3853     5.3255 C.ar    
   7 C7             7.3816     7.6098     5.7994 C.ar    
   8 C8             6.0838     8.0073     5.4928 C.ar    
   9 C9             5.2589     7.1966     4.7412 C.ar    
  10 O10            8.0150     8.5414     6.5682 O.3     
  11 C11            5.8939     9.3661     6.1121 C.3     
  12 C12            7.3259     9.8012     6.4519 C.3     
  13 N13            4.1091    10.7593     5.7998 N.am    
  14 C14            5.2236    10.3291     5.1752 C.2     
  15 C15            5.0188     9.3210     7.3295 C.ar    
  16 C16            5.0858     8.6399     8.5245 C.ar    
  17 C17            4.0980     8.8138     9.4773 C.ar    
  18 C18            3.0436     9.6730     9.2267 C.ar    
  19 C19            2.9716    10.3568     8.0310 C.ar    
  20 C20            3.9616    10.1882     7.0661 C.ar    
  21 O21            5.6094    10.6562     4.0728 O.2     
  22 C22            3.1631    11.7150     5.2185 C.3     
  23 C23            2.0878    10.9572     4.4371 C.3     
  24 C24            1.0998    11.9554     3.8301 C.3     
  25 N25            0.0674    11.2279     3.0799 N.3     
  26 C26           -0.9011    12.1563     2.4815 C.3     
  27 C27           -1.9581    11.3634     1.7103 C.3     
  28 N28           -2.9620    12.2870     1.1652 N.3     
  29 C29           -2.5490    12.7977    -0.1489 C.3     
  30 C30           -1.2304    13.5608    -0.0080 C.3     
  31 C31           -2.3596    11.6263    -1.1147 C.3     
  32 C32           -4.2815    11.6458     1.0898 C.3     
  33 C33           -4.7828    11.3429     2.5032 C.3     
  34 C34           -5.2657    12.5851     0.3899 C.3     
  35 H35            5.5526     3.2328     4.5303 H       
  36 H36            5.9476     3.2395     2.7819 H       
  37 H37            8.8496     6.0671     5.5523 H       
  38 H38            4.2510     7.5134     4.5171 H       
  39 H39            7.3515    10.3451     7.3962 H       
  40 H40            7.7496    10.4014     5.6466 H       
  41 H41            5.9099     7.9691     8.7178 H       
  42 H42            4.1499     8.2796    10.4145 H       
  43 H43            2.2727     9.8089     9.9708 H       
  44 H44            2.1446    11.0254     7.8425 H       
  45 H45            2.6942    12.2924     6.0153 H       
  46 H46            3.6942    12.3885     4.5459 H       
  47 H47            2.5567    10.3798     3.6404 H       
  48 H48            1.5567    10.2837     5.1098 H       
  49 H49            0.6310    12.5328     4.6269 H       
  50 H50            1.6309    12.6289     3.1575 H       
  51 H51            0.4819    10.6348     2.3766 H       
  52 H52           -1.3838    12.7351     3.2689 H       
  53 H53           -0.3838    12.8312     1.7996 H       
  54 H54           -1.4816    10.8214     0.8934 H       
  55 H55           -2.4430    10.6551     2.3821 H       
  56 H56           -3.3168    13.4674    -0.5361 H       
  57 H57           -0.4202    12.8553     0.1765 H       
  58 H58           -1.0298    14.1123    -0.9266 H       
  59 H59           -1.3017    14.2585     0.8264 H       
  60 H60           -3.2571    11.0077    -1.1160 H       
  61 H61           -2.1807    12.0091    -2.1195 H       
  62 H62           -1.5061    11.0275    -0.7967 H       
  63 H63           -4.2022    10.7166     0.5255 H       
  64 H64           -4.8621    12.2721     3.0675 H       
  65 H65           -5.7619    10.8671     2.4473 H       
  66 H66           -4.0816    10.6737     3.0018 H       
  67 H67           -4.9740    12.7053    -0.6534 H       
  68 H68           -6.2693    12.1628     0.4402 H       
  69 H69           -5.2551    13.5565     0.8844 H       
@<TRIPOS>BOND
   1    1    2 1
   2    1    5 1
   3    2    3 1
   4    2   35 1
   5    2   36 1
   6    3    4 1
   7    4    5 ar
   8    4    6 ar
   9    5    9 ar
  10    6    7 ar
  11    6   37 1
  12    7    8 ar
  13    7   10 1
  14    8    9 ar
  15    8   11 1
  16    9   38 1
  17   10   12 1
  18   11   12 1
  19   11   14 1
  20   11   15 1
  21   12   39 1
  22   12   40 1
  23   13   14 am
  24   13   20 1
  25   13   22 1
  26   14   21 2
  27   15   16 ar
  28   15   20 ar
  29   16   17 ar
  30   16   41 1
  31   17   18 ar
  32   17   42 1
  33   18   19 ar
  34   18   43 1
  35   19   20 ar
  36   19   44 1
  37   22   23 1
  38   22   45 1
  39   22   46 1
  40   23   24 1
  41   23   47 1
  42   23   48 1
  43   24   25 1
  44   24   49 1
  45   24   50 1
  46   25   26 1
  47   25   51 1
  48   26   27 1
  49   26   52 1
  50   26   53 1
  51   27   28 1
  52   27   54 1
  53   27   55 1
  54   28   29 1
  55   28   32 1
  56   29   30 1
  57   29   31 1
  58   29   56 1
  59   30   57 1
  60   30   58 1
  61   30   59 1
  62   31   60 1
  63   31   61 1
  64   31   62 1
  65   32   33 1
  66   32   34 1
  67   32   63 1
  68   33   64 1
  69   33   65 1
  70   33   66 1
  71   34   67 1
  72   34   68 1
  73   34   69 1

#	End of record

