#	Name: ASD01941002
#	Creating user name:	WinNT
#	Creation time:	15. 06. 2019 20:13

#	Modifying user name:	WinNT
#	Modification time:	15. 06. 2019 20:13

#	Program:	/corina/corina34_cracker 3.40 0067  02.08.2006

@<TRIPOS>MOLECULE
ASD01941002
  49   50    0    0    0
SMALL
NO_CHARGES


@<TRIPOS>ATOM
   1 C1             0.3802     0.6207     1.0701 C.ar    
   2 C2             0.0092    -0.0183    -0.1093 C.ar    
   3 C3             0.8662     0.0046    -1.2198 C.ar    
   4 C4             2.0789     0.6603    -1.1476 C.ar    
   5 C5             2.4578     1.3023     0.0274 C.ar    
   6 C6             1.6048     1.2834     1.1444 C.ar    
   7 F7             0.5039    -0.6173    -2.3631 F       
   8 F8             2.9000     0.6785    -2.2203 F       
   9 N9             3.6778     1.9602     0.0967 N.pl3   
  10 C10            4.7963     1.3048     0.6173 C.ar    
  11 C11            4.6599     0.0425     1.1820 C.ar    
  12 C12            5.7617    -0.6072     1.6967 C.ar    
  13 C13            7.0159     0.0033     1.6502 C.ar    
  14 C14            7.1517     1.2717     1.0820 C.ar    
  15 C15            6.0470     1.9153     0.5642 C.ar    
  16 F16            6.1766     3.1424     0.0141 F       
  17 C17            8.1614    -0.6697     2.1847 C.1     
  18 C18            2.0031     1.9628     2.3901 C.2     
  19 O19            3.0748     2.5339     2.4553 O.2     
  20 N20            1.1796     1.9511     3.4570 N.am    
  21 O21            1.5623     2.6039     4.6538 O.3     
  22 C22            0.5947     2.5113     5.7013 C.3     
  23 C23            1.1110     3.2478     6.9391 C.3     
  24 O24            1.2238     4.6428     6.6507 O.3     
  25 C25           -1.2850    -0.7201    -0.1915 C.2     
  26 N26           -1.6303    -1.3145    -1.2883 N.2     
  27 O27           -2.8732    -1.9884    -1.3672 O.3     
  28 C28           -3.1240    -2.5985    -2.6349 C.3     
  29 C29           -4.4867    -3.2936    -2.6056 C.3     
  30 O30           -5.5167    -2.3160    -2.4462 O.3     
  31 C31            9.1005    -1.2214     2.6229 C.1     
  32 H32           -0.2806     0.6071     1.9242 H       
  33 H33            3.7539     2.8751    -0.2164 H       
  34 H34            3.6895    -0.4302     1.2180 H       
  35 H35            5.6541    -1.5880     2.1359 H       
  36 H36            8.1210     1.7466     1.0447 H       
  37 H37            0.3249     1.4955     3.4049 H       
  38 H38           -0.3407     2.9642     5.3729 H       
  39 H39            0.4244     1.4631     5.9470 H       
  40 H40            0.4147     3.1026     7.7650 H       
  41 H41            2.0891     2.8536     7.2148 H       
  42 H42            1.5463     5.1729     7.3924 H       
  43 H43           -1.9448    -0.7382     0.6633 H       
  44 H44           -3.1224    -1.8347    -3.4124 H       
  45 H45           -2.3461    -3.3326    -2.8450 H       
  46 H46           -4.6394    -3.8332    -3.5403 H       
  47 H47           -4.5191    -3.9948    -1.7718 H       
  48 H48           -6.4096    -2.6863    -2.4192 H       
  49 H49            9.9404    -1.7148     3.0148 H       
@<TRIPOS>BOND
   1    1    2 ar
   2    1    6 ar
   3    1   32 1
   4    2    3 ar
   5    2   25 1
   6    3    4 ar
   7    3    7 1
   8    4    5 ar
   9    4    8 1
  10    5    6 ar
  11    5    9 1
  12    6   18 1
  13    9   10 1
  14    9   33 1
  15   10   11 ar
  16   10   15 ar
  17   11   12 ar
  18   11   34 1
  19   12   13 ar
  20   12   35 1
  21   13   14 ar
  22   13   17 1
  23   14   15 ar
  24   14   36 1
  25   15   16 1
  26   17   31 3
  27   18   19 2
  28   18   20 am
  29   20   21 1
  30   20   37 1
  31   21   22 1
  32   22   23 1
  33   22   38 1
  34   22   39 1
  35   23   24 1
  36   23   40 1
  37   23   41 1
  38   24   42 1
  39   25   26 2
  40   25   43 1
  41   26   27 1
  42   27   28 1
  43   28   29 1
  44   28   44 1
  45   28   45 1
  46   29   30 1
  47   29   46 1
  48   29   47 1
  49   30   48 1
  50   31   49 1

#	End of record

