#	Name: ASD05490018
#	Creating user name:	WinNT
#	Creation time:	15. 06. 2019 21:00

#	Modifying user name:	WinNT
#	Modification time:	15. 06. 2019 21:00

#	Program:	/corina/corina34_cracker 3.40 0067  02.08.2006

@<TRIPOS>MOLECULE
ASD05490018
  67   71    0    0    0
SMALL
NO_CHARGES


@<TRIPOS>ATOM
   1 N1            -0.0178     1.4608     0.0101 N.am    
   2 O2             4.5863     2.8161    -0.0262 O.3     
   3 N3             2.8511     4.3368    -0.0011 N.ar    
   4 C4             1.5540     4.6376     0.0125 C.ar    
   5 C5             3.2565     3.0770    -0.0125 C.ar    
   6 N6             2.4054     2.0644    -0.0098 N.ar    
   7 C7             1.0946     2.2826     0.0039 C.ar    
   8 C8             0.6266     3.5971     0.0154 C.ar    
   9 N9             1.1342     5.9598     0.0241 N.pl3   
  10 C10           -1.1223     2.2312     0.0189 C.2     
  11 N11           -0.7663     3.5310     0.0284 N.am    
  12 C12            5.4681     3.9405    -0.0273 C.3     
  13 C13            6.9178     3.4518    -0.0435 C.3     
  14 C14            7.8620     4.6557    -0.0447 C.3     
  15 C15            9.3117     4.1669    -0.0609 C.3     
  16 O16           -2.2665     1.8171     0.0260 O.2     
  17 C17            0.0021    -0.0041     0.0020 C.3     
  18 C18            0.0225    -0.5140     1.4200 C.ar    
  19 C19           -1.1674    -0.7635     2.0797 C.ar    
  20 C20           -1.1546    -1.2305     3.3784 C.ar    
  21 C21            0.0599    -1.4511     4.0247 C.ar    
  22 C22            1.2555    -1.1986     3.3552 C.ar    
  23 C23            1.2310    -0.7362     2.0550 C.ar    
  24 C24            0.0800    -1.9528     5.4211 C.ar    
  25 C25            1.2945    -2.1734     6.0675 C.ar    
  26 C26           -1.1157    -2.1995     6.0927 C.ar    
  27 C27           -1.0912    -2.6661     7.3914 C.ar    
  28 C28            0.1174    -2.8883     8.0264 C.ar    
  29 C29            1.3073    -2.6401     7.3663 C.ar    
  30 C30            0.1377    -3.3969     9.4449 C.3     
  31 N31            0.1502    -4.8658     9.4383 N.3     
  32 C32            0.4091    -5.3981    10.7887 C.3     
  33 C33           -0.7690    -6.3282    11.1471 C.3     
  34 C34           -1.3431    -6.7157     9.7589 C.3     
  35 C35           -1.1406    -5.4045     8.9594 C.3     
  36 H36            1.7881     6.6762     0.0223 H       
  37 H37            0.1868     6.1678     0.0340 H       
  38 H38           -1.3727     4.2880     0.0359 H       
  39 H39            5.2799     4.5490    -0.9119 H       
  40 H40            5.2961     4.5380     0.8679 H       
  41 H41            7.1060     2.8433     0.8411 H       
  42 H42            7.0899     2.8543    -0.9388 H       
  43 H43            7.6738     5.2642    -0.9293 H       
  44 H44            7.6900     5.2532     0.8506 H       
  45 H45            9.4999     3.5585     0.8237 H       
  46 H46            9.4837     3.5694    -0.9562 H       
  47 H47            9.9843     5.0247    -0.0617 H       
  48 H48           -0.8878    -0.3767    -0.5053 H       
  49 H49            0.8920    -0.3525    -0.5222 H       
  50 H50           -2.1082    -0.5921     1.5778 H       
  51 H51           -2.0843    -1.4243     3.8928 H       
  52 H52            2.1997    -1.3679     3.8515 H       
  53 H53            2.1571    -0.5405     1.5350 H       
  54 H54            2.2241    -1.9799     5.5529 H       
  55 H55           -2.0599    -2.0256     5.5980 H       
  56 H56           -2.0173    -2.8576     7.9129 H       
  57 H57            2.2481    -2.8154     7.8668 H       
  58 H58            1.0303    -3.0282     9.9503 H       
  59 H59           -0.7494    -3.0434     9.9704 H       
  60 H60            1.3415    -5.9625    10.7924 H       
  61 H61            0.4661    -4.5789    11.5055 H       
  62 H62           -0.4147    -7.2118    11.6780 H       
  63 H63           -1.5146    -5.7957    11.7375 H       
  64 H64           -0.7757    -7.5344     9.3164 H       
  65 H65           -2.4006    -6.9698     9.8309 H       
  66 H66           -1.9469    -4.7024     9.1715 H       
  67 H67           -1.0910    -5.6152     7.8911 H       
@<TRIPOS>BOND
   1    1   17 1
   2    1    7 1
   3    1   10 am
   4    2   12 1
   5    2    5 1
   6    3    4 ar
   7    3    5 ar
   8    4    9 1
   9    4    8 ar
  10    5    6 ar
  11    6    7 ar
  12    7    8 ar
  13    8   11 1
  14    9   36 1
  15    9   37 1
  16   10   11 am
  17   10   16 2
  18   11   38 1
  19   12   13 1
  20   12   39 1
  21   12   40 1
  22   13   14 1
  23   13   41 1
  24   13   42 1
  25   14   15 1
  26   14   43 1
  27   14   44 1
  28   15   45 1
  29   15   46 1
  30   15   47 1
  31   17   18 1
  32   17   48 1
  33   17   49 1
  34   18   19 ar
  35   18   23 ar
  36   19   20 ar
  37   19   50 1
  38   20   21 ar
  39   20   51 1
  40   21   22 ar
  41   21   24 1
  42   22   23 ar
  43   22   52 1
  44   23   53 1
  45   24   25 ar
  46   24   26 ar
  47   25   29 ar
  48   25   54 1
  49   26   27 ar
  50   26   55 1
  51   27   28 ar
  52   27   56 1
  53   28   29 ar
  54   28   30 1
  55   29   57 1
  56   30   31 1
  57   30   58 1
  58   30   59 1
  59   31   32 1
  60   31   35 1
  61   32   33 1
  62   32   60 1
  63   32   61 1
  64   33   34 1
  65   33   62 1
  66   33   63 1
  67   34   35 1
  68   34   64 1
  69   34   65 1
  70   35   66 1
  71   35   67 1

#	End of record

