#	Name: ASD03331824
#	Creating user name:	WinNT
#	Creation time:	15. 06. 2019 20:39

#	Modifying user name:	WinNT
#	Modification time:	15. 06. 2019 20:39

#	Program:	/corina/corina34_cracker 3.40 0067  02.08.2006

@<TRIPOS>MOLECULE
ASD03331824
  64   66    0    0    0
SMALL
NO_CHARGES


@<TRIPOS>ATOM
   1 C1            -0.0142     1.4478    -0.8251 C.2     
   2 N2             0.0098     0.1426    -1.2023 N.pl3   
   3 C3            -1.2795    -0.2660    -1.3486 C.2     
   4 N4            -2.0719     0.7486    -1.0751 N.2     
   5 C5            -1.3164     1.8205    -0.7451 C.2     
   6 C6             1.2244     2.2633    -0.5568 C.3     
   7 N7             2.3582     1.3335    -0.4059 N.3     
   8 C8             2.4085     0.3734    -1.5175 C.3     
   9 C9             1.2457    -0.6203    -1.3986 C.3     
  10 C10           -1.8173     3.1553    -0.3720 C.2     
  11 O11           -1.0338     4.0430    -0.0942 O.2     
  12 N12           -3.1437     3.3923    -0.3388 N.am    
  13 C13           -3.6416     4.7192     0.0321 C.3     
  14 C14           -3.7335     4.8219     1.5559 C.3     
  15 C15           -5.0075     4.9292    -0.5688 C.2     
  16 C16           -2.3328     4.7050     2.1603 C.3     
  17 C17           -4.3438     6.1712     1.9402 C.3     
  18 C18           -1.7150    -1.6155    -1.7464 C.2     
  19 C19           -3.4558    -3.2715    -2.2614 C.3     
  20 C20           -3.0102    -1.8906    -1.8544 C.2     
  21 O21           -5.6151     3.9897    -1.0368 O.2     
  22 C22           -4.6157     3.6921     2.0909 C.3     
  23 C23            3.6263     2.0650    -0.2843 C.3     
  24 N24           -5.5540     6.1611    -0.5861 N.am    
  25 N25           -4.3836    -3.8033    -1.2543 N.3     
  26 C26           -5.0220    -5.0403    -1.7272 C.3     
  27 C27           -5.9327    -5.5911    -0.6267 C.3     
  28 O28           -6.8899    -4.5927    -0.2629 O.3     
  29 C29           -6.3027    -3.3747     0.2028 C.3     
  30 C30           -5.3957    -2.8015    -0.8892 C.3     
  31 H31            1.4097     2.9378    -1.3928 H       
  32 H32            1.0953     2.8387     0.3599 H       
  33 H33            2.3315     0.9097    -2.4633 H       
  34 H34            3.3534    -0.1690    -1.4854 H       
  35 H35            1.4107    -1.2789    -0.5459 H       
  36 H36            1.1721    -1.2111    -2.3116 H       
  37 H37           -3.7686     2.6843    -0.5604 H       
  38 H38           -2.9586     5.4815    -0.3429 H       
  39 H39           -1.7043     5.5099     1.7792 H       
  40 H40           -2.3983     4.7782     3.2459 H       
  41 H41           -1.8980     3.7438     1.8865 H       
  42 H42           -5.2930     6.3019     1.4205 H       
  43 H43           -4.5121     6.2004     3.0168 H       
  44 H44           -3.6613     6.9726     1.6573 H       
  45 H45           -0.9814    -2.3815    -1.9502 H       
  46 H46           -3.9580    -3.2212    -3.2275 H       
  47 H47           -2.5874    -3.9260    -2.3370 H       
  48 H48           -3.7438    -1.1247    -1.6506 H       
  49 H49           -4.1809     2.7309     1.8171 H       
  50 H50           -4.6812     3.7653     3.1765 H       
  51 H51           -5.6136     3.7754     1.6603 H       
  52 H52            3.5885     2.7148     0.5900 H       
  53 H53            4.4461     1.3551    -0.1742 H       
  54 H54            3.7852     2.6678    -1.1784 H       
  55 H55           -5.0393     6.9244    -0.2805 H       
  56 H56           -6.4620     6.2845    -0.9042 H       
  57 H57           -5.6143    -4.8271    -2.6170 H       
  58 H58           -4.2552    -5.7768    -1.9675 H       
  59 H59           -6.4519    -6.4767    -0.9932 H       
  60 H60           -5.3327    -5.8546     0.2444 H       
  61 H61           -7.0895    -2.6573     0.4363 H       
  62 H62           -5.7135    -3.5737     1.0980 H       
  63 H63           -4.9017    -1.9036    -0.5179 H       
  64 H64           -5.9940    -2.5524    -1.7657 H       
@<TRIPOS>BOND
   1    1    2 1
   2    1    6 1
   3    1    5 2
   4    2    3 1
   5    2    9 1
   6    3    4 2
   7    3   18 1
   8    4    5 1
   9    5   10 1
  10    6    7 1
  11    6   31 1
  12    6   32 1
  13    7    8 1
  14    7   23 1
  15    8    9 1
  16    8   33 1
  17    8   34 1
  18    9   35 1
  19    9   36 1
  20   10   11 2
  21   10   12 am
  22   12   13 1
  23   12   37 1
  24   13   14 1
  25   13   15 1
  26   13   38 1
  27   14   16 1
  28   14   17 1
  29   14   22 1
  30   15   21 2
  31   15   24 am
  32   16   39 1
  33   16   40 1
  34   16   41 1
  35   17   42 1
  36   17   43 1
  37   17   44 1
  38   18   20 2
  39   18   45 1
  40   19   20 1
  41   19   25 1
  42   19   46 1
  43   19   47 1
  44   20   48 1
  45   22   49 1
  46   22   50 1
  47   22   51 1
  48   23   52 1
  49   23   53 1
  50   23   54 1
  51   24   55 1
  52   24   56 1
  53   25   26 1
  54   25   30 1
  55   26   27 1
  56   26   57 1
  57   26   58 1
  58   27   28 1
  59   27   59 1
  60   27   60 1
  61   28   29 1
  62   29   30 1
  63   29   61 1
  64   29   62 1
  65   30   63 1
  66   30   64 1

#	End of record

