#	Name: ASD01890093
#	Creating user name:	WinNT
#	Creation time:	15. 06. 2019 19:50

#	Modifying user name:	WinNT
#	Modification time:	15. 06. 2019 19:50

#	Program:	/corina/corina34_cracker 3.40 0067  02.08.2006

@<TRIPOS>MOLECULE
ASD01890093
  50   52    0    0    0
SMALL
NO_CHARGES


@<TRIPOS>ATOM
   1 C1             1.3873     0.1716     0.0648 C.2     
   2 C2            -0.0990    -0.0648     0.1429 C.3     
   3 C3            -0.6001    -0.5578    -1.1901 C.2     
   4 O4             2.0137    -0.2302    -0.8871 O.2     
   5 O5             2.0143     0.8334     1.0500 O.3     
   6 O6             0.1659    -1.0707    -1.9713 O.2     
   7 O7            -1.8972    -0.4273    -1.5095 O.3     
   8 C8            -0.3929    -1.1133     1.2178 C.3     
   9 C9            -1.9061    -1.2918     1.3559 C.3     
  10 C10           -2.5156    -0.0197     1.8865 C.2     
  11 C11            0.2339    -2.4259     0.8237 C.ar    
  12 C12            1.1813    -3.0126     1.6417 C.ar    
  13 C13            1.7562    -4.2166     1.2802 C.ar    
  14 C14            1.3834    -4.8341     0.1010 C.ar    
  15 C15            0.4354    -4.2479    -0.7165 C.ar    
  16 C16           -0.1427    -3.0460    -0.3529 C.ar    
  17 C17           -3.9660     0.0661     2.1000 C.ar    
  18 C18           -4.5349     1.2471     2.5930 C.ar    
  19 C19           -5.8896     1.3223     2.7902 C.ar    
  20 C20           -6.6987     0.2281     2.5018 C.ar    
  21 C21           -6.1386    -0.9472     2.0120 C.ar    
  22 C22           -4.7856    -1.0307     1.8059 C.ar    
  23 O23           -8.0383     0.3073     2.6994 O.3     
  24 C24           -8.7800     0.9799     1.7808 C.ar    
  25 C25           -8.1811     1.4735     0.6305 C.ar    
  26 C26           -8.9374     2.1564    -0.3020 C.ar    
  27 C27          -10.2902     2.3487    -0.0899 C.ar    
  28 C28          -10.8895     1.8579     1.0555 C.ar    
  29 C29          -10.1389     1.1693     1.9885 C.ar    
  30 O30           -1.8082     0.9331     2.1372 O.2     
  31 H31           -0.6023     0.8678     0.3979 H       
  32 H32            2.9776     0.8957     0.9931 H       
  33 H33           -2.1715    -0.7585    -2.3757 H       
  34 H34            0.0226    -0.7837     2.1701 H       
  35 H35           -2.3355    -1.5211     0.3806 H       
  36 H36           -2.1140    -2.1096     2.0458 H       
  37 H37            1.4726    -2.5301     2.5630 H       
  38 H38            2.4970    -4.6746     1.9189 H       
  39 H39            1.8331    -5.7745    -0.1818 H       
  40 H40            0.1443    -4.7302    -1.6380 H       
  41 H41           -0.8861    -2.5898    -0.9898 H       
  42 H42           -3.9075     2.0969     2.8179 H       
  43 H43           -6.3293     2.2326     3.1703 H       
  44 H44           -6.7710    -1.7940     1.7900 H       
  45 H45           -4.3523    -1.9421     1.4213 H       
  46 H46           -7.1244     1.3242     0.4647 H       
  47 H47           -8.4717     2.5408    -1.1974 H       
  48 H48          -10.8796     2.8836    -0.8199 H       
  49 H49          -11.9463     2.0095     1.2188 H       
  50 H50          -10.6083     0.7822     2.8807 H       
@<TRIPOS>BOND
   1    1    2 1
   2    1    4 2
   3    1    5 1
   4    2    3 1
   5    2    8 1
   6    2   31 1
   7    3    6 2
   8    3    7 1
   9    5   32 1
  10    7   33 1
  11    8    9 1
  12    8   11 1
  13    8   34 1
  14    9   10 1
  15    9   35 1
  16    9   36 1
  17   10   17 1
  18   10   30 2
  19   11   12 ar
  20   11   16 ar
  21   12   13 ar
  22   12   37 1
  23   13   14 ar
  24   13   38 1
  25   14   15 ar
  26   14   39 1
  27   15   16 ar
  28   15   40 1
  29   16   41 1
  30   17   18 ar
  31   17   22 ar
  32   18   19 ar
  33   18   42 1
  34   19   20 ar
  35   19   43 1
  36   20   21 ar
  37   20   23 1
  38   21   22 ar
  39   21   44 1
  40   22   45 1
  41   23   24 1
  42   24   25 ar
  43   24   29 ar
  44   25   26 ar
  45   25   46 1
  46   26   27 ar
  47   26   47 1
  48   27   28 ar
  49   27   48 1
  50   28   29 ar
  51   28   49 1
  52   29   50 1

#	End of record

