#	Name: ASD01913576
#	Creating user name:	WinNT
#	Creation time:	15. 06. 2019 20:01

#	Modifying user name:	WinNT
#	Modification time:	15. 06. 2019 20:01

#	Program:	/corina/corina34_cracker 3.40 0067  02.08.2006

@<TRIPOS>MOLECULE
ASD01913576
  40   42    0    0    0
SMALL
NO_CHARGES


@<TRIPOS>ATOM
   1 C1            -0.1226     1.3549    -0.8777 C.ar    
   2 C2            -0.1845    -0.0358    -0.9214 C.ar    
   3 C3             0.4362    -0.6903    -1.9826 C.ar    
   4 N4             1.0572     0.0273    -2.9038 N.ar    
   5 C5             1.0933     1.3425    -2.8266 C.ar    
   6 N6             0.5186     1.9989    -1.8387 N.ar    
   7 C7            -0.9135    -2.1452     0.0054 C.ar    
   8 C8             0.2309    -2.9210     0.1829 C.ar    
   9 C9             0.1312    -4.2984     0.1137 C.ar    
  10 N10           -1.0250    -4.8836    -0.1171 N.ar    
  11 C11           -2.1414    -4.1847    -0.2925 C.ar    
  12 C12           -2.1234    -2.7957    -0.2371 C.ar    
  13 C13           -3.4172    -4.8922    -0.5495 C.2     
  14 N14           -3.4419    -6.2387    -0.6045 N.am    
  15 N15           -0.8515    -0.7558     0.0741 N.pl3   
  16 O16           -4.4416    -4.2587    -0.7107 O.2     
  17 C17           -4.6560    -6.9081    -0.7410 C.ar    
  18 C18           -4.6874    -8.2967    -0.6814 C.ar    
  19 C19           -5.9002    -8.9490    -0.8180 C.ar    
  20 C20           -7.0441    -8.1868    -1.0104 C.ar    
  21 C21           -6.9393    -6.8105    -1.0594 C.ar    
  22 N22           -5.7701    -6.2158    -0.9209 N.ar    
  23 C23           -1.4854    -0.0485     1.1895 C.3     
  24 C24           -8.1775    -5.9772    -1.2680 C.3     
  25 H25           -0.5949     1.8996    -0.0736 H       
  26 H26            0.4109    -1.7678    -2.0522 H       
  27 H27            1.6093     1.8987    -3.5952 H       
  28 H28            1.1849    -2.4515     0.3721 H       
  29 H29            1.0154    -4.9032     0.2507 H       
  30 H30           -3.0317    -2.2293    -0.3799 H       
  31 H31           -2.6143    -6.7416    -0.5490 H       
  32 H32           -3.7775    -8.8587    -0.5307 H       
  33 H33           -5.9553   -10.0268    -0.7763 H       
  34 H34           -8.0062    -8.6650    -1.1210 H       
  35 H35           -2.5158     0.1924     0.9284 H       
  36 H36           -1.4740    -0.6833     2.0756 H       
  37 H37           -0.9379     0.8714     1.3945 H       
  38 H38           -8.6159    -5.7294    -0.3013 H       
  39 H39           -7.9135    -5.0593    -1.7932 H       
  40 H40           -8.8988    -6.5401    -1.8604 H       
@<TRIPOS>BOND
   1    1    2 ar
   2    1    6 ar
   3    1   25 1
   4    2    3 ar
   5    2   15 1
   6    3    4 ar
   7    3   26 1
   8    4    5 ar
   9    5    6 ar
  10    5   27 1
  11    7    8 ar
  12    7   12 ar
  13    7   15 1
  14    8    9 ar
  15    8   28 1
  16    9   10 ar
  17    9   29 1
  18   10   11 ar
  19   11   12 ar
  20   11   13 1
  21   12   30 1
  22   13   14 am
  23   13   16 2
  24   14   17 1
  25   14   31 1
  26   15   23 1
  27   17   18 ar
  28   17   22 ar
  29   18   19 ar
  30   18   32 1
  31   19   20 ar
  32   19   33 1
  33   20   21 ar
  34   20   34 1
  35   21   22 ar
  36   21   24 1
  37   23   35 1
  38   23   36 1
  39   23   37 1
  40   24   38 1
  41   24   39 1
  42   24   40 1

#	End of record

