#	Name: ASD01870096
#	Creating user name:	WinNT
#	Creation time:	15. 06. 2019 19:38

#	Modifying user name:	WinNT
#	Modification time:	15. 06. 2019 19:38

#	Program:	/corina/corina34_cracker 3.40 0067  02.08.2006

@<TRIPOS>MOLECULE
ASD01870096
  29   30    0    0    0
SMALL
NO_CHARGES


@<TRIPOS>ATOM
   1 C1            -0.0191     1.4688     0.0348 C.2     
   2 C2            -0.0017    -0.0061     0.0397 C.ar    
   3 C3             1.2183    -0.6967     0.0501 C.ar    
   4 C4             1.2227    -2.0833     0.0545 C.ar    
   5 C5             0.0300    -2.7795     0.0483 C.ar    
   6 C6            -1.1774    -2.1009     0.0381 C.ar    
   7 C7            -1.2006    -0.7228     0.0398 C.ar    
   8 O8             1.0267     2.0893     0.0398 O.2     
   9 N9            -1.1941     2.1288     0.0193 N.am    
  10 O10            2.3891    -0.0116     0.0552 O.3     
  11 C11           -1.2149     3.5231     0.1326 C.ar    
  12 C12           -2.1872     4.2617    -0.5320 C.ar    
  13 C13           -2.2043     5.6387    -0.4177 C.ar    
  14 C14           -1.2556     6.2814     0.3567 C.ar    
  15 C15           -0.2873     5.5493     1.0184 C.ar    
  16 C16           -0.2680     4.1719     0.9135 C.ar    
  17 N17           -1.2768     7.7566     0.4771 N.pl3   
  18 O18           -2.1291     8.4030    -0.1055 O.2     
  19 O19           -0.4420     8.3241     1.1587 O.2     
  20 Cl20          -3.3777     3.4553    -1.5046 Cl      
  21 H21            2.1602    -2.6196     0.0625 H       
  22 H22            0.0388    -3.8595     0.0511 H       
  23 H23           -2.1049    -2.6542     0.0333 H       
  24 H24           -2.1444    -0.1979     0.0363 H       
  25 H25           -2.0254     1.6371    -0.0704 H       
  26 H26            2.7228     0.1902     0.9401 H       
  27 H27           -2.9590     6.2135    -0.9338 H       
  28 H28            0.4522     6.0546     1.6219 H       
  29 H29            0.4860     3.6006     1.4346 H       
@<TRIPOS>BOND
   1    1    2 1
   2    1    8 2
   3    1    9 am
   4    2    3 ar
   5    2    7 ar
   6    3    4 ar
   7    3   10 1
   8    4    5 ar
   9    4   21 1
  10    5    6 ar
  11    5   22 1
  12    6    7 ar
  13    6   23 1
  14    7   24 1
  15    9   11 1
  16    9   25 1
  17   10   26 1
  18   11   12 ar
  19   11   16 ar
  20   12   13 ar
  21   12   20 1
  22   13   14 ar
  23   13   27 1
  24   14   15 ar
  25   14   17 1
  26   15   16 ar
  27   15   28 1
  28   16   29 1
  29   17   18 2
  30   17   19 2

#	End of record

