#	Name: ASD01912474
#	Creating user name:	WinNT
#	Creation time:	15. 06. 2019 19:59

#	Modifying user name:	WinNT
#	Modification time:	15. 06. 2019 19:59

#	Program:	/corina/corina34_cracker 3.40 0067  02.08.2006

@<TRIPOS>MOLECULE
ASD01912474
  31   32    0    0    0
SMALL
NO_CHARGES


@<TRIPOS>ATOM
   1 C1            -0.0167     1.3798     0.0096 C.ar    
   2 C2             0.0021    -0.0041     0.0020 C.ar    
   3 C3             1.2058    -0.6870    -0.0131 C.ar    
   4 C4             2.3968     0.0078    -0.0203 C.ar    
   5 C5             2.3862     1.4062    -0.0127 C.ar    
   6 C6             1.1658     2.0890     0.0021 C.ar    
   7 C7             3.6529     2.1555    -0.0202 C.2     
   8 C8             3.6370     3.6624    -0.0120 C.3     
   9 O9             4.7092     1.5604    -0.0331 O.2     
  10 C10            5.0524     4.1797    -0.0222 C.2     
  11 C11            5.3067     5.6331    -0.0167 C.ar    
  12 O12            5.9819     3.4018    -0.0348 O.2     
  13 N13            4.2836     6.4815    -0.0028 N.ar    
  14 C14            6.6192     6.1061    -0.0203 C.ar    
  15 C15            6.8414     7.4742    -0.0146 C.ar    
  16 C16            5.7453     8.3222    -0.0055 C.ar    
  17 C17            4.4675     7.7828     0.0030 C.ar    
  18 C18            5.9400     9.8166     0.0015 C.3     
  19 H19           -0.9600     1.9056     0.0169 H       
  20 H20           -0.9275    -0.5539     0.0083 H       
  21 H21            1.2122    -1.7670    -0.0190 H       
  22 H22            3.3353    -0.5266    -0.0314 H       
  23 H23            1.1495     3.1689     0.0077 H       
  24 H24            3.1113     4.0250    -0.8953 H       
  25 H25            3.1276     4.0155     0.8846 H       
  26 H26            7.4501     5.4162    -0.0271 H       
  27 H27            7.8461     7.8705    -0.0169 H       
  28 H28            3.6116     8.4414     0.0101 H       
  29 H29            5.9825    10.1822    -1.0245 H       
  30 H30            5.1066    10.2891     0.5214 H       
  31 H31            6.8716    10.0592     0.5126 H       
@<TRIPOS>BOND
   1    1    2 ar
   2    1    6 ar
   3    1   19 1
   4    2    3 ar
   5    2   20 1
   6    3    4 ar
   7    3   21 1
   8    4    5 ar
   9    4   22 1
  10    5    6 ar
  11    5    7 1
  12    6   23 1
  13    7    8 1
  14    7    9 2
  15    8   10 1
  16    8   24 1
  17    8   25 1
  18   10   11 1
  19   10   12 2
  20   11   13 ar
  21   11   14 ar
  22   13   17 ar
  23   14   15 ar
  24   14   26 1
  25   15   16 ar
  26   15   27 1
  27   16   17 ar
  28   16   18 1
  29   17   28 1
  30   18   29 1
  31   18   30 1
  32   18   31 1

#	End of record

