#	Name: ASD01810897
#	Creating user name:	WinNT
#	Creation time:	15. 06. 2019 19:25

#	Modifying user name:	WinNT
#	Modification time:	15. 06. 2019 19:25

#	Program:	/corina/corina34_cracker 3.40 0067  02.08.2006

@<TRIPOS>MOLECULE
ASD01810897
  56   60    0    0    0
SMALL
NO_CHARGES


@<TRIPOS>ATOM
   1 C1            -0.0163     1.3503     0.0095 C.ar    
   2 C2             0.0021    -0.0041     0.0020 C.ar    
   3 C3             1.2131    -0.7153    -0.0130 C.ar    
   4 C4             2.4403    -0.0265    -0.0211 C.ar    
   5 C5             2.4296     1.4349    -0.0140 C.ar    
   6 N6             3.5586     2.1387    -0.0207 N.ar    
   7 C7             3.5458     3.4516    -0.0139 C.ar    
   8 C8             2.3532     4.1681     0.0010 C.ar    
   9 C9             1.1583     3.5034     0.0084 C.ar    
  10 C10            1.1789     2.0975     0.0021 C.ar    
  11 C11           -1.3393     2.0718     0.0196 C.3     
  12 C12           -1.7277     2.4287    -1.3921 C.ar    
  13 C13           -2.4802     1.5480    -2.1564 C.ar    
  14 C14           -2.8155     1.9154    -3.4482 C.ar    
  15 C15           -2.3904     3.1454    -3.9328 C.ar    
  16 N16           -1.6743     3.9580    -3.1735 N.ar    
  17 C17           -1.3436     3.6380    -1.9370 C.ar    
  18 C18            1.2424    -2.1816    -0.0201 C.2     
  19 N19            2.4369    -2.8085    -0.0341 N.am    
  20 C20            3.6083    -2.1118    -0.0413 C.2     
  21 C21            3.6433    -0.7662    -0.0352 C.2     
  22 O22            0.2061    -2.8224    -0.0131 O.2     
  23 C23            2.4759    -4.2730    -0.0414 C.3     
  24 C24            3.2219    -4.7694     1.1987 C.3     
  25 C25            3.2626    -6.2989     1.1911 C.3     
  26 C26            3.9856    -6.7836    -0.0671 C.3     
  27 C27            3.2395    -6.2871    -1.3072 C.3     
  28 C28            3.1988    -4.7577    -1.2997 C.3     
  29 O29            2.5467    -4.3167     2.3739 O.3     
  30 O30           -2.7121     3.5170    -5.1974 O.3     
  31 C31           -2.2452     4.7939    -5.6371 C.3     
  32 H32           -0.9315    -0.5470     0.0081 H       
  33 H33            4.4831     3.9880    -0.0196 H       
  34 H34            2.3713     5.2479     0.0070 H       
  35 H35            0.2233     4.0439     0.0203 H       
  36 H36           -2.1022     1.4257     0.4540 H       
  37 H37           -1.2525     2.9816     0.6136 H       
  38 H38           -2.7965     0.5975    -1.7528 H       
  39 H39           -3.3998     1.2541    -4.0709 H       
  40 H40           -0.7614     4.3287    -1.3450 H       
  41 H41            4.5400    -2.6579    -0.0521 H       
  42 H42            4.5928    -0.2514    -0.0416 H       
  43 H43            1.4583    -4.6635    -0.0338 H       
  44 H44            4.2395    -4.3789     1.1911 H       
  45 H45            3.7941    -6.6526     2.0746 H       
  46 H46            2.2450    -6.6894     1.1987 H       
  47 H47            5.0032    -6.3930    -0.0747 H       
  48 H48            4.0145    -7.8732    -0.0725 H       
  49 H49            3.7545    -6.6325    -2.2036 H       
  50 H50            2.2219    -6.6777    -1.2996 H       
  51 H51            2.6673    -4.4040    -2.1831 H       
  52 H52            4.2164    -4.3671    -1.3072 H       
  53 H53            2.9654    -4.5951     3.1999 H       
  54 H54           -2.5711     4.9666    -6.6628 H       
  55 H55           -2.6519     5.5718    -4.9908 H       
  56 H56           -1.1563     4.8175    -5.5930 H       
@<TRIPOS>BOND
   1    1    2 ar
   2    1   10 ar
   3    1   11 1
   4    2    3 ar
   5    2   32 1
   6    3    4 ar
   7    3   18 1
   8    4    5 ar
   9    4   21 1
  10    5    6 ar
  11    5   10 ar
  12    6    7 ar
  13    7    8 ar
  14    7   33 1
  15    8    9 ar
  16    8   34 1
  17    9   10 ar
  18    9   35 1
  19   11   12 1
  20   11   36 1
  21   11   37 1
  22   12   13 ar
  23   12   17 ar
  24   13   14 ar
  25   13   38 1
  26   14   15 ar
  27   14   39 1
  28   15   16 ar
  29   15   30 1
  30   16   17 ar
  31   17   40 1
  32   18   19 am
  33   18   22 2
  34   19   20 1
  35   19   23 1
  36   20   21 2
  37   20   41 1
  38   21   42 1
  39   23   24 1
  40   23   28 1
  41   23   43 1
  42   24   25 1
  43   24   29 1
  44   24   44 1
  45   25   26 1
  46   25   45 1
  47   25   46 1
  48   26   27 1
  49   26   47 1
  50   26   48 1
  51   27   28 1
  52   27   49 1
  53   27   50 1
  54   28   51 1
  55   28   52 1
  56   29   53 1
  57   30   31 1
  58   31   54 1
  59   31   55 1
  60   31   56 1

#	End of record

