#	Name: ASD01190206
#	Creating user name:	WinNT
#	Creation time:	15. 06. 2019 19:08

#	Modifying user name:	WinNT
#	Modification time:	15. 06. 2019 19:08

#	Program:	/corina/corina34_cracker 3.40 0067  02.08.2006

@<TRIPOS>MOLECULE
ASD01190206
  58   62    0    0    0
SMALL
NO_CHARGES


@<TRIPOS>ATOM
   1 C1             0.0155     1.2915     0.5880 C.3     
   2 C2             0.6258    -0.0836     0.3092 C.3     
   3 N3             3.1191     3.1481     1.2789 N.am    
   4 C4             2.4282     2.0088     0.9678 C.2     
   5 C5             1.1138     2.2740     0.9030 C.2     
   6 C6             0.9497     3.6998     1.1966 C.ar    
   7 C7            -0.1523     4.5532     1.2789 C.ar    
   8 C8             0.0326     5.8725     1.5820 C.ar    
   9 C9             1.3079     6.3720     1.8088 C.ar    
  10 C10            2.4090     5.5479     1.7323 C.ar    
  11 C11            2.2440     4.2009     1.4256 C.ar    
  12 S12            4.7625     3.2448     1.4591 S.o2    
  13 O13            5.2240     1.9311     1.1752 O.2     
  14 O14            5.1402     4.3460     0.6444 O.2     
  15 C15            4.3092     2.5806     4.0736 C.3     
  16 C16            5.0030     3.6387     3.2134 C.3     
  17 C17            6.4994     3.6540     3.5322 C.3     
  18 N18           -3.0441     3.0041    -3.8069 N.pl3   
  19 N19           -4.3182     2.8870    -3.2416 N.2     
  20 C20           -4.2259     2.4566    -2.0152 C.2     
  21 C21           -2.8107     2.2649    -1.7143 C.ar    
  22 C22           -2.1065     1.8305    -0.5858 C.ar    
  23 C23           -0.7441     1.7595    -0.6265 C.ar    
  24 C24           -0.0508     2.1151    -1.7770 C.ar    
  25 C25           -0.7162     2.5425    -2.8911 C.ar    
  26 C26           -2.1059     2.6248    -2.8793 C.ar    
  27 C27           -2.7700     3.4335    -5.1119 C.ar    
  28 C28           -3.6371     3.1097    -6.1471 C.ar    
  29 C29           -3.3650     3.5339    -7.4328 C.ar    
  30 C30           -2.2283     4.2819    -7.6901 C.ar    
  31 C31           -1.3622     4.6060    -6.6593 C.ar    
  32 C32           -1.6336     4.1885    -5.3711 C.ar    
  33 F33           -1.9636     4.6957    -8.9487 F       
  34 F34            1.3310    -0.5181     1.4366 F       
  35 F35           -0.3938    -0.9957     0.0167 F       
  36 F36            1.4983     0.0058    -0.7808 F       
  37 O37           -0.8757     1.2002     1.7013 O.3     
  38 H38            2.8742     1.0398     0.7991 H       
  39 H39           -1.1474     4.1718     1.1034 H       
  40 H40           -0.8202     6.5322     1.6452 H       
  41 H41            1.4380     7.4172     2.0474 H       
  42 H42            3.3971     5.9460     1.9101 H       
  43 H43            4.3896     2.8571     5.1248 H       
  44 H44            3.2575     2.5175     3.7939 H       
  45 H45            4.7860     1.6134     3.9147 H       
  46 H46            4.5759     4.6184     3.4277 H       
  47 H47            6.9937     4.4079     2.9194 H       
  48 H48            6.6439     3.8908     4.5863 H       
  49 H49            6.9265     2.6744     3.3179 H       
  50 H50           -5.0500     2.2744    -1.3413 H       
  51 H51           -2.6380     1.5532     0.3125 H       
  52 H52            1.0274     2.0532    -1.7907 H       
  53 H53           -0.1654     2.8163    -3.7788 H       
  54 H54           -4.5235     2.5261    -5.9469 H       
  55 H55           -4.0390     3.2820    -8.2382 H       
  56 H56           -0.4761     5.1891    -6.8621 H       
  57 H57           -0.9605     4.4456    -4.5666 H       
  58 H58           -1.3000     2.0371     1.9351 H       
@<TRIPOS>BOND
   1    1    2 1
   2    1    5 1
   3    1   23 1
   4    1   37 1
   5    2   34 1
   6    2   35 1
   7    2   36 1
   8    3    4 1
   9    3   11 1
  10    3   12 am
  11    4    5 2
  12    4   38 1
  13    5    6 1
  14    6    7 ar
  15    6   11 ar
  16    7    8 ar
  17    7   39 1
  18    8    9 ar
  19    8   40 1
  20    9   10 ar
  21    9   41 1
  22   10   11 ar
  23   10   42 1
  24   12   13 2
  25   12   14 2
  26   12   16 1
  27   15   16 1
  28   15   43 1
  29   15   44 1
  30   15   45 1
  31   16   17 1
  32   16   46 1
  33   17   47 1
  34   17   48 1
  35   17   49 1
  36   18   19 1
  37   18   26 1
  38   18   27 1
  39   19   20 2
  40   20   21 1
  41   20   50 1
  42   21   22 ar
  43   21   26 ar
  44   22   23 ar
  45   22   51 1
  46   23   24 ar
  47   24   25 ar
  48   24   52 1
  49   25   26 ar
  50   25   53 1
  51   27   28 ar
  52   27   32 ar
  53   28   29 ar
  54   28   54 1
  55   29   30 ar
  56   29   55 1
  57   30   31 ar
  58   30   33 1
  59   31   32 ar
  60   31   56 1
  61   32   57 1
  62   37   58 1

#	End of record

