#	Name: ASD02562024
#	Creating user name:	WinNT
#	Creation time:	15. 06. 2019 20:25

#	Modifying user name:	WinNT
#	Modification time:	15. 06. 2019 20:25

#	Program:	/corina/corina34_cracker 3.40 0067  02.08.2006

@<TRIPOS>MOLECULE
ASD02562024
  53   57    0    0    0
SMALL
NO_CHARGES


@<TRIPOS>ATOM
   1 C1            -1.1123     1.5055     0.6520 C.ar    
   2 C2            -1.0587     0.1386     0.8586 C.ar    
   3 C3            -1.2179    -0.7366    -0.2077 C.ar    
   4 C4            -1.4315    -0.2431    -1.4838 C.ar    
   5 C5            -1.4864     1.1355    -1.6944 C.ar    
   6 C6            -1.3301     2.0083    -0.6160 C.ar    
   7 Cl7           -0.9122     2.5918     1.9912 Cl      
   8 O8            -1.1634    -2.0783     0.0011 O.3     
   9 C9             0.0420    -2.6943    -0.1192 C.ar    
  10 C10            0.1279    -4.0773    -0.0284 C.ar    
  11 C11            1.3542    -4.7040    -0.1513 C.ar    
  12 C12            2.4964    -3.9561    -0.3640 C.ar    
  13 C13            2.4154    -2.5737    -0.4549 C.ar    
  14 C14            1.1865    -1.9430    -0.3383 C.ar    
  15 Cl15          -1.3051    -5.0198     0.2399 Cl      
  16 O16            3.5397    -1.8390    -0.6638 O.3     
  17 C17            4.7706    -2.5555    -0.7803 C.3     
  18 C18            5.8987    -1.5824    -1.0073 C.2     
  19 N19            6.6146    -1.0126    -0.0716 N.2     
  20 N20            7.5622    -0.1769    -0.6756 N.pl3   
  21 C21            7.3921    -0.2624    -2.0269 C.2     
  22 C22            6.3572    -1.1441    -2.2503 C.2     
  23 C23            8.1752     0.4516    -3.0572 C.ar    
  24 C24            9.5675     0.5100    -2.9604 C.ar    
  25 C25           10.2968     1.1743    -3.9197 C.ar    
  26 C26            9.6444     1.7906    -4.9910 C.ar    
  27 C27            8.2516     1.7320    -5.0876 C.ar    
  28 C28            7.5232     1.0630    -4.1308 C.ar    
  29 Cl29           5.7290    -1.6154    -3.7985 Cl      
  30 C30           10.4269     2.5041    -6.0206 C.2     
  31 N31           11.7156     2.6081    -6.0106 N.2     
  32 C32           10.9880     3.7200    -7.8874 C.3     
  33 N33            9.8673     3.1432    -7.1259 N.pl3   
  34 N34           12.1799     3.3387    -7.1108 N.pl3   
  35 C35           -1.7069     1.6530    -3.0114 C.1     
  36 N36           -1.8819     2.0634    -4.0560 N.1     
  37 H37           -0.8922    -0.2492     1.8527 H       
  38 H38           -1.5550    -0.9231    -2.3137 H       
  39 H39           -1.3718     3.0758    -0.7742 H       
  40 H40            1.4194    -5.7797    -0.0805 H       
  41 H41            3.4532    -4.4478    -0.4593 H       
  42 H42            1.1219    -0.8672    -0.4092 H       
  43 H43            4.9530    -3.1158     0.1368 H       
  44 H44            4.7111    -3.2456    -1.6219 H       
  45 H45            8.2215     0.3659    -0.2156 H       
  46 H46           10.0716     0.0341    -2.1323 H       
  47 H47           11.3732     1.2198    -3.8446 H       
  48 H48            7.7471     2.2084    -5.9152 H       
  49 H49            6.4467     1.0174    -4.2056 H       
  50 H50           11.0325     3.2889    -8.8875 H       
  51 H51           10.8950     4.8047    -7.9415 H       
  52 H52            8.9248     3.1991    -7.3483 H       
  53 H53           13.1031     3.5497    -7.3211 H       
@<TRIPOS>BOND
   1    1    2 ar
   2    1    7 1
   3    1    6 ar
   4    2    3 ar
   5    2   37 1
   6    3    4 ar
   7    3    8 1
   8    4    5 ar
   9    4   38 1
  10    5    6 ar
  11    5   35 1
  12    6   39 1
  13    8    9 1
  14    9   10 ar
  15    9   14 ar
  16   10   11 ar
  17   10   15 1
  18   11   12 ar
  19   11   40 1
  20   12   13 ar
  21   12   41 1
  22   13   14 ar
  23   13   16 1
  24   14   42 1
  25   16   17 1
  26   17   18 1
  27   17   43 1
  28   17   44 1
  29   18   19 2
  30   18   22 1
  31   19   20 1
  32   20   21 1
  33   20   45 1
  34   21   22 2
  35   21   23 1
  36   22   29 1
  37   23   24 ar
  38   23   28 ar
  39   24   25 ar
  40   24   46 1
  41   25   26 ar
  42   25   47 1
  43   26   27 ar
  44   26   30 1
  45   27   28 ar
  46   27   48 1
  47   28   49 1
  48   30   31 2
  49   30   33 1
  50   31   34 1
  51   32   33 1
  52   32   34 1
  53   32   50 1
  54   32   51 1
  55   33   52 1
  56   34   53 1
  57   35   36 3

#	End of record

