#	Name: ASD00461047
#	Creating user name:	WinNT
#	Creation time:	15. 06. 2019 18:36

#	Modifying user name:	WinNT
#	Modification time:	15. 06. 2019 18:36

#	Program:	/corina/corina34_cracker 3.40 0067  02.08.2006

@<TRIPOS>MOLECULE
ASD00461047
  72   75    0    0    0
SMALL
NO_CHARGES


@<TRIPOS>ATOM
   1 C1            -0.0876     1.2072     0.2048 C.ar    
   2 C2             0.0079    -0.1669     0.2855 C.ar    
   3 C3             1.2424    -0.7890     0.1041 C.ar    
   4 C4             2.3736    -0.0178    -0.1580 C.ar    
   5 C5             2.2659     1.3559    -0.2364 C.ar    
   6 C6             1.0386     1.9675    -0.0556 C.ar    
   7 C7             3.7116    -0.6827    -0.3547 C.3     
   8 O8             4.7542     0.2442    -0.0452 O.3     
   9 C9             5.9438    -0.3661     0.4591 C.3     
  10 C10            6.9858     0.7146     0.7544 C.3     
  11 C11            8.2117     0.0755     1.4099 C.3     
  12 N12            9.1607     1.1260     1.8020 N.3     
  13 C13           10.3531     0.5482     2.4363 C.3     
  14 O14            7.3741     1.3480    -0.4662 O.3     
  15 C15           11.3158     1.6703     2.8299 C.3     
  16 C16            9.9390    -0.2305     3.6866 C.3     
  17 C17           11.0463    -0.3971     1.4531 C.3     
  18 C18           12.5390     1.0775     3.4806 C.ar    
  19 C19           13.6335     0.7267     2.6929 C.ar    
  20 C20           14.7535     0.1886     3.2489 C.ar    
  21 C21           14.8102    -0.0170     4.6376 C.ar    
  22 C22           13.6970     0.3404     5.4390 C.ar    
  23 C23           12.5603     0.8979     4.8298 C.ar    
  24 C24           15.9489    -0.5705     5.2477 C.ar    
  25 C25           15.9678    -0.7555     6.5958 C.ar    
  26 C26           14.8732    -0.4040     7.3839 C.ar    
  27 C27           13.7536     0.1343     6.8282 C.ar    
  28 C28            1.3517    -2.2652     0.1901 C.ar    
  29 C29            2.2320    -2.8469     1.1029 C.ar    
  30 C30            2.3341    -4.2171     1.1841 C.ar    
  31 C31            1.5554    -5.0258     0.3516 C.ar    
  32 C32            0.6739    -4.4418    -0.5623 C.ar    
  33 C33            0.5699    -3.0713    -0.6377 C.ar    
  34 C34            1.6642    -6.4952     0.4373 C.2     
  35 O35            2.4308    -7.0023     1.2316 O.2     
  36 O36            0.9132    -7.2743    -0.3655 O.3     
  37 C37            3.8470    -1.1354    -1.8099 C.3     
  38 H38           -1.0442     1.6898     0.3407 H       
  39 H39           -0.8718    -0.7594     0.4892 H       
  40 H40            3.1417     1.9545    -0.4391 H       
  41 H41            0.9590     3.0428    -0.1182 H       
  42 H42            3.7876    -1.5481     0.3036 H       
  43 H43            5.7132    -0.9087     1.3759 H       
  44 H44            6.3395    -1.0591    -0.2834 H       
  45 H45            6.5585     1.4566     1.4289 H       
  46 H46            7.9018    -0.4825     2.2935 H       
  47 H47            8.6907    -0.6012     0.7023 H       
  48 H48            9.4137     1.6986     1.0106 H       
  49 H49            7.7635     0.7461    -1.1152 H       
  50 H50           11.6108     2.2250     1.9392 H       
  51 H51           10.8219     2.3437     3.5304 H       
  52 H52            9.2531    -1.0299     3.4062 H       
  53 H53           10.8237    -0.6592     4.1572 H       
  54 H54            9.4451     0.4430     4.3870 H       
  55 H55           11.3413     0.1576     0.5624 H       
  56 H56           11.9311    -0.8259     1.9237 H       
  57 H57           10.3605    -1.1965     1.1727 H       
  58 H58           13.5925     0.8837     1.6251 H       
  59 H59           15.5940    -0.0792     2.6257 H       
  60 H60           11.7047     1.1750     5.4278 H       
  61 H61           16.8044    -0.8480     4.6497 H       
  62 H62           16.8439    -1.1814     7.0621 H       
  63 H63           14.9141    -0.5613     8.4516 H       
  64 H64           12.9132     0.4022     7.4514 H       
  65 H65            2.8339    -2.2217     1.7458 H       
  66 H66            3.0159    -4.6672     1.8905 H       
  67 H67            0.0716    -5.0656    -1.2061 H       
  68 H68           -0.1114    -2.6198    -1.3436 H       
  69 H69            1.0191    -8.2310    -0.2730 H       
  70 H70            3.7305    -0.2760    -2.4702 H       
  71 H71            4.8307    -1.5797    -1.9622 H       
  72 H72            3.0765    -1.8730    -2.0342 H       
@<TRIPOS>BOND
   1    1    2 ar
   2    1    6 ar
   3    1   38 1
   4    2    3 ar
   5    2   39 1
   6    3    4 ar
   7    3   28 1
   8    4    5 ar
   9    4    7 1
  10    5    6 ar
  11    5   40 1
  12    6   41 1
  13    7    8 1
  14    7   37 1
  15    7   42 1
  16    8    9 1
  17    9   10 1
  18    9   43 1
  19    9   44 1
  20   10   11 1
  21   10   14 1
  22   10   45 1
  23   11   12 1
  24   11   46 1
  25   11   47 1
  26   12   13 1
  27   12   48 1
  28   13   15 1
  29   13   16 1
  30   13   17 1
  31   14   49 1
  32   15   18 1
  33   15   50 1
  34   15   51 1
  35   16   52 1
  36   16   53 1
  37   16   54 1
  38   17   55 1
  39   17   56 1
  40   17   57 1
  41   18   19 ar
  42   18   23 ar
  43   19   20 ar
  44   19   58 1
  45   20   21 ar
  46   20   59 1
  47   21   22 ar
  48   21   24 ar
  49   22   23 ar
  50   22   27 ar
  51   23   60 1
  52   24   25 ar
  53   24   61 1
  54   25   26 ar
  55   25   62 1
  56   26   27 ar
  57   26   63 1
  58   27   64 1
  59   28   29 ar
  60   28   33 ar
  61   29   30 ar
  62   29   65 1
  63   30   31 ar
  64   30   66 1
  65   31   32 ar
  66   31   34 1
  67   32   33 ar
  68   32   67 1
  69   33   68 1
  70   34   35 2
  71   34   36 1
  72   36   69 1
  73   37   70 1
  74   37   71 1
  75   37   72 1

#	End of record

