#	Name: ASD03080072
#	Creating user name:	WinNT
#	Creation time:	15. 06. 2019 20:26

#	Modifying user name:	WinNT
#	Modification time:	15. 06. 2019 20:26

#	Program:	/corina/corina34_cracker 3.40 0067  02.08.2006

@<TRIPOS>MOLECULE
ASD03080072
  38   41    0    0    0
SMALL
NO_CHARGES


@<TRIPOS>ATOM
   1 O1            -0.0144     1.2085     0.0087 O.3     
   2 N2             0.0021    -0.0041     0.0020 N.2     
   3 C3             1.2349    -0.4420    -0.0121 C.2     
   4 N4             2.0455     0.6368    -0.0141 N.2     
   5 C5             1.2410     1.6828    -0.0008 C.2     
   6 C6             1.6452     3.1049     0.0021 C.ar    
   7 C7             0.6758     4.1091     0.0162 C.ar    
   8 C8             1.0597     5.4340     0.0188 C.ar    
   9 C9             2.4024     5.7685     0.0068 C.ar    
  10 C10            3.3681     4.7781    -0.0077 C.ar    
  11 C11            2.9976     3.4490    -0.0036 C.ar    
  12 N12            0.4395     7.6371    -0.8289 N.3     
  13 C13            0.0146     6.5196     0.0340 C.3     
  14 C14           -0.1402     7.0793     1.4638 C.3     
  15 C15           -0.3455     8.5982     1.2242 C.3     
  16 C16            0.5764     8.8502     0.0052 C.3     
  17 C17            3.0160    -2.1950    -0.0374 C.ar    
  18 C18            1.6630    -1.8633    -0.0231 C.ar    
  19 C19            0.7155    -2.8900    -0.0188 C.ar    
  20 C20            1.1658    -4.1993    -0.0290 C.ar    
  21 C21            2.5262    -4.4465    -0.0430 C.ar    
  22 N22            3.3972    -3.4557    -0.0462 N.ar    
  23 H23           -0.3724     3.8494     0.0248 H       
  24 H24            2.6977     6.8074     0.0085 H       
  25 H25            4.4144     5.0458    -0.0173 H       
  26 H26            3.7525     2.6767    -0.0097 H       
  27 H27            1.3059     7.4218    -1.2989 H       
  28 H28           -0.9393     6.1239    -0.3146 H       
  29 H29           -1.0110     6.6454     1.9553 H       
  30 H30            0.7625     6.8998     2.0477 H       
  31 H31           -1.3848     8.8180     0.9798 H       
  32 H32           -0.0182     9.1775     2.0876 H       
  33 H33            1.6097     8.9728     0.3298 H       
  34 H34            0.2442     9.7295    -0.5466 H       
  35 H35            3.7590    -1.4112    -0.0453 H       
  36 H36           -0.3414    -2.6681    -0.0075 H       
  37 H37            0.4622    -5.0186    -0.0257 H       
  38 H38            2.8811    -5.4664    -0.0509 H       
@<TRIPOS>BOND
   1    1    2 1
   2    1    5 1
   3    2    3 2
   4    3    4 1
   5    3   18 1
   6    4    5 2
   7    5    6 1
   8    6    7 ar
   9    6   11 ar
  10    7    8 ar
  11    7   23 1
  12    8    9 ar
  13    8   13 1
  14    9   10 ar
  15    9   24 1
  16   10   11 ar
  17   10   25 1
  18   11   26 1
  19   12   13 1
  20   12   16 1
  21   12   27 1
  22   13   14 1
  23   13   28 1
  24   14   15 1
  25   14   29 1
  26   14   30 1
  27   15   16 1
  28   15   31 1
  29   15   32 1
  30   16   33 1
  31   16   34 1
  32   17   18 ar
  33   17   22 ar
  34   17   35 1
  35   18   19 ar
  36   19   20 ar
  37   19   36 1
  38   20   21 ar
  39   20   37 1
  40   21   22 ar
  41   21   38 1

#	End of record

