#	Name: ASD05473008
#	Creating user name:	WinNT
#	Creation time:	15. 06. 2019 21:00

#	Modifying user name:	WinNT
#	Modification time:	15. 06. 2019 21:00

#	Program:	/corina/corina34_cracker 3.40 0067  02.08.2006

@<TRIPOS>MOLECULE
ASD05473008
  41   43    0    0    0
SMALL
NO_CHARGES


@<TRIPOS>ATOM
   1 C1            -0.8732    -0.2146    -1.0691 C.2     
   2 C2            -0.0741     0.1304     0.1611 C.3     
   3 C3             1.2848    -0.5701     0.0996 C.3     
   4 C4             2.1534    -0.1015     1.2687 C.3     
   5 O5            -0.3671    -0.8588    -1.9572 O.2     
   6 O6            -2.1489     0.1891    -1.1758 O.3     
   7 C7             2.4657     1.3639     1.1068 C.2     
   8 N8             2.1993     2.3239     2.0325 N.pl3   
   9 C9             2.6331     3.5288     1.5114 C.ar    
  10 C10            3.1634     3.2335     0.2442 C.ar    
  11 N11            3.0344     1.8938     0.0634 N.2     
  12 C12            3.6884     4.2639    -0.5399 C.ar    
  13 C13            3.6807     5.5594    -0.0624 C.ar    
  14 C14            3.1540     5.8440     1.1941 C.ar    
  15 C15            2.6329     4.8361     1.9766 C.ar    
  16 O16            4.1913     6.5633    -0.8242 O.3     
  17 C17            4.1529     7.8807    -0.2718 C.3     
  18 C18            1.0857    -2.0613     0.1878 C.ar    
  19 C19            1.5131    -2.8775    -0.8428 C.ar    
  20 C20            1.3308    -4.2452    -0.7625 C.ar    
  21 C21            0.7203    -4.7974     0.3496 C.ar    
  22 C22            0.2928    -3.9799     1.3807 C.ar    
  23 C23            0.4807    -2.6129     1.3017 C.ar    
  24 Cl24           0.4904    -6.5151     0.4509 Cl      
  25 H25            0.0750     1.2092     0.2069 H       
  26 H26           -0.6132    -0.1999     1.0490 H       
  27 H27            1.7780    -0.3244    -0.8408 H       
  28 H28            1.6175    -0.2576     2.2049 H       
  29 H29            3.0824    -0.6716     1.2824 H       
  30 H30           -2.6209    -0.0562    -1.9833 H       
  31 H31            1.7820     2.1885     2.8977 H       
  32 H32            4.0989     4.0479    -1.5152 H       
  33 H33            3.1533     6.8608     1.5580 H       
  34 H34            2.2253     5.0635     2.9506 H       
  35 H35            4.7206     7.9012     0.6585 H       
  36 H36            4.5903     8.5845    -0.9800 H       
  37 H37            3.1187     8.1612    -0.0726 H       
  38 H38            1.9893    -2.4464    -1.7110 H       
  39 H39            1.6644    -4.8828    -1.5678 H       
  40 H40           -0.1838    -4.4103     2.2490 H       
  41 H41            0.1510    -1.9751     2.1085 H       
@<TRIPOS>BOND
   1    1    2 1
   2    1    5 2
   3    1    6 1
   4    2    3 1
   5    2   25 1
   6    2   26 1
   7    3    4 1
   8    3   18 1
   9    3   27 1
  10    4    7 1
  11    4   28 1
  12    4   29 1
  13    6   30 1
  14    7    8 1
  15    7   11 2
  16    8    9 1
  17    8   31 1
  18    9   10 ar
  19    9   15 ar
  20   10   11 1
  21   10   12 ar
  22   12   13 ar
  23   12   32 1
  24   13   14 ar
  25   13   16 1
  26   14   15 ar
  27   14   33 1
  28   15   34 1
  29   16   17 1
  30   17   35 1
  31   17   36 1
  32   17   37 1
  33   18   19 ar
  34   18   23 ar
  35   19   20 ar
  36   19   38 1
  37   20   21 ar
  38   20   39 1
  39   21   22 ar
  40   21   24 1
  41   22   23 ar
  42   22   40 1
  43   23   41 1

#	End of record

