#	Name: ASD02560049
#	Creating user name:	WinNT
#	Creation time:	15. 06. 2019 20:24

#	Modifying user name:	WinNT
#	Modification time:	15. 06. 2019 20:24

#	Program:	/corina/corina34_cracker 3.40 0067  02.08.2006

@<TRIPOS>MOLECULE
ASD02560049
  37   38    0    0    0
SMALL
NO_CHARGES


@<TRIPOS>ATOM
   1 C1             0.0218     1.3128     0.4660 C.ar    
   2 C2            -0.0033     0.0049    -0.0028 C.ar    
   3 C3             1.1588    -0.5813    -0.4832 C.ar    
   4 C4             2.3441     0.1415    -0.4940 C.ar    
   5 C5             2.3626     1.4502    -0.0234 C.ar    
   6 C6             1.2026     2.0304     0.4544 C.ar    
   7 S7             3.8229    -0.5983    -1.1026 S.3     
   8 C8             3.2802    -2.2619    -1.5807 C.3     
   9 C9             4.4520    -3.0340    -2.1302 C.2     
  10 C10            4.8948    -4.0915    -1.4965 C.2     
  11 C11            6.0665    -4.8636    -2.0460 C.3     
  12 Cl12           3.8438     2.3556    -0.0362 Cl      
  13 N13           -1.1992    -0.7203     0.0102 N.am    
  14 C14           -2.0200    -0.6473     1.0766 C.2     
  15 C15           -3.3320    -1.3107     1.0414 C.2     
  16 S16           -1.5353     0.2176     2.4723 S.2     
  17 C17           -3.8156    -2.0596    -0.0951 C.2     
  18 C18           -5.0256    -2.5721     0.0959 C.2     
  19 S19           -5.6278    -2.1544     1.6907 S.3     
  20 C20           -4.2125    -1.2871     2.0781 C.2     
  21 C21           -3.9723    -0.5833     3.3888 C.3     
  22 H22           -0.8838     1.7706     0.8359 H       
  23 H23            1.1415    -1.5978    -0.8477 H       
  24 H24            1.2192     3.0466     0.8197 H       
  25 H25            2.8817    -2.7789    -0.7078 H       
  26 H26            2.5052    -2.1861    -2.3433 H       
  27 H27            4.9266    -2.7154    -3.0465 H       
  28 H28            4.4201    -4.4101    -0.5802 H       
  29 H29            6.9363    -4.2095    -2.1067 H       
  30 H30            6.2888    -5.7037    -1.3881 H       
  31 H31            5.8219    -5.2360    -3.0408 H       
  32 H32           -1.4378    -1.2757    -0.7485 H       
  33 H33           -3.2512    -2.1891    -1.0067 H       
  34 H34           -5.5645    -3.1635    -0.6295 H       
  35 H35           -4.8380    -0.7175     4.0373 H       
  36 H36           -3.0891    -1.0034     3.8702 H       
  37 H37           -3.8159     0.4799     3.2070 H       
@<TRIPOS>BOND
   1    1    2 ar
   2    1    6 ar
   3    1   22 1
   4    2    3 ar
   5    2   13 1
   6    3    4 ar
   7    3   23 1
   8    4    5 ar
   9    4    7 1
  10    5    6 ar
  11    5   12 1
  12    6   24 1
  13    7    8 1
  14    8    9 1
  15    8   25 1
  16    8   26 1
  17    9   10 2
  18    9   27 1
  19   10   11 1
  20   10   28 1
  21   11   29 1
  22   11   30 1
  23   11   31 1
  24   13   14 am
  25   13   32 1
  26   14   15 1
  27   14   16 2
  28   15   17 1
  29   15   20 2
  30   17   18 2
  31   17   33 1
  32   18   19 1
  33   18   34 1
  34   19   20 1
  35   20   21 1
  36   21   35 1
  37   21   36 1
  38   21   37 1

#	End of record

