#	Name: ASD01882340
#	Creating user name:	WinNT
#	Creation time:	15. 06. 2019 19:44

#	Modifying user name:	WinNT
#	Modification time:	15. 06. 2019 19:44

#	Program:	/corina/corina34_cracker 3.40 0067  02.08.2006

@<TRIPOS>MOLECULE
ASD01882340
  55   59    0    0    0
SMALL
NO_CHARGES


@<TRIPOS>ATOM
   1 C1            -0.0311     1.3499    -0.1951 C.2     
   2 C2             0.0361    -0.0509    -0.1058 C.2     
   3 C3             1.2521    -0.6493     0.0838 C.2     
   4 C4             2.4129     0.1481     0.1859 C.2     
   5 C5             2.3253     1.4897     0.0974 C.2     
   6 N6             1.1177     2.0961    -0.0916 N.pl3   
   7 N7            -0.5677     3.4052    -0.3845 N.2     
   8 N8            -1.0272     2.2035    -0.3767 N.2     
   9 C9             0.7283     3.3974    -0.2163 C.2     
  10 C10           -1.2150    -0.8835    -0.2169 C.3     
  11 F11           -1.7209    -1.1380     1.0624 F       
  12 F12           -2.1712    -0.1906    -0.9671 F       
  13 F13           -0.9145    -2.0948    -0.8490 F       
  14 N14            1.3440    -2.0348     0.1759 N.pl3   
  15 C15            0.7390    -2.7517     1.3068 C.3     
  16 C16            1.8076    -3.6339     1.9599 C.3     
  17 C17            2.4299    -4.5445     0.8989 C.3     
  18 C18            3.1014    -3.6902    -0.1788 C.3     
  19 C19            2.0425    -2.8092    -0.8591 C.3     
  20 O20            3.4046    -5.3915     1.5108 O.3     
  21 C21            3.5972    -6.6128     0.9521 C.ar    
  22 C22            4.5315    -7.4814     1.5021 C.ar    
  23 C23            4.7179    -8.7243     0.9230 C.ar    
  24 C24            3.9593    -9.0560    -0.1914 C.ar    
  25 C25            3.0487    -8.1432    -0.6847 C.ar    
  26 N26            2.8897    -6.9671    -0.1076 N.ar    
  27 C27            1.6284     4.6052    -0.1706 C.3     
  28 C28            2.1158     4.9318    -1.5836 C.3     
  29 C29            3.0296     6.1581    -1.5373 C.3     
  30 C30            3.7165     6.5769    -2.8387 C.3     
  31 C31            2.5650     7.4137    -2.2778 C.3     
  32 H32            3.3749    -0.3192     0.3359 H       
  33 H33            3.2191     2.0906     0.1771 H       
  34 H34            0.3627    -2.0336     2.0354 H       
  35 H35           -0.0802    -3.3749     0.9482 H       
  36 H36            2.5818    -3.0037     2.3978 H       
  37 H37            1.3499    -4.2432     2.7391 H       
  38 H38            1.6513    -5.1568     0.4440 H       
  39 H39            3.8633    -3.0595     0.2792 H       
  40 H40            3.5644    -4.3396    -0.9218 H       
  41 H41            1.3275    -3.4370    -1.3907 H       
  42 H42            2.5266    -2.1290    -1.5600 H       
  43 H43            5.1049    -7.1904     2.3698 H       
  44 H44            5.4374    -9.4202     1.3285 H       
  45 H45            4.0805   -10.0178    -0.6675 H       
  46 H46            2.4561    -8.3963    -1.5513 H       
  47 H47            1.0754     5.4555     0.2286 H       
  48 H48            2.4851     4.3959     0.4699 H       
  49 H49            2.6687     4.0815    -1.9828 H       
  50 H50            1.2590     5.1411    -2.2242 H       
  51 H51            3.5832     6.2970    -0.6087 H       
  52 H52            4.7219     6.9916    -2.7662 H       
  53 H53            3.5174     5.9788    -3.7279 H       
  54 H54            1.6083     7.3662    -2.7981 H       
  55 H55            2.8128     8.3790    -1.8364 H       
@<TRIPOS>BOND
   1    1    2 1
   2    1    6 1
   3    1    8 2
   4    2    3 2
   5    2   10 1
   6    3    4 1
   7    3   14 1
   8    4    5 2
   9    4   32 1
  10    5    6 1
  11    5   33 1
  12    6    9 1
  13    7    8 1
  14    7    9 2
  15    9   27 1
  16   10   11 1
  17   10   12 1
  18   10   13 1
  19   14   15 1
  20   14   19 1
  21   15   16 1
  22   15   34 1
  23   15   35 1
  24   16   17 1
  25   16   36 1
  26   16   37 1
  27   17   18 1
  28   17   20 1
  29   17   38 1
  30   18   19 1
  31   18   39 1
  32   18   40 1
  33   19   41 1
  34   19   42 1
  35   20   21 1
  36   21   22 ar
  37   21   26 ar
  38   22   23 ar
  39   22   43 1
  40   23   24 ar
  41   23   44 1
  42   24   25 ar
  43   24   45 1
  44   25   26 ar
  45   25   46 1
  46   27   28 1
  47   27   47 1
  48   27   48 1
  49   28   29 1
  50   28   49 1
  51   28   50 1
  52   29   30 1
  53   29   31 1
  54   29   51 1
  55   30   31 1
  56   30   52 1
  57   30   53 1
  58   31   54 1
  59   31   55 1

#	End of record

