#	Name: ASD03430371
#	Creating user name:	WinNT
#	Creation time:	15. 06. 2019 20:40

#	Modifying user name:	WinNT
#	Modification time:	15. 06. 2019 20:40

#	Program:	/corina/corina34_cracker 3.40 0067  02.08.2006

@<TRIPOS>MOLECULE
ASD03430371
  41   44    0    0    0
SMALL
NO_CHARGES


@<TRIPOS>ATOM
   1 N1            -0.0161     1.3395     0.0094 N.am    
   2 C2             0.0021    -0.0041     0.0020 C.2     
   3 C3             1.4548    -0.4298    -0.0141 C.3     
   4 C4             2.2197     0.8737    -0.0144 C.ar    
   5 C5             3.5641     1.1705    -0.0263 C.ar    
   6 C6             3.9795     2.4906    -0.0239 C.ar    
   7 C7             3.0415     3.5068    -0.0095 C.ar    
   8 C8             1.6940     3.2122     0.0024 C.ar    
   9 C9             1.2680     1.8853     0.0001 C.ar    
  10 O10           -0.9637    -0.7377     0.0076 O.2     
  11 S11            0.0998    -2.7672     4.6361 S.3     
  12 C12            1.4353    -3.5472     5.3572 C.2     
  13 N13            2.4924    -3.4203     4.6477 N.2     
  14 C14            2.3982    -2.7262     3.4975 C.ar    
  15 C15            1.1002    -2.2502     3.2819 C.ar    
  16 C16            3.3905    -2.4366     2.5393 C.ar    
  17 C17            3.0788    -1.7012     1.4182 C.ar    
  18 C18            1.7830    -1.2343     1.2172 C.ar    
  19 C19            0.8014    -1.5071     2.1424 C.ar    
  20 C20            1.3769    -4.2922     6.6659 C.3     
  21 O21            4.0443    -1.4281     0.5006 O.3     
  22 C22            1.7640    -1.2331    -1.2791 C.3     
  23 O23            0.9626    -2.4160    -1.2999 O.3     
  24 C24           -1.2434     2.1395     0.0197 C.3     
  25 O25           -1.8262     2.1009     1.3239 O.3     
  26 H26            4.2935     0.3741    -0.0372 H       
  27 H27            5.0333     2.7266    -0.0329 H       
  28 H28            3.3659     4.5370    -0.0072 H       
  29 H29            0.9677     4.0114     0.0136 H       
  30 H30            4.3993    -2.7935     2.6851 H       
  31 H31           -0.2034    -1.1441     1.9843 H       
  32 H32            1.1291    -5.3369     6.4785 H       
  33 H33            2.3456    -4.2318     7.1619 H       
  34 H34            0.6136    -3.8465     7.3039 H       
  35 H35            4.1232    -2.0930    -0.1971 H       
  36 H36            1.5409    -0.6276    -2.1576 H       
  37 H37            2.8186    -1.5085    -1.2859 H       
  38 H38            1.1065    -2.9750    -2.0758 H       
  39 H39           -1.0071     3.1708    -0.2422 H       
  40 H40           -1.9483     1.7328    -0.7055 H       
  41 H41           -2.6442     2.6103     1.4044 H       
@<TRIPOS>BOND
   1    1    2 am
   2    1    9 1
   3    1   24 1
   4    2    3 1
   5    2   10 2
   6    3    4 1
   7    3   18 1
   8    3   22 1
   9    4    5 ar
  10    4    9 ar
  11    5    6 ar
  12    5   26 1
  13    6    7 ar
  14    6   27 1
  15    7    8 ar
  16    7   28 1
  17    8    9 ar
  18    8   29 1
  19   11   12 1
  20   11   15 1
  21   12   13 2
  22   12   20 1
  23   13   14 1
  24   14   15 ar
  25   14   16 ar
  26   15   19 ar
  27   16   17 ar
  28   16   30 1
  29   17   18 ar
  30   17   21 1
  31   18   19 ar
  32   19   31 1
  33   20   32 1
  34   20   33 1
  35   20   34 1
  36   21   35 1
  37   22   23 1
  38   22   36 1
  39   22   37 1
  40   23   38 1
  41   24   25 1
  42   24   39 1
  43   24   40 1
  44   25   41 1

#	End of record

