#	Name: ASD01948331
#	Creating user name:	WinNT
#	Creation time:	15. 06. 2019 20:14

#	Modifying user name:	WinNT
#	Modification time:	15. 06. 2019 20:14

#	Program:	/corina/corina34_cracker 3.40 0067  02.08.2006

@<TRIPOS>MOLECULE
ASD01948331
  53   55    0    0    0
SMALL
NO_CHARGES


@<TRIPOS>ATOM
   1 C1             0.8540     3.1609    -0.7695 C.2     
   2 N2             1.2829     2.0554    -1.4435 N.am    
   3 C3             2.5942     1.8256    -1.6396 C.2     
   4 C4             3.1269     3.8508    -0.4664 C.2     
   5 C5             1.7394     4.0596    -0.2786 C.2     
   6 C6             3.1786     6.4632    -1.4452 C.ar    
   7 C7             4.0300     6.0857    -0.4161 C.ar    
   8 N8             4.0481     4.7589     0.0278 N.pl3   
   9 C9             3.1630     7.7740    -1.8821 C.ar    
  10 C10            3.9949     8.7107    -1.2958 C.ar    
  11 C11            4.8453     8.3391    -0.2690 C.ar    
  12 C12            4.8658     7.0293     0.1727 C.ar    
  13 N13            1.2836     5.1934     0.4139 N.am    
  14 S14           -0.3414     5.4753     0.5622 S.o2    
  15 C15           -0.8964     4.2795     1.8083 C.3     
  16 O16            2.9527     0.8276    -2.2463 O.2     
  17 C17            0.2992     1.1017    -1.9623 C.3     
  18 F18            5.6957     6.6662     1.1750 F       
  19 Br19           3.9704    10.5029    -1.8984 Br      
  20 O20           -0.4223     6.7996     1.0711 O.2     
  21 O21           -0.8720     5.1474    -0.7146 O.2     
  22 C22            3.5481     2.7243    -1.1525 C.2     
  23 C23            5.0172     2.4693    -1.3708 C.3     
  24 C24           -2.4019     4.1641     2.0554 C.3     
  25 C25           -1.6603     3.0489     1.3156 C.3     
  26 C26            0.0326     4.1002     3.0107 C.3     
  27 C27            1.2424     3.2587     2.5994 C.3     
  28 C28            2.2243     3.1711     3.7695 C.3     
  29 O29            3.4054     2.4848     3.3499 O.3     
  30 O30            0.8092     1.9447     2.2417 O.3     
  31 H31           -0.2045     3.3235    -0.6297 H       
  32 H32            2.5319     5.7320    -1.9072 H       
  33 H33            4.7059     4.4752     0.6818 H       
  34 H34            2.5004     8.0676    -2.6829 H       
  35 H35            5.4937     9.0726     0.1869 H       
  36 H36            1.9208     5.8112     0.8053 H       
  37 H37            0.0144     1.3881    -2.9747 H       
  38 H38            0.7343     0.1024    -1.9762 H       
  39 H39           -0.5828     1.1050    -1.3220 H       
  40 H40            5.1435     1.5893    -2.0015 H       
  41 H41            5.4674     3.3338    -1.8589 H       
  42 H42            5.5034     2.3005    -0.4099 H       
  43 H43           -2.7304     3.9600     3.0745 H       
  44 H44           -3.0589     4.8066     1.4693 H       
  45 H45           -1.8294     2.9578     0.2426 H       
  46 H46           -1.5010     2.1111     1.8479 H       
  47 H47            0.3704     5.0768     3.3577 H       
  48 H48           -0.5051     3.5955     3.8133 H       
  49 H49            1.7352     3.7238     1.7456 H       
  50 H50            2.4862     4.1762     4.1001 H       
  51 H51            1.7610     2.6271     4.5926 H       
  52 H52            4.0736     2.3923     4.0427 H       
  53 H53            0.3611     1.4705     2.9554 H       
@<TRIPOS>BOND
   1    1    2 1
   2    1    5 2
   3    1   31 1
   4    2    3 am
   5    2   17 1
   6    3   22 1
   7    3   16 2
   8    4    5 1
   9    4    8 1
  10    4   22 2
  11    5   13 1
  12    6    7 ar
  13    6    9 ar
  14    6   32 1
  15    7    8 1
  16    7   12 ar
  17    8   33 1
  18    9   10 ar
  19    9   34 1
  20   10   11 ar
  21   10   19 1
  22   11   12 ar
  23   11   35 1
  24   12   18 1
  25   13   14 am
  26   13   36 1
  27   14   15 1
  28   14   20 2
  29   14   21 2
  30   15   24 1
  31   15   26 1
  32   15   25 1
  33   17   37 1
  34   17   38 1
  35   17   39 1
  36   22   23 1
  37   23   40 1
  38   23   41 1
  39   23   42 1
  40   24   25 1
  41   24   43 1
  42   24   44 1
  43   25   45 1
  44   25   46 1
  45   26   27 1
  46   26   47 1
  47   26   48 1
  48   27   28 1
  49   27   30 1
  50   27   49 1
  51   28   29 1
  52   28   50 1
  53   28   51 1
  54   29   52 1
  55   30   53 1

#	End of record

