#	Name: ASD01840379
#	Creating user name:	WinNT
#	Creation time:	15. 06. 2019 19:37

#	Modifying user name:	WinNT
#	Modification time:	15. 06. 2019 19:37

#	Program:	/corina/corina34_cracker 3.40 0067  02.08.2006

@<TRIPOS>MOLECULE
ASD01840379
  48   51    0    0    0
SMALL
NO_CHARGES


@<TRIPOS>ATOM
   1 C1            -0.0090     1.3968     0.2798 C.ar    
   2 C2            -1.2197     2.0264     0.4027 C.ar    
   3 N3            -2.3380     1.3075     0.3845 N.ar    
   4 N4            -2.3482     0.0365     0.2508 N.ar    
   5 C5             0.0059    -0.0112     0.1298 C.ar    
   6 C6             1.1247    -0.9233    -0.0193 C.2     
   7 C7            -1.2270    -0.6753     0.1190 C.ar    
   8 S8            -0.9793    -2.4041    -0.0788 S.3     
   9 C9             0.7633    -2.2249    -0.1420 C.2     
  10 N10            2.4472    -0.5012    -0.0358 N.pl3   
  11 C11            1.7035    -3.3327    -0.3052 C.2     
  12 O12            2.9009    -3.1150    -0.3381 O.2     
  13 N13            1.2446    -4.5948    -0.4190 N.am    
  14 C14            2.1867    -5.7048    -0.5825 C.3     
  15 C15            1.4236    -7.0002    -0.6856 C.ar    
  16 C16            1.0177    -7.4667    -1.9220 C.ar    
  17 C17            0.3178    -8.6550    -2.0166 C.ar    
  18 C18            0.0240    -9.3770    -0.8749 C.ar    
  19 C19            0.4307    -8.9109     0.3613 C.ar    
  20 C20            1.1344    -7.7248     0.4555 C.ar    
  21 S21           -0.8692   -10.8910    -0.9954 S.o2    
  22 C22           -1.3389     3.5207     0.5524 C.3     
  23 C23           -0.0040     4.1219     0.9889 C.3     
  24 C24            1.0907     3.6177     0.0412 C.3     
  25 C25            1.3043     2.1262     0.3025 C.3     
  26 C26            0.4132   -12.1586    -1.1931 C.3     
  27 F27            1.2623   -12.1403    -0.0814 F       
  28 F28           -0.1879   -13.4174    -1.3000 F       
  29 F29            1.1542   -11.8959    -2.3503 F       
  30 O30           -1.5092   -11.0217     0.2665 O.2     
  31 O31           -1.6263   -10.7570    -2.1905 O.2     
  32 H32            2.6829     0.3694     0.3210 H       
  33 H33            3.1355    -1.0770    -0.4040 H       
  34 H34            0.2906    -4.7682    -0.3928 H       
  35 H35            2.7715    -5.5544    -1.4899 H       
  36 H36            2.8546    -5.7441     0.2780 H       
  37 H37            1.2472    -6.9027    -2.8139 H       
  38 H38            0.0000    -9.0191    -2.9825 H       
  39 H39            0.2009    -9.4748     1.2533 H       
  40 H40            1.4554    -7.3626     1.4210 H       
  41 H41           -1.6352     3.9560    -0.4020 H       
  42 H42           -2.0985     3.7485     1.3002 H       
  43 H43           -0.0586     5.2094     0.9396 H       
  44 H44            0.2221     3.8097     2.0085 H       
  45 H45            0.7799     3.7698    -0.9925 H       
  46 H46            2.0175     4.1594     0.2298 H       
  47 H47            1.7735     1.9934     1.2773 H       
  48 H48            1.9577     1.7161    -0.4676 H       
@<TRIPOS>BOND
   1    1    5 ar
   2    1   25 1
   3    1    2 ar
   4    2    3 ar
   5    2   22 1
   6    3    4 ar
   7    4    7 ar
   8    5    7 ar
   9    5    6 1
  10    6    9 2
  11    6   10 1
  12    7    8 1
  13    8    9 1
  14    9   11 1
  15   10   32 1
  16   10   33 1
  17   11   12 2
  18   11   13 am
  19   13   14 1
  20   13   34 1
  21   14   15 1
  22   14   35 1
  23   14   36 1
  24   15   16 ar
  25   15   20 ar
  26   16   17 ar
  27   16   37 1
  28   17   18 ar
  29   17   38 1
  30   18   19 ar
  31   18   21 1
  32   19   20 ar
  33   19   39 1
  34   20   40 1
  35   21   26 1
  36   21   30 2
  37   21   31 2
  38   22   23 1
  39   22   41 1
  40   22   42 1
  41   23   24 1
  42   23   43 1
  43   23   44 1
  44   24   25 1
  45   24   45 1
  46   24   46 1
  47   25   47 1
  48   25   48 1
  49   26   27 1
  50   26   28 1
  51   26   29 1

#	End of record

