#	Name: ASD01912342
#	Creating user name:	WinNT
#	Creation time:	15. 06. 2019 19:59

#	Modifying user name:	WinNT
#	Modification time:	15. 06. 2019 19:59

#	Program:	/corina/corina34_cracker 3.40 0067  02.08.2006

@<TRIPOS>MOLECULE
ASD01912342
  58   61    0    0    0
SMALL
NO_CHARGES


@<TRIPOS>ATOM
   1 C1             0.2156     2.0184     2.5455 C.ar    
   2 C2             0.2440     0.6782     2.8874 C.ar    
   3 C3             1.4554     0.0001     2.8900 C.ar    
   4 C4             2.6020     0.6937     2.5476 C.ar    
   5 C5             2.5016     2.0468     2.2125 C.ar    
   6 N6             1.3203     2.6583     2.2229 N.ar    
   7 C7             3.6787     2.7801     1.8556 C.1     
   8 C8             4.6437     3.3812     1.5629 C.1     
   9 C9             5.8208     4.1145     1.2059 C.2     
  10 N10            5.4077     7.5673    -0.7847 N.am    
  11 C11            6.7031     6.8780    -0.8440 C.3     
  12 C12            6.9621     6.1968     0.5058 C.3     
  13 C13            5.7304     5.4046     0.8857 C.2     
  14 C14            4.3936     6.1132     0.8937 C.3     
  15 C15            4.1990     6.7965    -0.4658 C.3     
  16 C16            5.3297     8.8930    -1.0150 C.2     
  17 O17            6.3417     9.5394    -1.1854 O.2     
  18 N18            2.2426    11.5461    -2.2461 N.3     
  19 C19            2.7994    11.7637    -0.9049 C.3     
  20 C20            4.1594    11.0702    -0.7970 C.3     
  21 C21            3.9852     9.5720    -1.0607 C.3     
  22 C22            3.3591     9.3747    -2.4440 C.3     
  23 C23            2.0223    10.1173    -2.5042 C.3     
  24 C24           -0.7942    12.9483    -3.7600 C.ar    
  25 C25            0.3659    12.2150    -3.6261 C.ar    
  26 C26            1.0681    12.2716    -2.4223 C.ar    
  27 C27            0.5625    13.0739    -1.3996 C.ar    
  28 C28           -0.6045    13.7766    -1.6142 C.ar    
  29 N29           -1.2404    13.6962    -2.7681 N.ar    
  30 C30           -1.0991     2.7548     2.5360 C.3     
  31 H31           -0.6685     0.1639     3.1506 H       
  32 H32            1.5016    -1.0462     3.1539 H       
  33 H33            3.5610     0.1970     2.5396 H       
  34 H34            6.7818     3.6218     1.1963 H       
  35 H35            6.6818     6.1274    -1.6341 H       
  36 H36            7.4930     7.6015    -1.0457 H       
  37 H37            7.8175     5.5267     0.4204 H       
  38 H38            7.1615     6.9522     1.2658 H       
  39 H39            3.5956     5.3892     1.0581 H       
  40 H40            4.3798     6.8616     1.6860 H       
  41 H41            3.3404     7.4663    -0.4185 H       
  42 H42            4.0340     6.0412    -1.2341 H       
  43 H43            2.9222    12.8328    -0.7317 H       
  44 H44            2.1209    11.3506    -0.1585 H       
  45 H45            4.8426    11.4924    -1.5338 H       
  46 H46            4.5652    11.2188     0.2037 H       
  47 H47            3.3337     9.1416    -0.3002 H       
  48 H48            4.0297     9.7702    -3.2068 H       
  49 H49            3.1932     8.3119    -2.6201 H       
  50 H50            1.3474     9.7120    -1.7503 H       
  51 H51            1.5806     9.9907    -3.4926 H       
  52 H52           -1.3421    12.9140    -4.6901 H       
  53 H53            0.7252    11.6048    -4.4415 H       
  54 H54            1.0774    13.1436    -0.4529 H       
  55 H55           -1.0034    14.4003    -0.8280 H       
  56 H56           -1.2807     3.1869     3.5201 H       
  57 H57           -1.0650     3.5496     1.7908 H       
  58 H58           -1.9027     2.0606     2.2902 H       
@<TRIPOS>BOND
   1    1    2 ar
   2    1    6 ar
   3    1   30 1
   4    2    3 ar
   5    2   31 1
   6    3    4 ar
   7    3   32 1
   8    4    5 ar
   9    4   33 1
  10    5    6 ar
  11    5    7 1
  12    7    8 3
  13    8    9 1
  14    9   13 2
  15    9   34 1
  16   10   11 1
  17   10   15 1
  18   10   16 am
  19   11   12 1
  20   11   35 1
  21   11   36 1
  22   12   13 1
  23   12   37 1
  24   12   38 1
  25   13   14 1
  26   14   15 1
  27   14   39 1
  28   14   40 1
  29   15   41 1
  30   15   42 1
  31   16   17 2
  32   16   21 1
  33   18   19 1
  34   18   23 1
  35   18   26 1
  36   19   20 1
  37   19   43 1
  38   19   44 1
  39   20   21 1
  40   20   45 1
  41   20   46 1
  42   21   22 1
  43   21   47 1
  44   22   23 1
  45   22   48 1
  46   22   49 1
  47   23   50 1
  48   23   51 1
  49   24   25 ar
  50   24   29 ar
  51   24   52 1
  52   25   26 ar
  53   25   53 1
  54   26   27 ar
  55   27   28 ar
  56   27   54 1
  57   28   29 ar
  58   28   55 1
  59   30   56 1
  60   30   57 1
  61   30   58 1

#	End of record

