#	Name: ASD01880846
#	Creating user name:	WinNT
#	Creation time:	15. 06. 2019 19:41

#	Modifying user name:	WinNT
#	Modification time:	15. 06. 2019 19:41

#	Program:	/corina/corina34_cracker 3.40 0067  02.08.2006

@<TRIPOS>MOLECULE
ASD01880846
  55   57    0    0    0
SMALL
NO_CHARGES


@<TRIPOS>ATOM
   1 N1            -0.0158     1.3133     0.0093 N.ar    
   2 C2             0.0021    -0.0041     0.0020 C.ar    
   3 N3             1.1310    -0.6839    -0.0124 N.ar    
   4 C4             2.3020    -0.0629    -0.0203 C.ar    
   5 C5             2.3325     1.3179    -0.0131 C.ar    
   6 C6             1.1186     2.0075     0.0022 C.ar    
   7 C7             3.6432     2.0616    -0.0217 C.3     
   8 O8             4.0446     2.3039    -1.3715 O.3     
   9 C9             5.2131     2.9688    -1.5570 C.ar    
  10 C10            5.6628     3.2378    -2.8460 C.ar    
  11 C11            6.8447     3.9108    -3.0322 C.ar    
  12 C12            7.6018     4.3291    -1.9328 C.ar    
  13 C13            7.1454     4.0566    -0.6402 C.ar    
  14 C14            5.9566     3.3854    -0.4591 C.ar    
  15 C15            7.5992     4.3523    -4.2614 C.3     
  16 N16            8.8064     5.0326    -3.7788 N.am    
  17 C17            8.8039     5.0169    -2.4349 C.2     
  18 O18            9.6703     5.5019    -1.7332 O.2     
  19 N19            1.0960     3.3927     0.0094 N.pl3   
  20 C20            7.6009     5.9506     0.8942 C.3     
  21 C21            7.9507     4.5006     0.5537 C.3     
  22 C22            4.0051    -1.1144    -1.4841 C.3     
  23 C23            3.5846    -0.8540    -0.0363 C.3     
  24 C24            9.4931     7.0927    -4.9040 C.3     
  25 C25            9.8440     5.6302    -4.6230 C.3     
  26 C26           -1.7614    -1.0007    -1.4284 C.3     
  27 C27           -1.3048    -0.7544     0.0110 C.3     
  28 H28            3.5250     3.0122     0.4984 H       
  29 H29            4.4033     1.4641     0.4817 H       
  30 H30            5.0829     2.9172    -3.6989 H       
  31 H31            5.6042     3.1755     0.5400 H       
  32 H32            7.8728     3.4864    -4.8643 H       
  33 H33            6.9904     5.0405    -4.8478 H       
  34 H34            1.9280     3.8913     0.0038 H       
  35 H35            0.2482     3.8639     0.0200 H       
  36 H36            7.8319     6.5898     0.0421 H       
  37 H37            6.5382     6.0233     1.1254 H       
  38 H38            8.1834     6.2717     1.7577 H       
  39 H39            7.7198     3.8614     1.4058 H       
  40 H40            9.0134     4.4279     0.3224 H       
  41 H41            3.2239    -1.6786    -1.9935 H       
  42 H42            4.1583    -0.1636    -1.9946 H       
  43 H43            4.9328    -1.6866    -1.4957 H       
  44 H44            4.3658    -0.2898     0.4731 H       
  45 H45            3.4315    -1.8048     0.4743 H       
  46 H46            9.4313     7.6389    -3.9628 H       
  47 H47           10.2651     7.5373    -5.5321 H       
  48 H48            8.5329     7.1438    -5.4174 H       
  49 H49           10.8041     5.5791    -4.1096 H       
  50 H50            9.9057     5.0841    -5.5642 H       
  51 H51           -2.7066    -1.5434    -1.4219 H       
  52 H52           -1.8945    -0.0452    -1.9358 H       
  53 H53           -1.0083    -1.5888    -1.9529 H       
  54 H54           -1.1717    -1.7099     0.5184 H       
  55 H55           -2.0579    -0.1663     0.5355 H       
@<TRIPOS>BOND
   1    1    2 ar
   2    1    6 ar
   3    2    3 ar
   4    2   27 1
   5    3    4 ar
   6    4    5 ar
   7    4   23 1
   8    5    6 ar
   9    5    7 1
  10    6   19 1
  11    7    8 1
  12    7   28 1
  13    7   29 1
  14    8    9 1
  15    9   10 ar
  16    9   14 ar
  17   10   11 ar
  18   10   30 1
  19   11   12 ar
  20   11   15 1
  21   12   13 ar
  22   12   17 1
  23   13   14 ar
  24   13   21 1
  25   14   31 1
  26   15   16 1
  27   15   32 1
  28   15   33 1
  29   16   17 am
  30   16   25 1
  31   17   18 2
  32   19   34 1
  33   19   35 1
  34   20   21 1
  35   20   36 1
  36   20   37 1
  37   20   38 1
  38   21   39 1
  39   21   40 1
  40   22   23 1
  41   22   41 1
  42   22   42 1
  43   22   43 1
  44   23   44 1
  45   23   45 1
  46   24   25 1
  47   24   46 1
  48   24   47 1
  49   24   48 1
  50   25   49 1
  51   25   50 1
  52   26   27 1
  53   26   51 1
  54   26   52 1
  55   26   53 1
  56   27   54 1
  57   27   55 1

#	End of record

