#	Name: ASD03240361
#	Creating user name:	WinNT
#	Creation time:	15. 06. 2019 20:34

#	Modifying user name:	WinNT
#	Modification time:	15. 06. 2019 20:34

#	Program:	/corina/corina34_cracker 3.40 0067  02.08.2006

@<TRIPOS>MOLECULE
ASD03240361
  74   81    0    0    0
SMALL
NO_CHARGES


@<TRIPOS>ATOM
   1 N1            -0.0656     1.2107     0.2244 N.ar    
   2 C2             0.0657    -0.1106     0.0630 C.ar    
   3 C3             1.3488    -0.6697    -0.1700 C.ar    
   4 N4             2.4219     0.1267    -0.2271 N.ar    
   5 C5             2.2814     1.4294    -0.0664 C.ar    
   6 C6             0.9998     1.9878     0.1661 C.ar    
   7 C7             0.8551     3.4513     0.3448 C.ar    
   8 C8            -0.1653     4.1392    -0.3114 C.ar    
   9 C9            -0.2953     5.5022    -0.1406 C.ar    
  10 C10            0.5840     6.1864     0.6795 C.ar    
  11 C11            1.5985     5.5096     1.3327 C.ar    
  12 C12            1.7352     4.1457     1.1744 C.ar    
  13 C13            3.4695     2.3121    -0.1296 C.ar    
  14 C14            4.6394     1.9605     0.5431 C.ar    
  15 C15            5.7429     2.7865     0.4802 C.ar    
  16 C16            5.6901     3.9616    -0.2480 C.ar    
  17 C17            4.5324     4.3157    -0.9175 C.ar    
  18 C18            3.4243     3.4951    -0.8668 C.ar    
  19 C19            0.4365     7.6751     0.8617 C.3     
  20 N20           -0.4512     7.9434     2.0010 N.3     
  21 C21           -1.6497     7.0966     1.9451 C.3     
  22 C22           -0.8088     9.3661     2.0658 C.3     
  23 C23           -1.6112     9.6342     3.3411 C.3     
  24 C24           -2.8757     8.7707     3.3337 C.3     
  25 C25           -2.4772     7.2969     3.2168 C.3     
  26 N26           -3.6185     8.9797     4.5790 N.am    
  27 C27           -4.9219     9.4606     4.6797 C.ar    
  28 N28           -4.1099     9.0415     6.7239 N.am    
  29 C29           -3.1598     8.7342     5.8207 C.2     
  30 C30           -5.8625     9.8636     3.7440 C.ar    
  31 C31           -7.1028    10.3043     4.1619 C.ar    
  32 C32           -7.4110    10.3454     5.5110 C.ar    
  33 C33           -6.4807     9.9460     6.4503 C.ar    
  34 C34           -5.2327     9.5020     6.0403 C.ar    
  35 O35           -2.0545     8.3000     6.0864 O.2     
  36 C36           -1.0536    -0.9588     0.1213 C.ar    
  37 C37           -0.8940    -2.3005    -0.0458 C.ar    
  38 C38            0.3660    -2.8496    -0.2742 C.ar    
  39 C39            1.4731    -2.0597    -0.3376 C.ar    
  40 C40           -2.0977    -3.2050     0.0177 C.3     
  41 C41           -2.5645    -3.5714    -1.3781 C.2     
  42 N42           -2.4447    -4.8635    -1.4368 N.2     
  43 N43           -1.9537    -5.3720    -0.2378 N.2     
  44 N44           -1.7398    -4.5029     0.6130 N.2     
  45 H45           -0.8521     3.6062    -0.9522 H       
  46 H46           -1.0848     6.0361    -0.6485 H       
  47 H47            2.2824     6.0492     1.9711 H       
  48 H48            2.5246     3.6176     1.6886 H       
  49 H49            4.6815     1.0438     1.1125 H       
  50 H50            6.6495     2.5154     1.0007 H       
  51 H51            6.5561     4.6053    -0.2938 H       
  52 H52            4.4971     5.2345    -1.4841 H       
  53 H53            2.5224     3.7705    -1.3932 H       
  54 H54            1.4148     8.1166     1.0515 H       
  55 H55            0.0102     8.1112    -0.0417 H       
  56 H56           -2.2476     7.3705     1.0758 H       
  57 H57           -1.3522     6.0510     1.8663 H       
  58 H58            0.0993     9.9689     2.0747 H       
  59 H59           -1.4107     9.6293     1.1960 H       
  60 H60           -1.0049     9.3843     4.2118 H       
  61 H61           -1.8899    10.6872     3.3811 H       
  62 H62           -3.5008     9.0475     2.4847 H       
  63 H63           -3.3745     6.6801     3.1680 H       
  64 H64           -1.8845     7.0102     4.0855 H       
  65 H65           -4.0275     8.9542     7.6865 H       
  66 H66           -5.6255     9.8332     2.6907 H       
  67 H67           -7.8354    10.6185     3.4332 H       
  68 H68           -8.3829    10.6915     5.8302 H       
  69 H69           -6.7246     9.9795     7.5019 H       
  70 H70           -2.0365    -0.5478     0.2982 H       
  71 H71            0.4659    -3.9172    -0.4031 H       
  72 H72            2.4433    -2.4996    -0.5152 H       
  73 H73           -2.9028    -2.7315     0.5796 H       
  74 H74           -2.9186    -2.9057    -2.1514 H       
@<TRIPOS>BOND
   1    1    2 ar
   2    1    6 ar
   3    2    3 ar
   4    2   36 ar
   5    3    4 ar
   6    3   39 ar
   7    4    5 ar
   8    5    6 ar
   9    5   13 1
  10    6    7 1
  11    7    8 ar
  12    7   12 ar
  13    8    9 ar
  14    8   45 1
  15    9   10 ar
  16    9   46 1
  17   10   11 ar
  18   10   19 1
  19   11   12 ar
  20   11   47 1
  21   12   48 1
  22   13   14 ar
  23   13   18 ar
  24   14   15 ar
  25   14   49 1
  26   15   16 ar
  27   15   50 1
  28   16   17 ar
  29   16   51 1
  30   17   18 ar
  31   17   52 1
  32   18   53 1
  33   19   20 1
  34   19   54 1
  35   19   55 1
  36   20   22 1
  37   20   21 1
  38   21   25 1
  39   21   56 1
  40   21   57 1
  41   22   23 1
  42   22   58 1
  43   22   59 1
  44   23   24 1
  45   23   60 1
  46   23   61 1
  47   24   25 1
  48   24   26 1
  49   24   62 1
  50   25   63 1
  51   25   64 1
  52   26   27 1
  53   26   29 am
  54   27   30 ar
  55   27   34 ar
  56   28   29 am
  57   28   34 1
  58   28   65 1
  59   29   35 2
  60   30   31 ar
  61   30   66 1
  62   31   32 ar
  63   31   67 1
  64   32   33 ar
  65   32   68 1
  66   33   34 ar
  67   33   69 1
  68   36   37 ar
  69   36   70 1
  70   37   38 ar
  71   37   40 1
  72   38   39 ar
  73   38   71 1
  74   39   72 1
  75   40   41 1
  76   40   44 1
  77   40   73 1
  78   41   42 2
  79   41   74 1
  80   42   43 1
  81   43   44 2

#	End of record

