#	Name: ASD09740712
#	Creating user name:	WinNT
#	Creation time:	15. 06. 2019 21:23

#	Modifying user name:	WinNT
#	Modification time:	15. 06. 2019 21:23

#	Program:	/corina/corina34_cracker 3.40 0067  02.08.2006

@<TRIPOS>MOLECULE
ASD09740712
  69   72    0    0    0
SMALL
NO_CHARGES


@<TRIPOS>ATOM
   1 C1             0.9230     2.0164     0.2273 C.1     
   2 C2             0.5987     3.3889    -0.0215 C.ar    
   3 C3             1.6206     4.3404    -0.1562 C.ar    
   4 C4             1.3037     5.6693    -0.3967 C.ar    
   5 C5            -0.0137     6.0607    -0.5047 C.ar    
   6 C6            -1.0405     5.1212    -0.3722 C.ar    
   7 C7            -0.7337     3.7832    -0.1364 C.ar    
   8 N8             1.1802     0.9277     0.4247 N.1     
   9 O9             2.9192     3.9609    -0.0509 O.3     
  10 C10            3.9022     4.9978    -0.0760 C.3     
  11 C11            5.1469     4.5392     0.6864 C.3     
  12 C12            4.2782     5.3091    -1.5260 C.3     
  13 C13           -2.4509     5.5467    -0.4879 C.2     
  14 C14           -2.8659     6.8105    -0.7195 C.2     
  15 C15           -4.2300     6.9675    -0.7872 C.2     
  16 C16           -4.9411     5.8333    -0.6116 C.2     
  17 S17           -3.8448     4.4829    -0.3525 S.3     
  18 C18           -8.8505     3.5726    -2.3767 C.3     
  19 C19           -7.5903     2.7044    -2.5784 C.3     
  20 C20           -6.4502     3.7175    -2.3413 C.3     
  21 C21           -7.0413     4.7723    -1.4310 C.ar    
  22 C22           -6.4153     5.7401    -0.6387 C.ar    
  23 C23           -7.1848     6.6168     0.1263 C.ar    
  24 C24           -8.5610     6.5241     0.0970 C.ar    
  25 C25           -9.1747     5.5656    -0.6874 C.ar    
  26 C26           -8.4178     4.6896    -1.4508 C.ar    
  27 O27           -9.2898     4.1070    -3.6270 O.3     
  28 Si28         -10.5062     3.2673    -4.3167 Si      
  29 C29          -10.0039     1.4825    -4.4982 C.3     
  30 C30          -12.0246     3.3790    -3.2431 C.3     
  31 C31          -10.8794     3.9814    -5.9964 C.3     
  32 C32           -9.6324     3.8897    -6.8781 C.3     
  33 C33          -12.0204     3.1937    -6.6434 C.3     
  34 C34          -11.2919     5.4471    -5.8473 C.3     
  35 H35            2.0921     6.4003    -0.4994 H       
  36 H36           -0.2535     7.0969    -0.6920 H       
  37 H37           -1.5250     3.0548    -0.0385 H       
  38 H38            3.4974     5.8937     0.3947 H       
  39 H39            5.5517     3.6433     0.2157 H       
  40 H40            5.8967     5.3301     0.6672 H       
  41 H41            4.8790     4.3174     1.7194 H       
  42 H42            5.0280     6.1000    -1.5452 H       
  43 H43            4.6830     4.4132    -1.9968 H       
  44 H44            3.3914     5.6358    -2.0692 H       
  45 H45           -2.1790     7.6349    -0.8418 H       
  46 H46           -4.6969     7.9246    -0.9668 H       
  47 H47           -9.6445     2.9853    -1.9155 H       
  48 H48           -7.5525     1.8995    -1.8444 H       
  49 H49           -7.5514     2.3075    -3.5929 H       
  50 H50           -5.6052     3.2293    -1.8559 H       
  51 H51           -6.1386     4.1642    -3.2855 H       
  52 H52           -6.7050     7.3652     0.7396 H       
  53 H53           -9.1597     7.2013     0.6880 H       
  54 H54          -10.2524     5.4982    -0.7056 H       
  55 H55           -9.7855     1.0648    -3.5154 H       
  56 H56          -10.8167     0.9214    -4.9591 H       
  57 H57           -9.1154     1.4172    -5.1263 H       
  58 H58          -12.3662     4.4133    -3.2032 H       
  59 H59          -12.8122     2.7521    -3.6613 H       
  60 H60          -11.7840     3.0368    -2.2366 H       
  61 H61           -9.3385     2.8454    -6.9843 H       
  62 H62           -9.8507     4.3074    -7.8609 H       
  63 H63           -8.8195     4.4508    -6.4172 H       
  64 H64          -12.9088     3.2590    -6.0153 H       
  65 H65          -12.2388     3.6115    -7.6262 H       
  66 H66          -11.7265     2.1494    -6.7496 H       
  67 H67          -10.4791     6.0083    -5.3864 H       
  68 H68          -11.5103     5.8649    -6.8301 H       
  69 H69          -12.1804     5.5125    -5.2192 H       
@<TRIPOS>BOND
   1    1    2 1
   2    1    8 3
   3    2    3 ar
   4    2    7 ar
   5    3    4 ar
   6    3    9 1
   7    4    5 ar
   8    4   35 1
   9    5    6 ar
  10    5   36 1
  11    6    7 ar
  12    6   13 1
  13    7   37 1
  14    9   10 1
  15   10   11 1
  16   10   12 1
  17   10   38 1
  18   11   39 1
  19   11   40 1
  20   11   41 1
  21   12   42 1
  22   12   43 1
  23   12   44 1
  24   13   14 2
  25   13   17 1
  26   14   15 1
  27   14   45 1
  28   15   16 2
  29   15   46 1
  30   16   17 1
  31   16   22 1
  32   18   19 1
  33   18   26 1
  34   18   27 1
  35   18   47 1
  36   19   20 1
  37   19   48 1
  38   19   49 1
  39   20   21 1
  40   20   50 1
  41   20   51 1
  42   21   22 ar
  43   21   26 ar
  44   22   23 ar
  45   23   24 ar
  46   23   52 1
  47   24   25 ar
  48   24   53 1
  49   25   26 ar
  50   25   54 1
  51   27   28 1
  52   28   29 1
  53   28   30 1
  54   28   31 1
  55   29   55 1
  56   29   56 1
  57   29   57 1
  58   30   58 1
  59   30   59 1
  60   30   60 1
  61   31   32 1
  62   31   34 1
  63   31   33 1
  64   32   61 1
  65   32   62 1
  66   32   63 1
  67   33   64 1
  68   33   65 1
  69   33   66 1
  70   34   67 1
  71   34   68 1
  72   34   69 1

#	End of record

