#	Name: ASD02198768
#	Creating user name:	WinNT
#	Creation time:	15. 06. 2019 20:20

#	Modifying user name:	WinNT
#	Modification time:	15. 06. 2019 20:20

#	Program:	/corina/corina34_cracker 3.40 0067  02.08.2006

@<TRIPOS>MOLECULE
ASD02198768
  51   55    0    0    0
SMALL
NO_CHARGES


@<TRIPOS>ATOM
   1 C1            -0.0433     1.5017    -0.1149 C.2     
   2 C2            -0.0730     0.1620     0.0976 C.2     
   3 N3             1.0716    -0.5397     0.2599 N.pl3   
   4 N4             2.2360    -0.0049     0.2259 N.2     
   5 C5             2.4076     1.2844     0.0276 C.2     
   6 C6             1.2217     2.1357    -0.1604 C.2     
   7 C7             0.9802    -1.9175     0.4763 C.ar    
   8 C8             1.5827    -2.4885     1.5973 C.ar    
   9 C9             1.4914    -3.8522     1.8109 C.ar    
  10 C10            0.7973    -4.6522     0.9051 C.ar    
  11 C11            0.1965    -4.0766    -0.2142 C.ar    
  12 C12            0.2842    -2.7167    -0.4224 C.ar    
  13 C13            3.7645     1.8667    -0.0051 C.2     
  14 N14            4.3063     2.6068    -1.0182 N.pl3   
  15 N15            5.6084     2.9579    -0.6407 N.2     
  16 C16            5.8525     2.4581     0.5445 C.2     
  17 C17            4.7203     1.7710     0.9825 C.2     
  18 C18            3.6731     2.9518    -2.2189 C.ar    
  19 C19            3.8070     4.2350    -2.7325 C.ar    
  20 C20            3.1818     4.5720    -3.9170 C.ar    
  21 C21            2.4230     3.6331    -4.5914 C.ar    
  22 C22            2.2873     2.3545    -4.0824 C.ar    
  23 C23            2.9147     2.0096    -2.9013 C.ar    
  24 O24            1.3246     3.3388    -0.3483 O.2     
  25 C25            0.6980    -6.1144     1.1310 C.ar    
  26 C26            0.0026    -6.9084     0.2215 C.ar    
  27 C27           -0.0811    -8.2719     0.4456 C.ar    
  28 C28            0.5341    -8.7969     1.5730 C.ar    
  29 C29            1.2080    -7.9503     2.4342 C.ar    
  30 N30            1.2769    -6.6567     2.1949 N.ar    
  31 O31            2.2593    -1.7057     2.4786 O.3     
  32 C32            2.8512    -2.3579     3.6040 C.3     
  33 H33           -0.9547     2.0653    -0.2494 H       
  34 H34           -1.0228    -0.3504     0.1379 H       
  35 H35            1.9575    -4.2963     2.6781 H       
  36 H36           -0.3415    -4.6963    -0.9164 H       
  37 H37           -0.1817    -2.2730    -1.2898 H       
  38 H38            6.7761     2.5641     1.0941 H       
  39 H39            4.6147     1.2513     1.9233 H       
  40 H40            4.3992     4.9689    -2.2060 H       
  41 H41            3.2853     5.5700    -4.3167 H       
  42 H42            1.9350     3.8990    -5.5175 H       
  43 H43            1.6937     1.6235    -4.6113 H       
  44 H44            2.8087     1.0108    -2.5045 H       
  45 H45           -0.4649    -6.4663    -0.6459 H       
  46 H46           -0.6137    -8.9126    -0.2416 H       
  47 H47            0.4867    -9.8565     1.7763 H       
  48 H48            1.6879    -8.3559     3.3126 H       
  49 H49            2.0744    -2.8521     4.1875 H       
  50 H50            3.5717    -3.0987     3.2571 H       
  51 H51            3.3590    -1.6206     4.2257 H       
@<TRIPOS>BOND
   1    1    2 2
   2    1    6 1
   3    1   33 1
   4    2    3 1
   5    2   34 1
   6    3    4 1
   7    3    7 1
   8    4    5 2
   9    5    6 1
  10    5   13 1
  11    6   24 2
  12    7    8 ar
  13    7   12 ar
  14    8    9 ar
  15    8   31 1
  16    9   10 ar
  17    9   35 1
  18   10   11 ar
  19   10   25 1
  20   11   12 ar
  21   11   36 1
  22   12   37 1
  23   13   14 1
  24   13   17 2
  25   14   15 1
  26   14   18 1
  27   15   16 2
  28   16   17 1
  29   16   38 1
  30   17   39 1
  31   18   19 ar
  32   18   23 ar
  33   19   20 ar
  34   19   40 1
  35   20   21 ar
  36   20   41 1
  37   21   22 ar
  38   21   42 1
  39   22   23 ar
  40   22   43 1
  41   23   44 1
  42   25   26 ar
  43   25   30 ar
  44   26   27 ar
  45   26   45 1
  46   27   28 ar
  47   27   46 1
  48   28   29 ar
  49   28   47 1
  50   29   30 ar
  51   29   48 1
  52   31   32 1
  53   32   49 1
  54   32   50 1
  55   32   51 1

#	End of record

