#	Name: ASD01883655
#	Creating user name:	WinNT
#	Creation time:	15. 06. 2019 19:46

#	Modifying user name:	WinNT
#	Modification time:	15. 06. 2019 19:46

#	Program:	/corina/corina34_cracker 3.40 0067  02.08.2006

@<TRIPOS>MOLECULE
ASD01883655
  54   58    0    0    0
SMALL
NO_CHARGES


@<TRIPOS>ATOM
   1 C1            -0.0253     1.3856    -0.1681 C.2     
   2 C2             0.0021    -0.0041     0.0020 C.2     
   3 C3            -1.2103    -0.6937     0.1891 C.2     
   4 C4            -2.3863    -0.0386     0.2059 C.2     
   5 N5            -2.4608     1.3139     0.0438 N.pl3   
   6 C6            -1.3255     2.0606    -0.1372 C.2     
   7 C7            -3.5191     2.1887     0.0226 C.2     
   8 C8            -3.0112     3.4222    -0.1734 C.2     
   9 N9            -1.6795     3.3261    -0.2671 N.2     
  10 N10            1.2030    -0.6889    -0.0141 N.pl3   
  11 C11            1.4833    -1.6841    -1.0580 C.3     
  12 C12            1.8826    -3.0025    -0.3878 C.3     
  13 C13            3.0494    -2.7505     0.5699 C.3     
  14 C14            2.6143    -1.7674     1.6591 C.3     
  15 C15            2.2256    -0.4309     1.0089 C.3     
  16 C16            3.4672    -4.0514     1.2055 C.ar    
  17 C17            4.7545    -4.5238     1.0312 C.ar    
  18 C18            5.1377    -5.7172     1.6143 C.ar    
  19 C19            4.2337    -6.4379     2.3720 C.ar    
  20 C20            2.9466    -5.9651     2.5470 C.ar    
  21 C21            2.5647    -4.7695     1.9676 C.ar    
  22 C22           -4.9750     1.8361     0.1869 C.3     
  23 C23           -5.6161     1.6612    -1.1913 C.3     
  24 C24           -7.0942     1.3032    -1.0245 C.3     
  25 C25           -7.9438     1.2008    -2.2928 C.3     
  26 C26           -7.5509    -0.0665    -1.5308 C.3     
  27 C27            1.1844     2.1273    -0.3609 C.1     
  28 N28            2.1441     2.7156    -0.5138 N.1     
  29 H29           -1.1971    -1.7656     0.3209 H       
  30 H30           -3.2973    -0.6002     0.3515 H       
  31 H31           -3.5833     4.3358    -0.2402 H       
  32 H32            0.5912    -1.8382    -1.6649 H       
  33 H33            2.3003    -1.3324    -1.6881 H       
  34 H34            1.0338    -3.3991     0.1693 H       
  35 H35            2.1859    -3.7206    -1.1497 H       
  36 H36            3.8894    -2.3308     0.0164 H       
  37 H37            1.7586    -2.1756     2.1969 H       
  38 H38            3.4384    -1.6064     2.3541 H       
  39 H39            3.1044     0.0209     0.5489 H       
  40 H40            1.8215     0.2403     1.7667 H       
  41 H41            5.4609    -3.9607     0.4393 H       
  42 H42            6.1433    -6.0866     1.4775 H       
  43 H43            4.5329    -7.3706     2.8269 H       
  44 H44            2.2401    -6.5283     3.1387 H       
  45 H45            1.5591    -4.4001     2.1043 H       
  46 H46           -5.0624     0.9062     0.7489 H       
  47 H47           -5.4839     2.6354     0.7255 H       
  48 H48           -5.5286     2.5910    -1.7533 H       
  49 H49           -5.1072     0.8618    -1.7299 H       
  50 H50           -7.5743     1.6942    -0.1274 H       
  51 H51           -8.9828     1.5240    -2.2300 H       
  52 H52           -7.4496     1.3884    -3.2461 H       
  53 H53           -6.7982    -0.7125    -1.9827 H       
  54 H54           -8.3315    -0.5769    -0.9667 H       
@<TRIPOS>BOND
   1    1    2 2
   2    1   27 1
   3    1    6 1
   4    2    3 1
   5    2   10 1
   6    3    4 2
   7    3   29 1
   8    4    5 1
   9    4   30 1
  10    5    6 1
  11    5    7 1
  12    6    9 2
  13    7    8 2
  14    7   22 1
  15    8    9 1
  16    8   31 1
  17   10   11 1
  18   10   15 1
  19   11   12 1
  20   11   32 1
  21   11   33 1
  22   12   13 1
  23   12   34 1
  24   12   35 1
  25   13   14 1
  26   13   16 1
  27   13   36 1
  28   14   15 1
  29   14   37 1
  30   14   38 1
  31   15   39 1
  32   15   40 1
  33   16   17 ar
  34   16   21 ar
  35   17   18 ar
  36   17   41 1
  37   18   19 ar
  38   18   42 1
  39   19   20 ar
  40   19   43 1
  41   20   21 ar
  42   20   44 1
  43   21   45 1
  44   22   23 1
  45   22   46 1
  46   22   47 1
  47   23   24 1
  48   23   48 1
  49   23   49 1
  50   24   25 1
  51   24   26 1
  52   24   50 1
  53   25   26 1
  54   25   51 1
  55   25   52 1
  56   26   53 1
  57   26   54 1
  58   27   28 3

#	End of record

