#	Name: ASD01510130
#	Creating user name:	WinNT
#	Creation time:	15. 06. 2019 19:21

#	Modifying user name:	WinNT
#	Modification time:	15. 06. 2019 19:21

#	Program:	/corina/corina34_cracker 3.40 0067  02.08.2006

@<TRIPOS>MOLECULE
ASD01510130
  80   86    0    0    0
SMALL
NO_CHARGES


@<TRIPOS>ATOM
   1 O1            -0.1603     1.3997     0.1779 O.3     
   2 O2             4.6350     1.7845     4.0356 O.3     
   3 O3             5.6985     0.3113    -1.5256 O.3     
   4 O4             3.1406    -1.9048     0.7602 O.3     
   5 O5             1.3486     2.8598    -0.7326 O.2     
   6 O6            -0.8804    -4.3238     0.6689 O.3     
   7 O7             5.5913     1.9431     6.1007 O.2     
   8 O8             3.3918    -3.2197    -0.9981 O.2     
   9 C9             2.0835     0.9079     0.4896 C.3     
  10 C10            2.7465     1.6132     1.7159 C.3     
  11 C11            4.4585     1.1726     0.3183 C.3     
  12 C12            4.0843     0.8113     1.7741 C.3     
  13 C13            3.2502     0.6371    -0.4810 C.3     
  14 C14            1.3142    -0.3310     0.8821 C.3     
  15 C15            5.8304     0.7391    -0.1516 C.3     
  16 C16            5.0887     1.3215     2.7513 C.3     
  17 C17            3.2637     2.9469     1.1489 C.2     
  18 C18            4.2717     2.6862     0.3283 C.2     
  19 C19           -0.1011    -0.0399     0.3162 C.3     
  20 C20            1.0755     1.8541    -0.1234 C.2     
  21 C21            1.9148     1.7247     2.9946 C.3     
  22 C22            1.7622    -1.6619     0.3456 C.3     
  23 C23            5.9773     0.0820     3.1089 C.3     
  24 C24            6.3434    -0.4469     0.6480 C.3     
  25 C25           -1.1021    -0.6356     1.2712 C.3     
  26 C26            6.9348    -0.1051     2.0010 C.3     
  27 C27           -1.5064    -2.0462     0.8745 C.3     
  28 C28            0.9209    -2.8098     0.9256 C.3     
  29 C29            6.8260     1.8942    -0.1305 C.3     
  30 C30           -0.4585    -2.9766     0.3121 C.3     
  31 C31            6.5025     0.4622     4.4613 C.2     
  32 C32           -2.4116     0.1276     1.2496 C.2     
  33 C33           -2.6553    -1.7396    -0.1132 C.3     
  34 C34            5.5578     1.4785     4.9761 C.2     
  35 C35           -3.2766    -0.4833     0.4816 C.2     
  36 C36           -0.3765    -2.9669    -1.2099 C.3     
  37 C37           -2.6799     1.3958     2.0117 C.3     
  38 C38            7.5854    -0.0117     5.0731 C.2     
  39 C39            3.8559    -2.7679     0.0219 C.2     
  40 C40            5.2379    -3.1736     0.4652 C.3     
  41 H41            3.9156    -0.2563     1.9161 H       
  42 H42            3.3691    -0.4075    -0.7290 H       
  43 H43            3.1275     1.2270    -1.3985 H       
  44 H44            1.2380    -0.4260     1.9689 H       
  45 H45            5.7000     2.0962     2.2881 H       
  46 H46            2.8728     3.9264     1.3805 H       
  47 H47            4.8146     3.4296    -0.2331 H       
  48 H48           -0.1975    -0.4861    -0.6740 H       
  49 H49            1.6484     0.7268     3.3430 H       
  50 H50            2.4962     2.2345     3.7629 H       
  51 H51            1.0072     2.2923     2.7893 H       
  52 H52            1.7304    -1.6509    -0.7356 H       
  53 H53            5.3487    -0.8061     3.1998 H       
  54 H54            5.5219    -1.1593     0.7903 H       
  55 H55            7.1102    -0.9617     0.0521 H       
  56 H56           -0.7060    -0.6347     2.2864 H       
  57 H57            7.5832     0.7596     1.9480 H       
  58 H58            7.5839    -0.9504     2.2891 H       
  59 H59           -1.9532    -2.5290     1.7765 H       
  60 H60            1.4777    -3.7474     0.7947 H       
  61 H61            0.8093    -2.6492     2.0053 H       
  62 H62            6.4510     2.7085    -0.7505 H       
  63 H63            6.9529     2.2459     0.8934 H       
  64 H64            7.7858     1.5538    -0.5192 H       
  65 H65            6.5263     0.0112    -1.9253 H       
  66 H66           -2.3177    -1.5021    -1.1136 H       
  67 H67           -3.3875    -2.5440    -0.1167 H       
  68 H68           -4.2821    -0.1556     0.2929 H       
  69 H69            0.2592    -3.7866    -1.5447 H       
  70 H70           -1.3757    -3.0877    -1.6283 H       
  71 H71            0.0456    -2.0195    -1.5450 H       
  72 H72           -0.2955    -5.0195     0.3387 H       
  73 H73           -2.4100     2.2537     1.3960 H       
  74 H74           -3.7384     1.4497     2.2662 H       
  75 H75           -2.0857     1.4031     2.9255 H       
  76 H76            8.1962    -0.7587     4.5881 H       
  77 H77            7.8532     0.3508     6.0546 H       
  78 H78            5.4703    -2.6932     1.4156 H       
  79 H79            5.2776    -4.2562     0.5861 H       
  80 H80            5.9655    -2.8649    -0.2854 H       
@<TRIPOS>BOND
   1    1   19 1
   2    1   20 1
   3    2   16 1
   4    2   34 1
   5    3   65 1
   6    3   15 1
   7    4   39 1
   8    4   22 1
   9    5   20 2
  10    6   72 1
  11    6   30 1
  12    7   34 2
  13    8   39 2
  14    9   10 1
  15    9   13 1
  16    9   20 1
  17    9   14 1
  18   10   12 1
  19   10   17 1
  20   10   21 1
  21   11   12 1
  22   11   13 1
  23   11   18 1
  24   11   15 1
  25   12   16 1
  26   12   41 1
  27   13   42 1
  28   13   43 1
  29   14   44 1
  30   14   19 1
  31   14   22 1
  32   15   24 1
  33   15   29 1
  34   16   23 1
  35   16   45 1
  36   17   18 2
  37   17   46 1
  38   18   47 1
  39   19   48 1
  40   19   25 1
  41   21   49 1
  42   21   50 1
  43   21   51 1
  44   22   28 1
  45   22   52 1
  46   23   26 1
  47   23   31 1
  48   23   53 1
  49   24   26 1
  50   24   54 1
  51   24   55 1
  52   25   32 1
  53   25   56 1
  54   25   27 1
  55   26   57 1
  56   26   58 1
  57   27   33 1
  58   27   59 1
  59   27   30 1
  60   28   30 1
  61   28   60 1
  62   28   61 1
  63   29   62 1
  64   29   63 1
  65   29   64 1
  66   30   36 1
  67   31   34 1
  68   31   38 2
  69   32   35 2
  70   32   37 1
  71   33   35 1
  72   33   66 1
  73   33   67 1
  74   35   68 1
  75   36   69 1
  76   36   70 1
  77   36   71 1
  78   37   73 1
  79   37   74 1
  80   37   75 1
  81   38   76 1
  82   38   77 1
  83   39   40 1
  84   40   78 1
  85   40   79 1
  86   40   80 1

#	End of record

