#	Name: ASD01911034
#	Creating user name:	WinNT
#	Creation time:	15. 06. 2019 19:57

#	Modifying user name:	WinNT
#	Modification time:	15. 06. 2019 19:57

#	Program:	/corina/corina34_cracker 3.40 0067  02.08.2006

@<TRIPOS>MOLECULE
ASD01911034
  56   59    0    0    0
SMALL
NO_CHARGES


@<TRIPOS>ATOM
   1 N1            -4.7518    -3.3310     1.0063 N.3     
   2 C2            -3.5025    -2.6300     1.3313 C.3     
   3 C3            -2.6795    -2.4402     0.0527 C.3     
   4 N4            -3.5232    -1.7744    -0.9514 N.am    
   5 C5            -4.8507    -2.3422    -1.2319 C.3     
   6 C6            -5.5881    -2.5358     0.0974 C.3     
   7 C7            -3.0915    -0.6728    -1.5969 C.2     
   8 C8            -3.8995    -0.0921    -2.6876 C.ar    
   9 C9            -4.0112     1.2961    -2.8123 C.ar    
  10 C10           -4.7643     1.8435    -3.8285 C.ar    
  11 C11           -5.4171     1.0216    -4.7355 C.ar    
  12 C12           -5.3124    -0.3742    -4.6204 C.ar    
  13 C13           -4.5468    -0.9279    -3.5970 C.ar    
  14 C14           -5.9857    -1.2249    -5.5551 C.1     
  15 O15           -2.0366    -0.1574    -1.2811 O.2     
  16 C16           -6.5377    -1.9223    -6.3213 C.1     
  17 C17           -7.2111    -2.7730    -7.2559 C.ar    
  18 C18           -7.1070    -4.1609    -7.1417 C.ar    
  19 C19           -7.7615    -4.9764    -8.0491 C.ar    
  20 C20           -8.5184    -4.4149    -9.0687 C.ar    
  21 C21           -8.6228    -3.0406    -9.1838 C.ar    
  22 C22           -7.9798    -2.2176    -8.2828 C.ar    
  23 C23           -5.4469    -3.6644     2.1558 C.ar    
  24 O24           -6.1571     1.5661    -5.7333 O.3     
  25 N25           -6.6023    -4.3044     2.0502 N.ar    
  26 C26           -7.2916    -4.6377     3.1288 C.ar    
  27 C27           -6.7915    -4.3094     4.3790 C.ar    
  28 C28           -5.5801    -3.6400     4.4533 C.ar    
  29 N29           -4.9386    -3.3409     3.3358 N.ar    
  30 C30           -6.2201     2.9926    -5.7901 C.3     
  31 O31           -7.6626    -6.3277    -7.9419 O.3     
  32 C32           -8.3637    -7.1084    -8.9120 C.3     
  33 F33           -7.8906    -6.7971   -10.1913 F       
  34 F34           -8.1551    -8.4678    -8.6557 F       
  35 F35           -9.7316    -6.8246    -8.8388 F       
  36 H36           -3.7335    -1.6561     1.7630 H       
  37 H37           -2.9304    -3.2195     2.0479 H       
  38 H38           -1.8078    -1.8219     0.2666 H       
  39 H39           -2.3594    -3.4116    -0.3242 H       
  40 H40           -5.4143    -1.6590    -1.8672 H       
  41 H41           -4.7392    -3.3041    -1.7322 H       
  42 H42           -6.5287    -3.0569    -0.0810 H       
  43 H43           -5.7901    -1.5632     0.5462 H       
  44 H44           -3.5058     1.9418    -2.1094 H       
  45 H45           -4.8467     2.9165    -3.9189 H       
  46 H46           -4.4618    -2.0004    -3.5031 H       
  47 H47           -6.5178    -4.5966    -6.3484 H       
  48 H48           -9.0274    -5.0539    -9.7751 H       
  49 H49           -9.2132    -2.6104    -9.9792 H       
  50 H50           -8.0637    -1.1449    -8.3754 H       
  51 H51           -8.2330    -5.1590     3.0363 H       
  52 H52           -7.3341    -4.5693     5.2760 H       
  53 H53           -5.1631    -3.3693     5.4120 H       
  54 H54           -6.6507     3.3744    -4.8643 H       
  55 H55           -5.2155     3.3959    -5.9170 H       
  56 H56           -6.8423     3.2956    -6.6322 H       
@<TRIPOS>BOND
   1    1    2 1
   2    1   23 1
   3    1    6 1
   4    2    3 1
   5    2   36 1
   6    2   37 1
   7    3    4 1
   8    3   38 1
   9    3   39 1
  10    4    5 1
  11    4    7 am
  12    5    6 1
  13    5   40 1
  14    5   41 1
  15    6   42 1
  16    6   43 1
  17    7    8 1
  18    7   15 2
  19    8    9 ar
  20    8   13 ar
  21    9   10 ar
  22    9   44 1
  23   10   11 ar
  24   10   45 1
  25   11   12 ar
  26   11   24 1
  27   12   13 ar
  28   12   14 1
  29   13   46 1
  30   14   16 3
  31   16   17 1
  32   17   18 ar
  33   17   22 ar
  34   18   19 ar
  35   18   47 1
  36   19   20 ar
  37   19   31 1
  38   20   21 ar
  39   20   48 1
  40   21   22 ar
  41   21   49 1
  42   22   50 1
  43   23   25 ar
  44   23   29 ar
  45   24   30 1
  46   25   26 ar
  47   26   27 ar
  48   26   51 1
  49   27   28 ar
  50   27   52 1
  51   28   29 ar
  52   28   53 1
  53   30   54 1
  54   30   55 1
  55   30   56 1
  56   31   32 1
  57   32   33 1
  58   32   34 1
  59   32   35 1

#	End of record

