#	Name: ASD02038642
#	Creating user name:	WinNT
#	Creation time:	15. 06. 2019 20:17

#	Modifying user name:	WinNT
#	Modification time:	15. 06. 2019 20:17

#	Program:	/corina/corina34_cracker 3.40 0067  02.08.2006

@<TRIPOS>MOLECULE
ASD02038642
  55   57    0    0    0
SMALL
NO_CHARGES


@<TRIPOS>ATOM
   1 C1            -0.0090     1.3743    -0.2307 C.ar    
   2 C2            -0.0026     0.0037    -0.0174 C.ar    
   3 O3            -1.1725    -0.6894    -0.0167 O.3     
   4 C4            -1.0918    -2.0981     0.2093 C.3     
   5 C5            -2.4973    -2.7016     0.1745 C.3     
   6 C6            -2.4243    -4.1857     0.5393 C.3     
   7 N7            -3.7738    -4.7651     0.5058 N.3     
   8 C8            -3.7212    -6.2284     0.6164 C.3     
   9 C9            -5.1263    -6.8061     0.4323 C.3     
  10 C10            1.1788     2.0787    -0.2319 C.ar    
  11 C11            2.3795     1.4148    -0.0196 C.ar    
  12 C12            2.3852     0.0430     0.1939 C.ar    
  13 C13            1.1967    -0.6602     0.1949 C.ar    
  14 N14            3.5853     2.1291    -0.0212 N.am    
  15 O15           -3.0441    -2.5600    -1.1382 O.3     
  16 C16           -4.6223    -4.1836     1.5539 C.3     
  17 C17           -6.0550    -6.2278     1.5035 C.3     
  18 C18           -6.0544    -4.7002     1.3978 C.3     
  19 C19           -7.4538    -6.7467     1.2909 C.ar    
  20 C20           -8.3021    -6.9094     2.3701 C.ar    
  21 C21           -7.8904    -7.0547     0.0160 C.ar    
  22 C22           -9.1734    -7.5307    -0.1791 C.ar    
  23 C23          -10.0198    -7.6992     0.9009 C.ar    
  24 C24           -9.5852    -7.3855     2.1751 C.ar    
  25 O25           -5.5916    -6.6170     2.7980 O.3     
  26 C26            3.6281     3.3803     0.4780 C.2     
  27 O27            2.6052     3.9211     0.8517 O.2     
  28 N28            4.8048     4.0320     0.5630 N.am    
  29 H29           -0.9426     1.8900    -0.4003 H       
  30 H30           -0.4803    -2.5564    -0.5680 H       
  31 H31           -0.6404    -2.2845     1.1838 H       
  32 H32           -3.1336    -2.1822     0.8911 H       
  33 H33           -1.7881    -4.7051    -0.1773 H       
  34 H34           -2.0073    -4.2936     1.5405 H       
  35 H35           -3.0608    -6.6272    -0.1536 H       
  36 H36           -3.3408    -6.5049     1.5997 H       
  37 H37           -5.5019    -6.5417    -0.5562 H       
  38 H38           -5.0894    -7.8911     0.5299 H       
  39 H39            1.1738     3.1458    -0.3984 H       
  40 H40            3.3188    -0.4740     0.3595 H       
  41 H41            1.2010    -1.7273     0.3613 H       
  42 H42            4.3891     1.7229    -0.3815 H       
  43 H43           -2.5281    -2.9985    -1.8285 H       
  44 H44           -4.2377    -4.4696     2.5328 H       
  45 H45           -4.6164    -3.0972     1.4648 H       
  46 H46           -6.6804    -4.2807     2.1852 H       
  47 H47           -6.4445    -4.4027     0.4245 H       
  48 H48           -7.9624    -6.6649     3.3657 H       
  49 H49           -7.2292    -6.9230    -0.8277 H       
  50 H50           -9.5148    -7.7706    -1.1752 H       
  51 H51          -11.0223    -8.0707     0.7484 H       
  52 H52          -10.2464    -7.5171     3.0188 H       
  53 H53           -6.1341    -6.2848     3.5263 H       
  54 H54            5.6208     3.6006     0.2649 H       
  55 H55            4.8356     4.9325     0.9222 H       
@<TRIPOS>BOND
   1    1    2 ar
   2    1   10 ar
   3    1   29 1
   4    2    3 1
   5    2   13 ar
   6    3    4 1
   7    4    5 1
   8    4   30 1
   9    4   31 1
  10    5    6 1
  11    5   15 1
  12    5   32 1
  13    6    7 1
  14    6   33 1
  15    6   34 1
  16    7    8 1
  17    7   16 1
  18    8    9 1
  19    8   35 1
  20    8   36 1
  21    9   17 1
  22    9   37 1
  23    9   38 1
  24   10   11 ar
  25   10   39 1
  26   11   12 ar
  27   11   14 1
  28   12   13 ar
  29   12   40 1
  30   13   41 1
  31   14   26 am
  32   14   42 1
  33   15   43 1
  34   16   18 1
  35   16   44 1
  36   16   45 1
  37   17   18 1
  38   17   19 1
  39   17   25 1
  40   18   46 1
  41   18   47 1
  42   19   20 ar
  43   19   21 ar
  44   20   24 ar
  45   20   48 1
  46   21   22 ar
  47   21   49 1
  48   22   23 ar
  49   22   50 1
  50   23   24 ar
  51   23   51 1
  52   24   52 1
  53   25   53 1
  54   26   27 2
  55   26   28 am
  56   28   54 1
  57   28   55 1

#	End of record

