#	Name: ASD00360009
#	Creating user name:	WinNT
#	Creation time:	15. 06. 2019 18:35

#	Modifying user name:	WinNT
#	Modification time:	15. 06. 2019 18:35

#	Program:	/corina/corina34_cracker 3.40 0067  02.08.2006

@<TRIPOS>MOLECULE
ASD00360009
  30   32    0    0    0
SMALL
NO_CHARGES


@<TRIPOS>ATOM
   1 C1            -0.0168     1.3867     0.0097 C.ar    
   2 C2             0.0021    -0.0041     0.0020 C.ar    
   3 C3             1.2071    -0.6882    -0.0133 C.ar    
   4 C4             2.4145     0.0086    -0.0213 C.ar    
   5 C5             2.4122     1.3978    -0.0134 C.ar    
   6 C6             1.1875     2.0970     0.0020 C.ar    
   7 C7             1.1878     3.5702     0.0103 C.2     
   8 C8             3.6837     2.1512    -0.0190 C.2     
   9 C9             3.6659     3.5961     0.2966 C.ar    
  10 C10            2.4406     4.2904     0.3104 C.ar    
  11 C11            2.4229     5.6544     0.6086 C.ar    
  12 C12            4.8458     4.2729     0.5805 C.ar    
  13 C13            4.8134     5.6271     0.8749 C.ar    
  14 C14            3.6171     6.3135     0.8898 C.ar    
  15 O15            1.2119    -2.0456    -0.0202 O.3     
  16 O16            4.7303     1.5908    -0.2791 O.2     
  17 O17            0.1664     4.1865    -0.2281 O.2     
  18 O18            1.2494     6.3337     0.6240 O.3     
  19 O19           -1.1989     2.0512     0.0189 O.3     
  20 C20            6.0962     6.3556     1.1826 C.3     
  21 Br21           4.0527    -0.9357    -0.0423 Br      
  22 Br22          -1.6256    -0.9666     0.0133 Br      
  23 H23            5.7875     3.7442     0.5722 H       
  24 H24            3.6064     7.3685     1.1204 H       
  25 H25            1.2045    -2.4345    -0.9055 H       
  26 H26            0.8110     6.3420     1.4859 H       
  27 H27           -1.5375     2.2392     0.9049 H       
  28 H28            6.5200     6.7508     0.2594 H       
  29 H29            5.8920     7.1770     1.8694 H       
  30 H30            6.8046     5.6659     1.6415 H       
@<TRIPOS>BOND
   1    1    2 ar
   2    1    6 ar
   3    1   19 1
   4    2    3 ar
   5    2   22 1
   6    3    4 ar
   7    3   15 1
   8    4    5 ar
   9    4   21 1
  10    5    6 ar
  11    5    8 1
  12    6    7 1
  13    7   10 1
  14    7   17 2
  15    8    9 1
  16    8   16 2
  17    9   12 ar
  18    9   10 ar
  19   10   11 ar
  20   11   14 ar
  21   11   18 1
  22   12   13 ar
  23   12   23 1
  24   13   14 ar
  25   13   20 1
  26   14   24 1
  27   15   25 1
  28   18   26 1
  29   19   27 1
  30   20   28 1
  31   20   29 1
  32   20   30 1

#	End of record

