#	Name: ASD07931712
#	Creating user name:	WinNT
#	Creation time:	15. 06. 2019 21:13

#	Modifying user name:	WinNT
#	Modification time:	15. 06. 2019 21:13

#	Program:	/corina/corina34_cracker 3.40 0067  02.08.2006

@<TRIPOS>MOLECULE
ASD07931712
  60   64    0    0    0
SMALL
NO_CHARGES


@<TRIPOS>ATOM
   1 C1             4.1848    -3.6173    -0.3980 C.2     
   2 C2             2.8759    -3.3210    -0.6632 C.2     
   3 C3             2.5064    -1.9284    -0.9277 C.2     
   4 N4             3.4583    -0.9793    -0.9055 N.am    
   5 C5             4.7685    -1.3025    -0.6339 C.2     
   6 C6             5.1355    -2.5892    -0.3852 C.2     
   7 C7             3.1232     0.4260    -1.1725 C.3     
   8 C8             3.9257     1.3002    -0.1973 C.3     
   9 N9             5.3575     1.0535    -0.4197 N.am    
  10 C10            5.7765    -0.2195    -0.6160 C.2     
  11 C11            6.3134     2.1636    -0.4288 C.3     
  12 O12            1.3476    -1.6331    -1.1660 O.2     
  13 N13            1.9081    -4.3294    -0.6819 N.pl3   
  14 C14            1.5052    -5.0926     0.3839 C.2     
  15 C15            1.1844    -4.7350    -1.7584 C.2     
  16 N16            0.3851    -5.6960    -1.3833 N.2     
  17 C17            0.5609    -5.9356    -0.0751 C.2     
  18 C18           -0.1720    -6.9698     0.7400 C.3     
  19 O19            6.9564    -0.4672    -0.7738 O.2     
  20 C20            5.9956     3.2416    -1.4785 C.3     
  21 C21            6.4029     4.2804    -0.4203 C.3     
  22 C22            6.0273     3.2317     0.6399 C.3     
  23 O23            6.8640     3.2094    -2.6130 O.3     
  24 C24            6.4200     3.8125    -3.7470 C.ar    
  25 C25            7.1523     3.7101    -4.9201 C.ar    
  26 C26            6.6976     4.3248    -6.0736 C.ar    
  27 C27            5.5129     5.0415    -6.0554 C.ar    
  28 C28            4.7827     5.1438    -4.8860 C.ar    
  29 C29            5.2304     4.5268    -3.7340 C.ar    
  30 C30            8.4420     2.9307    -4.9388 C.3     
  31 C31            8.3314     1.7858    -5.9477 C.3     
  32 F32            7.4098     4.2260    -7.2174 F       
  33 C33            9.5915     3.8564    -5.3419 C.3     
  34 H34            4.4820    -4.6358    -0.1956 H       
  35 H35            6.1696    -2.8195    -0.1755 H       
  36 H36            3.3892     0.6794    -2.1987 H       
  37 H37            2.0561     0.5859    -1.0178 H       
  38 H38            3.7026     2.3514    -0.3794 H       
  39 H39            3.6642     1.0396     0.8283 H       
  40 H40            7.3506     1.8289    -0.4468 H       
  41 H41            1.8743    -5.0296     1.3968 H       
  42 H42            1.2582    -4.3296    -2.7567 H       
  43 H43            0.3775    -7.9108     0.7119 H       
  44 H44           -0.2542    -6.6278     1.7717 H       
  45 H45           -1.1692    -7.1188     0.3260 H       
  46 H46            4.9415     3.2872    -1.7522 H       
  47 H47            7.4649     4.5255    -0.4351 H       
  48 H48            5.7639     5.1633    -0.4067 H       
  49 H49            4.9819     3.2747     0.9454 H       
  50 H50            6.7152     3.1993     1.4848 H       
  51 H51            5.1592     5.5216    -6.9559 H       
  52 H52            3.8590     5.7033    -4.8741 H       
  53 H53            4.6587     4.6072    -2.8212 H       
  54 H54            8.6346     2.5231    -3.9464 H       
  55 H55            7.5125     1.1263    -5.6605 H       
  56 H56            8.1388     2.1933    -6.9401 H       
  57 H57            9.2643     1.2220    -5.9612 H       
  58 H58            9.6703     4.6721    -4.6231 H       
  59 H59           10.5244     3.2927    -5.3554 H       
  60 H60            9.3989     4.2640    -6.3343 H       
@<TRIPOS>BOND
   1    1    2 2
   2    1    6 1
   3    1   34 1
   4    2    3 1
   5    2   13 1
   6    3    4 am
   7    3   12 2
   8    4    5 1
   9    4    7 1
  10    5    6 2
  11    5   10 1
  12    6   35 1
  13    7    8 1
  14    7   36 1
  15    7   37 1
  16    8    9 1
  17    8   38 1
  18    8   39 1
  19    9   10 am
  20    9   11 1
  21   10   19 2
  22   11   20 1
  23   11   22 1
  24   11   40 1
  25   13   14 1
  26   13   15 1
  27   14   17 2
  28   14   41 1
  29   15   16 2
  30   15   42 1
  31   16   17 1
  32   17   18 1
  33   18   43 1
  34   18   44 1
  35   18   45 1
  36   20   21 1
  37   20   23 1
  38   20   46 1
  39   21   22 1
  40   21   47 1
  41   21   48 1
  42   22   49 1
  43   22   50 1
  44   23   24 1
  45   24   25 ar
  46   24   29 ar
  47   25   26 ar
  48   25   30 1
  49   26   27 ar
  50   26   32 1
  51   27   28 ar
  52   27   51 1
  53   28   29 ar
  54   28   52 1
  55   29   53 1
  56   30   31 1
  57   30   33 1
  58   30   54 1
  59   31   55 1
  60   31   56 1
  61   31   57 1
  62   33   58 1
  63   33   59 1
  64   33   60 1

#	End of record

