#	Name: ASD01913891
#	Creating user name:	WinNT
#	Creation time:	15. 06. 2019 20:02

#	Modifying user name:	WinNT
#	Modification time:	15. 06. 2019 20:02

#	Program:	/corina/corina34_cracker 3.40 0067  02.08.2006

@<TRIPOS>MOLECULE
ASD01913891
  43   46    0    0    0
SMALL
NO_CHARGES


@<TRIPOS>ATOM
   1 C1            -0.0173     1.4278     0.0099 C.ar    
   2 C2             0.0021    -0.0041     0.0020 C.1     
   3 C3             0.0180    -1.1779    -0.0044 C.1     
   4 C4             0.0374    -2.6098    -0.0123 C.ar    
   5 C5            -1.1552    -3.3455    -0.0049 C.ar    
   6 C6             0.0738    -5.2913    -0.0280 C.ar    
   7 N7             1.2234    -4.6330    -0.0407 N.ar    
   8 C8             1.2495    -3.3128    -0.0336 C.ar    
   9 N9            -1.0933    -4.6646    -0.0130 N.ar    
  10 C10            1.1812     2.1463     0.0023 C.ar    
  11 C11            1.1547     3.5252     0.0095 C.ar    
  12 C12           -1.2350     2.1134     0.0194 C.ar    
  13 C13           -0.0549     4.1972     0.0242 C.ar    
  14 C14           -1.2458     3.4925     0.0264 C.ar    
  15 N15            0.0926    -6.6796    -0.0361 N.am    
  16 C16            1.2136    -7.4236    -0.0558 C.2     
  17 C17            0.8608    -8.8973    -0.0682 C.3     
  18 C18           -0.6267    -8.9185    -0.4463 C.3     
  19 C19           -1.1098    -7.5257    -0.0179 C.3     
  20 C20           -0.8231    -9.1541    -1.9427 C.3     
  21 C21           -1.6970   -10.4231    -2.0666 C.3     
  22 C22           -2.4464   -10.5034    -0.7123 C.3     
  23 C23           -1.3774   -10.0224     0.3042 C.3     
  24 O24            2.3420    -6.9794    -0.0630 O.2     
  25 H25           -2.1103    -2.8415     0.0077 H       
  26 H26            2.1905    -2.7829    -0.0443 H       
  27 H27            2.1259     1.6231    -0.0088 H       
  28 H28            2.0801     4.0818     0.0040 H       
  29 H29           -2.1652     1.5647     0.0208 H       
  30 H30           -0.0696     5.2771     0.0301 H       
  31 H31           -2.1861     4.0237     0.0375 H       
  32 H32            1.4527    -9.4259    -0.8153 H       
  33 H33            1.0106    -9.3346     0.9190 H       
  34 H34           -1.5365    -7.5653     0.9843 H       
  35 H35           -1.8445    -7.1456    -0.7277 H       
  36 H36           -1.3331    -8.3023    -2.3926 H       
  37 H37            0.1404    -9.3135    -2.4268 H       
  38 H38           -2.4051   -10.3198    -2.8888 H       
  39 H39           -1.0716   -11.3044    -2.2092 H       
  40 H40           -3.3093    -9.8374    -0.7088 H       
  41 H41           -2.7482   -11.5287    -0.4986 H       
  42 H42           -0.7012   -10.8374     0.5625 H       
  43 H43           -1.8536    -9.6211     1.1988 H       
@<TRIPOS>BOND
   1    1    2 1
   2    1   10 ar
   3    1   12 ar
   4    2    3 3
   5    3    4 1
   6    4    5 ar
   7    4    8 ar
   8    5    9 ar
   9    5   25 1
  10    6    7 ar
  11    6   15 1
  12    6    9 ar
  13    7    8 ar
  14    8   26 1
  15   10   11 ar
  16   10   27 1
  17   11   13 ar
  18   11   28 1
  19   12   14 ar
  20   12   29 1
  21   13   14 ar
  22   13   30 1
  23   14   31 1
  24   15   16 am
  25   15   19 1
  26   16   17 1
  27   16   24 2
  28   17   18 1
  29   17   32 1
  30   17   33 1
  31   18   19 1
  32   18   20 1
  33   18   23 1
  34   19   34 1
  35   19   35 1
  36   20   21 1
  37   20   36 1
  38   20   37 1
  39   21   22 1
  40   21   38 1
  41   21   39 1
  42   22   23 1
  43   22   40 1
  44   22   41 1
  45   23   42 1
  46   23   43 1

#	End of record

