#	Name: ASD01412099
#	Creating user name:	WinNT
#	Creation time:	15. 06. 2019 19:20

#	Modifying user name:	WinNT
#	Modification time:	15. 06. 2019 19:20

#	Program:	/corina/corina34_cracker 3.40 0067  02.08.2006

@<TRIPOS>MOLECULE
ASD01412099
  86   92    0    0    0
SMALL
NO_CHARGES


@<TRIPOS>ATOM
   1 C1             1.3313     3.8525    -2.6568 C.ar    
   2 C2             0.6917     2.5824    -2.6808 C.ar    
   3 C3            -0.5477     2.7577    -3.3218 C.2     
   4 C4            -0.6398     4.0605    -3.6637 C.2     
   5 N5             0.4847     4.7445    -3.2497 N.pl3   
   6 C6            -1.7179     4.7683    -4.3868 C.ar    
   7 C7            -1.3563     5.6422    -5.4181 C.ar    
   8 C8             0.0845     5.6946    -5.8355 C.3     
   9 C9             0.9748     6.5186    -4.8980 C.3     
  10 C10            0.6532     6.1823    -3.4398 C.3     
  11 C11           -1.5800     1.6905    -3.5795 C.3     
  12 C12           -0.9696     0.5901    -4.4498 C.3     
  13 C13           -2.0176    -0.4935    -4.7115 C.3     
  14 C14           -2.4760    -1.0917    -3.3800 C.3     
  15 C15           -3.0864     0.0087    -2.5097 C.3     
  16 C16           -2.0384     1.0922    -2.2480 C.3     
  17 C17            2.5905     4.0023    -2.0910 C.ar    
  18 C18            3.1834     2.8544    -1.5524 C.ar    
  19 C19            2.5432     1.6101    -1.5774 C.ar    
  20 C20            1.3032     1.4447    -2.1309 C.ar    
  21 C21            4.5222     2.9591    -0.9410 C.2     
  22 N22            5.1109     1.8660    -0.4167 N.am    
  23 O23            5.0943     4.0317    -0.9103 O.2     
  24 C24            6.4857     1.9433     0.0835 C.3     
  25 C25            6.5701     2.9428     1.2082 C.2     
  26 C26            6.9484     0.5558     0.5739 C.3     
  27 C27            7.7094    -0.0404    -0.6362 C.3     
  28 C28            8.4474     1.1915    -1.2165 C.3     
  29 C29            7.4387     2.3487    -1.0546 C.3     
  30 N30            5.5688     3.0333     2.1059 N.am    
  31 O31            7.5389     3.6659     1.3055 O.2     
  32 C32            5.5764     4.0517     3.0587 C.ar    
  33 C33            5.0353     3.8250     4.3207 C.ar    
  34 C34            5.0410     4.8267     5.2642 C.ar    
  35 C35            5.5924     6.0755     4.9529 C.ar    
  36 C36            6.1357     6.2990     3.6819 C.ar    
  37 C37            6.1303     5.2897     2.7465 C.ar    
  38 C38            5.6004     7.1485     5.9568 C.2     
  39 C39            6.1329     8.3527     5.6542 C.2     
  40 C40            6.1407     9.3880     6.6228 C.2     
  41 O41            5.6678     9.1920     7.7264 O.2     
  42 O42            6.6725    10.5907     6.3207 O.3     
  43 C43           -3.0612     4.5962    -4.0672 C.ar    
  44 C44           -3.9935     5.3498    -4.7646 C.ar    
  45 C45           -3.5566     6.2371    -5.7315 C.ar    
  46 N46           -2.2755     6.3607    -6.0255 N.ar    
  47 H47            0.4716     4.6765    -5.8764 H       
  48 H48            0.1410     6.1248    -6.8355 H       
  49 H49            2.0214     6.2908    -5.1001 H       
  50 H50            0.7975     7.5801    -5.0710 H       
  51 H51           -0.2665     6.6913    -3.1512 H       
  52 H52            1.4673     6.5327    -2.8053 H       
  53 H53           -2.4349     2.1287    -4.0945 H       
  54 H54           -0.6430     1.0163    -5.3984 H       
  55 H55           -0.1146     0.1518    -3.9349 H       
  56 H56           -2.8725    -0.0553    -5.2264 H       
  57 H57           -1.5827    -1.2774    -5.3315 H       
  58 H58           -3.2227    -1.8637    -3.5664 H       
  59 H59           -1.6211    -1.5299    -2.8650 H       
  60 H60           -3.9414     0.4469    -3.0246 H       
  61 H61           -3.4130    -0.4175    -1.5611 H       
  62 H62           -1.1835     0.6540    -1.7331 H       
  63 H63           -2.4733     1.8762    -1.6280 H       
  64 H64            3.0894     4.9599    -2.0680 H       
  65 H65            3.0429     0.7551    -1.1466 H       
  66 H66            0.8165     0.4807    -2.1453 H       
  67 H67            4.6244     1.0282    -0.3704 H       
  68 H68            7.6140     0.6565     1.4311 H       
  69 H69            6.0892    -0.0651     0.8277 H       
  70 H70            8.4212    -0.7986    -0.3095 H       
  71 H71            7.0125    -0.4524    -1.3661 H       
  72 H72            9.3552     1.3949    -0.6484 H       
  73 H73            8.6823     1.0345    -2.2693 H       
  74 H74            6.8782     2.4877    -1.9791 H       
  75 H75            7.9635     3.2678    -0.7939 H       
  76 H76            4.8430     2.3900     2.0892 H       
  77 H77            4.6099     2.8615     4.5599 H       
  78 H78            4.6205     4.6500     6.2432 H       
  79 H79            6.5617     7.2608     3.4373 H       
  80 H80            6.5495     5.4610     1.7661 H       
  81 H81            5.1806     6.9745     6.9365 H       
  82 H82            6.5528     8.5267     4.6745 H       
  83 H83            6.6321    11.2315     7.0437 H       
  84 H84           -3.3677     3.8987    -3.3017 H       
  85 H85           -5.0478     5.2449    -4.5554 H       
  86 H86           -4.2798     6.8421    -6.2581 H       
@<TRIPOS>BOND
   1    1    2 ar
   2    1   17 ar
   3    1    5 1
   4    2    3 1
   5    2   20 ar
   6    3    4 2
   7    3   11 1
   8    4    5 1
   9    4    6 1
  10    5   10 1
  11    6    7 ar
  12    6   43 ar
  13    7    8 1
  14    7   46 ar
  15    8    9 1
  16    8   47 1
  17    8   48 1
  18    9   10 1
  19    9   49 1
  20    9   50 1
  21   10   51 1
  22   10   52 1
  23   11   12 1
  24   11   16 1
  25   11   53 1
  26   12   13 1
  27   12   54 1
  28   12   55 1
  29   13   14 1
  30   13   56 1
  31   13   57 1
  32   14   15 1
  33   14   58 1
  34   14   59 1
  35   15   16 1
  36   15   60 1
  37   15   61 1
  38   16   62 1
  39   16   63 1
  40   17   18 ar
  41   17   64 1
  42   18   19 ar
  43   18   21 1
  44   19   20 ar
  45   19   65 1
  46   20   66 1
  47   21   22 am
  48   21   23 2
  49   22   24 1
  50   22   67 1
  51   24   25 1
  52   24   26 1
  53   24   29 1
  54   25   30 am
  55   25   31 2
  56   26   27 1
  57   26   68 1
  58   26   69 1
  59   27   28 1
  60   27   70 1
  61   27   71 1
  62   28   29 1
  63   28   72 1
  64   28   73 1
  65   29   74 1
  66   29   75 1
  67   30   32 1
  68   30   76 1
  69   32   33 ar
  70   32   37 ar
  71   33   34 ar
  72   33   77 1
  73   34   35 ar
  74   34   78 1
  75   35   36 ar
  76   35   38 1
  77   36   37 ar
  78   36   79 1
  79   37   80 1
  80   38   39 2
  81   38   81 1
  82   39   40 1
  83   39   82 1
  84   40   41 2
  85   40   42 1
  86   42   83 1
  87   43   44 ar
  88   43   84 1
  89   44   45 ar
  90   44   85 1
  91   45   46 ar
  92   45   86 1

#	End of record

