#	Name: ASD05490248
#	Creating user name:	WinNT
#	Creation time:	15. 06. 2019 21:01

#	Modifying user name:	WinNT
#	Modification time:	15. 06. 2019 21:01

#	Program:	/corina/corina34_cracker 3.40 0067  02.08.2006

@<TRIPOS>MOLECULE
ASD05490248
  66   69    0    0    0
SMALL
NO_CHARGES


@<TRIPOS>ATOM
   1 N1             0.0916     1.3722     0.1563 N.ar    
   2 C2             0.0912     0.0483     0.1291 C.ar    
   3 C3             1.2783    -0.6664     0.0966 C.ar    
   4 C4             2.4835     0.0293     0.0920 C.ar    
   5 C5             2.4466     1.4238     0.1176 C.ar    
   6 C6             1.2193     2.0724     0.1515 C.ar    
   7 N7             3.6982    -0.6445     0.0668 N.3     
   8 C8             3.5275    -2.0192    -0.4223 C.3     
   9 C9             4.8388    -2.7549    -0.3208 C.ar    
  10 C10            5.1538    -3.4501     0.8314 C.ar    
  11 C11            6.3568    -4.1250     0.9246 C.ar    
  12 C12            7.2443    -4.1048    -0.1348 C.ar    
  13 C13            6.9289    -3.4101    -1.2878 C.ar    
  14 C14            5.7243    -2.7390    -1.3825 C.ar    
  15 N15            7.6160    -4.5136    -3.3370 N.am    
  16 N16            1.1713     3.4637     0.1801 N.pl3   
  17 O17           -1.0906    -0.6195     0.1337 O.3     
  18 C18           -2.2815     0.1696     0.1682 C.3     
  19 N19            3.6518     2.1478     0.1049 N.am    
  20 C20            4.7079     0.0716    -0.7196 C.3     
  21 C21            4.7797     1.5125    -0.2855 C.2     
  22 O22            5.8419     2.0987    -0.2865 O.2     
  23 C23            7.8968    -3.3877    -2.4426 C.3     
  24 C24            6.7466    -4.3642    -4.3559 C.2     
  25 C25           -3.5035    -0.7511     0.1682 C.3     
  26 C26           -4.7786     0.0937     0.2052 C.3     
  27 C27           -6.0006    -0.8270     0.2052 C.3     
  28 C28            6.5436    -5.4842    -5.3435 C.3     
  29 C29            9.5275    -5.8846    -4.0062 C.3     
  30 C30            8.2804    -5.8018    -3.1238 C.3     
  31 O31            6.1275    -3.3285    -4.4780 O.2     
  32 C32           10.4286    -7.1102    -3.8425 C.3     
  33 C33            9.5554    -6.9640    -5.0903 C.3     
  34 H34            1.2681    -1.7462     0.0755 H       
  35 H35            2.7771    -2.5292     0.1817 H       
  36 H36            3.2029    -1.9970    -1.4626 H       
  37 H37            4.4603    -3.4659     1.6592 H       
  38 H38            6.6032    -4.6677     1.8252 H       
  39 H39            8.1844    -4.6315    -0.0618 H       
  40 H40            5.4779    -2.1963    -2.2831 H       
  41 H41            1.9941     3.9775     0.1764 H       
  42 H42            0.3152     3.9191     0.2039 H       
  43 H43           -2.2867     0.7802     1.0711 H       
  44 H44           -2.3142     0.8167    -0.7083 H       
  45 H45            3.6735     3.0807     0.3696 H       
  46 H46            5.6802    -0.3986    -0.5730 H       
  47 H47            4.4425     0.0255    -1.7758 H       
  48 H48            7.7868    -2.4521    -2.9908 H       
  49 H49            8.9157    -3.4696    -2.0643 H       
  50 H50           -3.4983    -1.3618    -0.7347 H       
  51 H51           -3.4709    -1.3983     1.0447 H       
  52 H52           -4.7838     0.7043     1.1081 H       
  53 H53           -4.8112     0.7408    -0.6713 H       
  54 H54           -5.9954    -1.4376    -0.6977 H       
  55 H55           -5.9679    -1.4741     1.0817 H       
  56 H56           -6.9090    -0.2251     0.2316 H       
  57 H57            7.1120    -6.3577    -5.0242 H       
  58 H58            5.4846    -5.7379    -5.3926 H       
  59 H59            6.8873    -5.1672    -6.3281 H       
  60 H60           10.0085    -4.9327    -4.2309 H       
  61 H61            8.5695    -5.8926    -2.0768 H       
  62 H62            7.5971    -6.6103    -3.3835 H       
  63 H63           11.5024    -6.9647    -3.9598 H       
  64 H64           10.1330    -7.8575    -3.1061 H       
  65 H65            8.6853    -7.6150    -5.1748 H       
  66 H66           10.0548    -6.7222    -6.0285 H       
@<TRIPOS>BOND
   1    1    2 ar
   2    1    6 ar
   3    2    3 ar
   4    2   17 1
   5    3    4 ar
   6    3   34 1
   7    4    5 ar
   8    4    7 1
   9    5    6 ar
  10    5   19 1
  11    6   16 1
  12    7    8 1
  13    7   20 1
  14    8    9 1
  15    8   35 1
  16    8   36 1
  17    9   10 ar
  18    9   14 ar
  19   10   11 ar
  20   10   37 1
  21   11   12 ar
  22   11   38 1
  23   12   13 ar
  24   12   39 1
  25   13   14 ar
  26   13   23 1
  27   14   40 1
  28   15   24 am
  29   15   23 1
  30   15   30 1
  31   16   41 1
  32   16   42 1
  33   17   18 1
  34   18   25 1
  35   18   43 1
  36   18   44 1
  37   19   21 am
  38   19   45 1
  39   20   21 1
  40   20   46 1
  41   20   47 1
  42   21   22 2
  43   23   48 1
  44   23   49 1
  45   24   28 1
  46   24   31 2
  47   25   26 1
  48   25   50 1
  49   25   51 1
  50   26   27 1
  51   26   52 1
  52   26   53 1
  53   27   54 1
  54   27   55 1
  55   27   56 1
  56   28   57 1
  57   28   58 1
  58   28   59 1
  59   29   30 1
  60   29   32 1
  61   29   33 1
  62   29   60 1
  63   30   61 1
  64   30   62 1
  65   32   33 1
  66   32   63 1
  67   32   64 1
  68   33   65 1
  69   33   66 1

#	End of record

