#	Name: ASD01151069
#	Creating user name:	WinNT
#	Creation time:	15. 06. 2019 19:05

#	Modifying user name:	WinNT
#	Modification time:	15. 06. 2019 19:05

#	Program:	/corina/corina34_cracker 3.40 0067  02.08.2006

@<TRIPOS>MOLECULE
ASD01151069
  48   50    0    0    0
SMALL
NO_CHARGES


@<TRIPOS>ATOM
   1 C1            -0.0158     1.3141     0.0093 C.ar    
   2 N2             0.0021    -0.0041     0.0020 N.ar    
   3 C3             1.1444    -0.6731    -0.0125 C.ar    
   4 C4             2.3433     0.0360    -0.0201 C.ar    
   5 C5             2.2819     1.4415    -0.0119 C.ar    
   6 N6             1.0905     2.0299     0.0025 N.ar    
   7 C7             3.6473    -0.6704    -0.0358 C.ar    
   8 C8             3.9018    -1.6896     0.8802 C.ar    
   9 C9             5.1170    -2.3434     0.8610 C.ar    
  10 C10            6.0814    -1.9890    -0.0651 C.ar    
  11 C11            5.8345    -0.9780    -0.9763 C.ar    
  12 C12            4.6206    -0.3214    -0.9704 C.ar    
  13 C13            7.4064    -2.7068    -0.0811 C.3     
  14 C14           -1.3444     2.0252     0.0193 C.3     
  15 O15           -1.7581     2.2427     1.3698 O.3     
  16 N16            3.4407     2.1973    -0.0185 N.pl3   
  17 C17            3.3613     3.6602    -0.0099 C.3     
  18 C18            4.5871     4.1954     0.5638 C.3     
  19 C19            3.1211     4.1558    -1.4506 C.3     
  20 C20            4.5622     5.7338     0.6730 C.3     
  21 C21            2.5421     5.5433    -1.3886 C.3     
  22 C22            4.8847     6.3143    -0.6773 C.3     
  23 C23            3.6210     6.6379    -1.4971 C.3     
  24 F24            7.3273    -3.8131    -0.9338 F       
  25 F25            8.4026    -1.8368    -0.5371 F       
  26 F26            7.7194    -3.1369     1.2128 F       
  27 H27            1.1467    -1.7531    -0.0179 H       
  28 H28            3.1496    -1.9668     1.6039 H       
  29 H29            5.3154    -3.1331     1.5705 H       
  30 H30            6.5914    -0.7050    -1.6967 H       
  31 H31            4.4270     0.4643    -1.6856 H       
  32 H32           -1.2471     2.9841    -0.4897 H       
  33 H33           -2.0871     1.4149    -0.4944 H       
  34 H34           -2.6076     2.6972     1.4526 H       
  35 H35            4.3058     1.7587    -0.0288 H       
  36 H36            2.5188     3.9638     0.6115 H       
  37 H37            4.7249     3.7731     1.5591 H       
  38 H38            5.4286     3.8996    -0.0627 H       
  39 H39            4.0665     4.1775    -1.9927 H       
  40 H40            2.4217     3.4894    -1.9553 H       
  41 H41            3.5711     6.0626     0.9856 H       
  42 H42            5.3058     6.0613     1.3995 H       
  43 H43            1.8319     5.6659    -2.2064 H       
  44 H44            2.0126     5.6626    -0.4434 H       
  45 H45            5.4596     7.2300    -0.5392 H       
  46 H46            5.4919     5.5994    -1.2326 H       
  47 H47            3.9011     6.7528    -2.5442 H       
  48 H48            3.2031     7.5798    -1.1418 H       
@<TRIPOS>BOND
   1    1    2 ar
   2    1    6 ar
   3    1   14 1
   4    2    3 ar
   5    3    4 ar
   6    3   27 1
   7    4    5 ar
   8    4    7 1
   9    5    6 ar
  10    5   16 1
  11    7    8 ar
  12    7   12 ar
  13    8    9 ar
  14    8   28 1
  15    9   10 ar
  16    9   29 1
  17   10   11 ar
  18   10   13 1
  19   11   12 ar
  20   11   30 1
  21   12   31 1
  22   13   24 1
  23   13   25 1
  24   13   26 1
  25   14   15 1
  26   14   32 1
  27   14   33 1
  28   15   34 1
  29   16   17 1
  30   16   35 1
  31   17   18 1
  32   17   19 1
  33   17   36 1
  34   18   20 1
  35   18   37 1
  36   18   38 1
  37   19   21 1
  38   19   39 1
  39   19   40 1
  40   20   22 1
  41   20   41 1
  42   20   42 1
  43   21   23 1
  44   21   43 1
  45   21   44 1
  46   22   23 1
  47   22   45 1
  48   22   46 1
  49   23   47 1
  50   23   48 1

#	End of record

