#	Name: ASD09740645
#	Creating user name:	WinNT
#	Creation time:	15. 06. 2019 21:23

#	Modifying user name:	WinNT
#	Modification time:	15. 06. 2019 21:23

#	Program:	/corina/corina34_cracker 3.40 0067  02.08.2006

@<TRIPOS>MOLECULE
ASD09740645
  62   66    0    0    0
SMALL
NO_CHARGES


@<TRIPOS>ATOM
   1 N1            -0.7329     1.0837     0.5652 N.2     
   2 N2            -0.6619    -0.1385     0.8675 N.2     
   3 C3             0.3692     1.7836     0.6081 C.2     
   4 S4             1.6745     0.7070     1.1092 S.3     
   5 C5             0.5077    -0.6136     1.2008 C.2     
   6 C6             0.4997     3.2217     0.2929 C.ar    
   7 C7            -0.6202     3.9547    -0.0914 C.ar    
   8 C8             1.7463     3.8473     0.3861 C.ar    
   9 C9             1.8738     5.1881     0.0934 C.ar    
  10 C10            0.7660     5.9270    -0.2961 C.ar    
  11 C11           -0.4912     5.3107    -0.3875 C.ar    
  12 O12            0.8971     7.2465    -0.5827 O.3     
  13 C13            2.2111     7.8016    -0.4965 C.3     
  14 C14            2.2933     9.0554    -1.3694 C.3     
  15 C15            2.5143     8.1712     0.9569 C.3     
  16 C16           -1.6365     6.0706    -0.7897 C.1     
  17 N17           -2.5450     6.6734    -1.1087 N.1     
  18 C18            0.8021    -2.0099     1.5868 C.ar    
  19 C19           -0.2239    -2.9587     1.6171 C.ar    
  20 C20            0.0576    -4.2604     1.9778 C.ar    
  21 C21            1.3544    -4.6216     2.3084 C.ar    
  22 C22            2.3726    -3.6867     2.2802 C.ar    
  23 C23            2.1051    -2.3835     1.9157 C.ar    
  24 C24           -1.6984    -2.8196     1.3055 C.3     
  25 C25           -2.2034    -4.2624     1.0917 C.3     
  26 C26           -1.2089    -5.0888     1.9346 C.3     
  27 N27           -0.9499    -6.3804     1.2935 N.am    
  28 C28           -0.5496    -7.4324     2.0349 C.2     
  29 O29           -0.3141    -7.2873     3.2188 O.2     
  30 N30           -0.4104    -8.6452     1.4638 N.am    
  31 C31           -0.5676    -8.8211     0.0113 C.3     
  32 C32            0.6489    -9.5897    -0.5171 C.3     
  33 O33            0.8224   -10.7824     0.2517 O.3     
  34 C34            1.0973   -10.5519     1.6356 C.3     
  35 C35           -0.0907    -9.8316     2.2735 C.3     
  36 H36           -1.5850     3.4743    -0.1601 H       
  37 H37            2.6126     3.2780     0.6890 H       
  38 H38            2.8398     5.6655     0.1677 H       
  39 H39            2.9388     7.0684    -0.8443 H       
  40 H40            1.5656     9.7886    -1.0216 H       
  41 H41            3.2956     9.4788    -1.3036 H       
  42 H42            2.0773     8.7921    -2.4048 H       
  43 H43            2.4557     7.2779     1.5788 H       
  44 H44            3.5165     8.5946     1.0227 H       
  45 H45            1.7866     8.9044     1.3047 H       
  46 H46            1.5711    -5.6413     2.5905 H       
  47 H47            3.3796    -3.9782     2.5396 H       
  48 H48            2.9003    -1.6530     1.8937 H       
  49 H49           -2.2200    -2.3565     2.1432 H       
  50 H50           -1.8396    -2.2311     0.3990 H       
  51 H51           -3.2197    -4.3772     1.4686 H       
  52 H52           -2.1451    -4.5415     0.0396 H       
  53 H53           -1.5986    -5.2369     2.9417 H       
  54 H54           -1.0664    -6.4784     0.3356 H       
  55 H55           -1.4766    -9.3866    -0.1938 H       
  56 H56           -0.6243    -7.8460    -0.4726 H       
  57 H57            0.4883    -9.8509    -1.5631 H       
  58 H58            1.5392    -8.9671    -0.4292 H       
  59 H59            1.2592   -11.5054     2.1383 H       
  60 H60            1.9893    -9.9328     1.7314 H       
  61 H61            0.1663    -9.5271     3.2881 H       
  62 H62           -0.9539   -10.4967     2.2969 H       
@<TRIPOS>BOND
   1    1    2 1
   2    1    3 2
   3    2    5 2
   4    3    4 1
   5    3    6 1
   6    4    5 1
   7    5   18 1
   8    6    7 ar
   9    6    8 ar
  10    7   11 ar
  11    7   36 1
  12    8    9 ar
  13    8   37 1
  14    9   10 ar
  15    9   38 1
  16   10   11 ar
  17   10   12 1
  18   11   16 1
  19   12   13 1
  20   13   14 1
  21   13   15 1
  22   13   39 1
  23   14   40 1
  24   14   41 1
  25   14   42 1
  26   15   43 1
  27   15   44 1
  28   15   45 1
  29   16   17 3
  30   18   19 ar
  31   18   23 ar
  32   19   20 ar
  33   19   24 1
  34   20   21 ar
  35   20   26 1
  36   21   22 ar
  37   21   46 1
  38   22   23 ar
  39   22   47 1
  40   23   48 1
  41   24   25 1
  42   24   49 1
  43   24   50 1
  44   25   26 1
  45   25   51 1
  46   25   52 1
  47   26   27 1
  48   26   53 1
  49   27   28 am
  50   27   54 1
  51   28   29 2
  52   28   30 am
  53   30   31 1
  54   30   35 1
  55   31   32 1
  56   31   55 1
  57   31   56 1
  58   32   33 1
  59   32   57 1
  60   32   58 1
  61   33   34 1
  62   34   35 1
  63   34   59 1
  64   34   60 1
  65   35   61 1
  66   35   62 1

#	End of record

