#	Name: ASD02500206
#	Creating user name:	WinNT
#	Creation time:	15. 06. 2019 20:22

#	Modifying user name:	WinNT
#	Modification time:	15. 06. 2019 20:22

#	Program:	/corina/corina34_cracker 3.40 0067  02.08.2006

@<TRIPOS>MOLECULE
ASD02500206
  58   62    0    0    0
SMALL
NO_CHARGES


@<TRIPOS>ATOM
   1 N1            -5.7526     4.4944     1.1733 N.ar    
   2 C2            -7.0087     4.8593     1.0881 C.ar    
   3 C3            -7.9857     4.3257     1.9261 C.ar    
   4 C4            -7.6436     3.3965     2.8667 C.ar    
   5 C5            -6.2937     3.0067     2.9550 C.ar    
   6 C6            -5.8670     2.0574     3.8971 C.ar    
   7 C7            -4.5522     1.7071     3.9512 C.ar    
   8 C8            -3.6238     2.2788     3.0840 C.ar    
   9 C9            -4.0028     3.2021     2.1586 C.ar    
  10 C10           -5.3512     3.5896     2.0718 C.ar    
  11 S11           -2.8077     3.9098     1.0744 S.o2    
  12 O12           -2.9853     5.3178     1.1456 O.2     
  13 O13           -1.5738     3.2665     1.3626 O.2     
  14 N14           -3.2189     3.4638    -0.4665 N.am    
  15 C15           -3.1521     2.1275    -0.8448 C.ar    
  16 C16           -2.7500     1.7897    -2.1344 C.ar    
  17 C17           -2.6829     0.4683    -2.5117 C.ar    
  18 C18           -3.0189    -0.5358    -1.5986 C.ar    
  19 C19           -3.4221    -0.1935    -0.3048 C.ar    
  20 C20           -3.4818     1.1299     0.0683 C.ar    
  21 C21           -2.3885     2.8727    -3.1180 C.3     
  22 C22           -2.9485    -1.9536    -2.0001 C.2     
  23 O23           -3.3557    -2.2969    -3.0932 O.2     
  24 N24           -2.4329    -2.8684    -1.1553 N.am    
  25 C25           -2.2637    -4.2656    -1.5783 C.3     
  26 C26           -0.7978    -4.6663    -1.3713 C.3     
  27 N27           -0.3941    -4.2843    -0.0108 N.am    
  28 C28           -0.5633    -2.8870     0.4122 C.3     
  29 C29           -2.0240    -2.4852     0.2033 C.3     
  30 C30            0.1215    -5.1991     0.8340 C.2     
  31 O31            0.1413    -6.3737     0.5200 O.2     
  32 S32            1.5956    -4.6156     4.4017 S.3     
  33 N33            1.2958    -3.2702     3.6626 N.2     
  34 N34            0.8178    -3.5085     2.5058 N.2     
  35 C35            0.6618    -4.7756     2.1390 C.2     
  36 C36            1.0670    -5.6468     3.1293 C.2     
  37 H37           -7.2939     5.5933     0.3489 H       
  38 H38           -9.0126     4.6469     1.8321 H       
  39 H39           -8.3879     2.9728     3.5246 H       
  40 H40           -6.5773     1.6078     4.5751 H       
  41 H41           -4.2248     0.9766     4.6763 H       
  42 H42           -2.5865     1.9848     3.1472 H       
  43 H43           -3.5063     4.1349    -1.1052 H       
  44 H44           -2.3714     0.2070    -3.5122 H       
  45 H45           -3.6823    -0.9669     0.4027 H       
  46 H46           -3.7887     1.3948     1.0693 H       
  47 H47           -1.3240     3.0938    -3.0400 H       
  48 H48           -2.6165     2.5359    -4.1293 H       
  49 H49           -2.9636     3.7717    -2.8962 H       
  50 H50           -2.9071    -4.9098    -0.9789 H       
  51 H51           -2.5242    -4.3629    -2.6322 H       
  52 H52           -0.6921    -5.7440    -1.4952 H       
  53 H53           -0.1711    -4.1488    -2.0977 H       
  54 H54           -0.3028    -2.7898     1.4661 H       
  55 H55            0.0801    -2.2429    -0.1872 H       
  56 H56           -2.1263    -1.4069     0.3257 H       
  57 H57           -2.6499    -2.9996     0.9325 H       
  58 H58            1.0554    -6.7266     3.1102 H       
@<TRIPOS>BOND
   1    1    2 ar
   2    1   10 ar
   3    2    3 ar
   4    2   37 1
   5    3    4 ar
   6    3   38 1
   7    4    5 ar
   8    4   39 1
   9    5    6 ar
  10    5   10 ar
  11    6    7 ar
  12    6   40 1
  13    7    8 ar
  14    7   41 1
  15    8    9 ar
  16    8   42 1
  17    9   10 ar
  18    9   11 1
  19   11   12 2
  20   11   13 2
  21   11   14 am
  22   14   15 1
  23   14   43 1
  24   15   16 ar
  25   15   20 ar
  26   16   17 ar
  27   16   21 1
  28   17   18 ar
  29   17   44 1
  30   18   19 ar
  31   18   22 1
  32   19   20 ar
  33   19   45 1
  34   20   46 1
  35   21   47 1
  36   21   48 1
  37   21   49 1
  38   22   23 2
  39   22   24 am
  40   24   25 1
  41   24   29 1
  42   25   26 1
  43   25   50 1
  44   25   51 1
  45   26   27 1
  46   26   52 1
  47   26   53 1
  48   27   28 1
  49   27   30 am
  50   28   29 1
  51   28   54 1
  52   28   55 1
  53   29   56 1
  54   29   57 1
  55   30   31 2
  56   30   35 1
  57   32   33 1
  58   32   36 1
  59   33   34 2
  60   34   35 1
  61   35   36 2
  62   36   58 1

#	End of record

