#	Name: ASD01912299
#	Creating user name:	WinNT
#	Creation time:	15. 06. 2019 19:59

#	Modifying user name:	WinNT
#	Modification time:	15. 06. 2019 19:59

#	Program:	/corina/corina34_cracker 3.40 0067  02.08.2006

@<TRIPOS>MOLECULE
ASD01912299
  60   63    0    0    0
SMALL
NO_CHARGES


@<TRIPOS>ATOM
   1 C1            -0.0187     1.5310     0.0105 C.3     
   2 C2             0.0021    -0.0041     0.0020 C.2     
   3 C3             0.5192    -0.4072     1.3752 C.3     
   4 C4             0.7671     0.9399     2.1210 C.3     
   5 C5             2.0061     1.5564     1.4015 C.3     
   6 C6             1.4849     1.9434    -0.0017 C.3     
   7 C7            -0.3861     1.8130     1.5098 C.3     
   8 O8            -0.3228    -0.7359    -0.9020 O.2     
   9 C9            -0.9004     2.1918    -1.0511 C.3     
  10 S10           -0.3104     1.7265    -2.7022 S.o2    
  11 O11            0.9572     2.3136    -2.9626 O.2     
  12 O12           -0.5415     0.3453    -2.9433 O.2     
  13 N13           -1.3405     2.5006    -3.7424 N.am    
  14 C14           -1.0351     3.8558    -4.2188 C.3     
  15 C15           -0.9796     3.8394    -5.7517 C.3     
  16 C16           -2.2217     3.1468    -6.2678 C.2     
  17 C17           -2.5539     1.7717    -5.7314 C.3     
  18 C18           -2.5669     1.8375    -4.2038 C.3     
  19 C19           -3.0043     3.7338    -7.1723 C.2     
  20 C20           -4.1759     3.0625    -7.6489 C.1     
  21 C21           -5.1365     2.5121    -8.0396 C.1     
  22 C22           -6.3082     1.8408    -8.5162 C.ar    
  23 C23           -7.1258     2.4611    -9.4654 C.ar    
  24 C24           -8.2534     1.7991    -9.9150 C.ar    
  25 C25           -8.5308     0.5380    -9.4038 C.ar    
  26 C26           -7.6794    -0.0179    -8.4665 C.ar    
  27 N27           -6.6079     0.6292    -8.0569 N.ar    
  28 C28           -7.9786    -1.3863    -7.9105 C.3     
  29 C29           -0.2396     3.2929     1.8695 C.3     
  30 C30           -1.7708     1.2738     1.8742 C.3     
  31 H31           -0.2277    -1.0007     1.9025 H       
  32 H32            1.4507    -0.9654     1.2808 H       
  33 H33            0.8233     0.8830     3.2080 H       
  34 H34            2.3551     2.4406     1.9351 H       
  35 H35            2.8051     0.8194     1.3209 H       
  36 H36            2.0239     1.3928    -0.7726 H       
  37 H37            1.5833     3.0172    -0.1610 H       
  38 H38           -1.9307     1.8589    -0.9263 H       
  39 H39           -0.8525     3.2751    -0.9401 H       
  40 H40           -1.8138     4.5433    -3.8887 H       
  41 H41           -0.0712     4.1741    -3.8216 H       
  42 H42           -0.9460     4.8617    -6.1286 H       
  43 H43           -0.0933     3.2971    -6.0810 H       
  44 H44           -3.5339     1.4628    -6.0953 H       
  45 H45           -1.7984     1.0576    -6.0591 H       
  46 H46           -2.6114     0.8273    -3.7968 H       
  47 H47           -3.4362     2.4057    -3.8728 H       
  48 H48           -2.7550     4.7159    -7.5461 H       
  49 H49           -6.8806     3.4433    -9.8416 H       
  50 H50           -8.9044     2.2530   -10.6475 H       
  51 H51           -9.4043    -0.0038    -9.7352 H       
  52 H52           -7.4990    -2.1434    -8.5310 H       
  53 H53           -7.5968    -1.4561    -6.8920 H       
  54 H54           -9.0563    -1.5492    -7.9065 H       
  55 H55           -0.9021     3.8870     1.2401 H       
  56 H56           -0.5044     3.4402     2.9166 H       
  57 H57            0.7920     3.6056     1.7081 H       
  58 H58           -1.7940     0.1956     1.7159 H       
  59 H59           -1.9818     1.4920     2.9210 H       
  60 H60           -2.5231     1.7496     1.2450 H       
@<TRIPOS>BOND
   1    1    2 1
   2    1    6 1
   3    1    7 1
   4    1    9 1
   5    2    3 1
   6    2    8 2
   7    3    4 1
   8    3   31 1
   9    3   32 1
  10    4    5 1
  11    4    7 1
  12    4   33 1
  13    5    6 1
  14    5   34 1
  15    5   35 1
  16    6   36 1
  17    6   37 1
  18    7   29 1
  19    7   30 1
  20    9   10 1
  21    9   38 1
  22    9   39 1
  23   10   11 2
  24   10   12 2
  25   10   13 am
  26   13   14 1
  27   13   18 1
  28   14   15 1
  29   14   40 1
  30   14   41 1
  31   15   16 1
  32   15   42 1
  33   15   43 1
  34   16   17 1
  35   16   19 2
  36   17   18 1
  37   17   44 1
  38   17   45 1
  39   18   46 1
  40   18   47 1
  41   19   20 1
  42   19   48 1
  43   20   21 3
  44   21   22 1
  45   22   23 ar
  46   22   27 ar
  47   23   24 ar
  48   23   49 1
  49   24   25 ar
  50   24   50 1
  51   25   26 ar
  52   25   51 1
  53   26   27 ar
  54   26   28 1
  55   28   52 1
  56   28   53 1
  57   28   54 1
  58   29   55 1
  59   29   56 1
  60   29   57 1
  61   30   58 1
  62   30   59 1
  63   30   60 1

#	End of record

