#	Name: ASD02500179
#	Creating user name:	WinNT
#	Creation time:	15. 06. 2019 20:22

#	Modifying user name:	WinNT
#	Modification time:	15. 06. 2019 20:22

#	Program:	/corina/corina34_cracker 3.40 0067  02.08.2006

@<TRIPOS>MOLECULE
ASD02500179
  62   66    0    0    0
SMALL
NO_CHARGES


@<TRIPOS>ATOM
   1 N1            -5.1935     4.9309     0.7609 N.ar    
   2 C2            -6.4033     5.4053     0.5891 C.ar    
   3 C3            -7.4706     4.9984     1.3869 C.ar    
   4 C4            -7.2694     4.0814     2.3788 C.ar    
   5 C5            -5.9690     3.5737     2.5602 C.ar    
   6 C6            -5.6856     2.6290     3.5592 C.ar    
   7 C7            -4.4144     2.1625     3.7031 C.ar    
   8 C8            -3.3901     2.6106     2.8718 C.ar    
   9 C9            -3.6294     3.5257     1.8932 C.ar    
  10 C10           -4.9287     4.0310     1.7135 C.ar    
  11 S11           -2.3153     4.0758     0.8562 S.o2    
  12 O12           -2.3574     5.4960     0.8745 O.2     
  13 O13           -1.1674     3.3273     1.2321 O.2     
  14 N14           -2.6868     3.6168    -0.6909 N.am    
  15 C15           -2.7068     2.2686    -1.0303 C.ar    
  16 C16           -2.3268     1.8683    -2.3087 C.ar    
  17 C17           -2.3455     0.5349    -2.6476 C.ar    
  18 C18           -2.7465    -0.4184    -1.7068 C.ar    
  19 C19           -3.1274    -0.0134    -0.4243 C.ar    
  20 C20           -3.1011     1.3213    -0.0897 C.ar    
  21 C21           -2.7682    -1.8488    -2.0670 C.2     
  22 O22           -3.2065    -2.1974    -3.1463 O.2     
  23 N23           -2.3021    -2.7693    -1.1999 N.am    
  24 C24           -2.2278    -4.1865    -1.5816 C.3     
  25 C25           -0.7881    -4.6743    -1.3772 C.3     
  26 N26           -0.3446    -4.2786    -0.0331 N.am    
  27 C27           -0.4189    -2.8614     0.3486 C.3     
  28 C28           -1.8533    -2.3728     0.1423 C.3     
  29 C29            0.1215    -5.1991     0.8340 C.2     
  30 C30            0.6632    -4.7745     2.1424 C.ar    
  31 C31            1.3704    -3.5720     2.2639 C.ar    
  32 C32            1.8562    -3.2201     3.5106 C.ar    
  33 C33            1.6300    -4.0593     4.5871 C.ar    
  34 N34            0.9604    -5.1868     4.4427 N.ar    
  35 C35            0.4734    -5.5623     3.2782 C.ar    
  36 O36            0.0966    -6.3783     0.5403 O.2     
  37 C37           -1.8951     2.8965    -3.3222 C.3     
  38 H38           -6.5773     6.1312    -0.1915 H       
  39 H39           -8.4561     5.4081     1.2213 H       
  40 H40           -8.0852     3.7550     3.0068 H       
  41 H41           -6.4711     2.2747     4.2102 H       
  42 H42           -4.1973     1.4357     4.4719 H       
  43 H43           -2.3900     2.2258     3.0063 H       
  44 H44           -2.8905     4.2886    -1.3604 H       
  45 H45           -2.0510     0.2250    -3.6394 H       
  46 H46           -3.4376    -0.7475     0.3046 H       
  47 H47           -3.3907     1.6345     0.9025 H       
  48 H48           -2.9038    -4.7697    -0.9564 H       
  49 H49           -2.5066    -4.2983    -2.6294 H       
  50 H50           -0.7531    -5.7598    -1.4692 H       
  51 H51           -0.1383    -4.2202    -2.1253 H       
  52 H52           -0.1401    -2.7496     1.3964 H       
  53 H53            0.2572    -2.2782    -0.2766 H       
  54 H54           -1.8849    -1.2870     0.2327 H       
  55 H55           -2.5021    -2.8239     0.8930 H       
  56 H56            1.5327    -2.9359     1.4063 H       
  57 H57            2.4065    -2.3002     3.6420 H       
  58 H58            2.0081    -3.7870     5.5614 H       
  59 H59           -0.0736    -6.4903     3.2007 H       
  60 H60           -0.8186     3.0502    -3.2480 H       
  61 H61           -2.1440     2.5461    -4.3239 H       
  62 H62           -2.4107     3.8370    -3.1279 H       
@<TRIPOS>BOND
   1    1    2 ar
   2    1   10 ar
   3    2    3 ar
   4    2   38 1
   5    3    4 ar
   6    3   39 1
   7    4    5 ar
   8    4   40 1
   9    5    6 ar
  10    5   10 ar
  11    6    7 ar
  12    6   41 1
  13    7    8 ar
  14    7   42 1
  15    8    9 ar
  16    8   43 1
  17    9   10 ar
  18    9   11 1
  19   11   12 2
  20   11   13 2
  21   11   14 am
  22   14   15 1
  23   14   44 1
  24   15   16 ar
  25   15   20 ar
  26   16   17 ar
  27   16   37 1
  28   17   18 ar
  29   17   45 1
  30   18   19 ar
  31   18   21 1
  32   19   20 ar
  33   19   46 1
  34   20   47 1
  35   21   22 2
  36   21   23 am
  37   23   24 1
  38   23   28 1
  39   24   25 1
  40   24   48 1
  41   24   49 1
  42   25   26 1
  43   25   50 1
  44   25   51 1
  45   26   27 1
  46   26   29 am
  47   27   28 1
  48   27   52 1
  49   27   53 1
  50   28   54 1
  51   28   55 1
  52   29   30 1
  53   29   36 2
  54   30   31 ar
  55   30   35 ar
  56   31   32 ar
  57   31   56 1
  58   32   33 ar
  59   32   57 1
  60   33   34 ar
  61   33   58 1
  62   34   35 ar
  63   35   59 1
  64   37   60 1
  65   37   61 1
  66   37   62 1

#	End of record

