#	Name: ASD01885641
#	Creating user name:	WinNT
#	Creation time:	15. 06. 2019 19:49

#	Modifying user name:	WinNT
#	Modification time:	15. 06. 2019 19:49

#	Program:	/corina/corina34_cracker 3.40 0067  02.08.2006

@<TRIPOS>MOLECULE
ASD01885641
  35   37    0    0    0
SMALL
NO_CHARGES


@<TRIPOS>ATOM
   1 C1            -0.0170     1.4044     0.0098 C.ar    
   2 C2             1.2141     2.1085     0.0018 C.ar    
   3 C3             1.1965     3.5261     0.0097 C.ar    
   4 C4            -0.0387     4.1605     0.0249 C.ar    
   5 C5            -1.2081     3.3918     0.0319 C.ar    
   6 N6            -1.1698     2.0727     0.0299 N.ar    
   7 C7             0.0021    -0.0041     0.0020 C.ar    
   8 C8             1.1921    -0.6626    -0.0129 C.ar    
   9 C9             2.3994     0.0339    -0.0208 C.ar    
  10 C10            2.4204     1.3963    -0.0132 C.ar    
  11 C11            2.4550     4.3053     0.0024 C.ar    
  12 C12           -2.5232     4.0766     0.0481 C.2     
  13 N13           -3.6600     3.3527     0.0550 N.am    
  14 O14           -2.5759     5.2905     0.0552 O.2     
  15 C15            1.2056    -2.1696    -0.0206 C.3     
  16 C16            2.6306     5.3386    -0.9201 C.ar    
  17 C17            3.8003     6.0639    -0.9272 C.ar    
  18 C18            4.8126     5.7658    -0.0107 C.ar    
  19 C19            4.6361     4.7313     0.9124 C.ar    
  20 C20            3.4637     4.0104     0.9218 C.ar    
  21 C21            6.0301     6.5197    -0.0178 C.1     
  22 N22            6.9959     7.1177    -0.0234 N.1     
  23 H23           -0.0965     5.2389     0.0268 H       
  24 H24           -0.9245    -0.5589     0.0083 H       
  25 H25            3.3303    -0.5134    -0.0327 H       
  26 H26            3.3624     1.9245    -0.0191 H       
  27 H27           -3.6179     2.3836     0.0494 H       
  28 H28           -4.5202     3.8007     0.0657 H       
  29 H29            1.1988    -2.5277    -1.0501 H       
  30 H30            2.1037    -2.5275     0.4826 H       
  31 H31            0.3239    -2.5434     0.5000 H       
  32 H32            1.8485     5.5686    -1.6285 H       
  33 H33            3.9362     6.8629    -1.6410 H       
  34 H34            5.4178     4.5004     1.6209 H       
  35 H35            3.3272     3.2110     1.6350 H       
@<TRIPOS>BOND
   1    1    7 ar
   2    1    2 ar
   3    1    6 ar
   4    2    3 ar
   5    2   10 ar
   6    3   11 1
   7    3    4 ar
   8    4    5 ar
   9    4   23 1
  10    5   12 1
  11    5    6 ar
  12    7    8 ar
  13    7   24 1
  14    8    9 ar
  15    8   15 1
  16    9   10 ar
  17    9   25 1
  18   10   26 1
  19   11   16 ar
  20   11   20 ar
  21   12   13 am
  22   12   14 2
  23   13   27 1
  24   13   28 1
  25   15   29 1
  26   15   30 1
  27   15   31 1
  28   16   17 ar
  29   16   32 1
  30   17   18 ar
  31   17   33 1
  32   18   19 ar
  33   18   21 1
  34   19   20 ar
  35   19   34 1
  36   20   35 1
  37   21   22 3

#	End of record

