#	Name: ASD01901581
#	Creating user name:	WinNT
#	Creation time:	15. 06. 2019 19:54

#	Modifying user name:	WinNT
#	Modification time:	15. 06. 2019 19:54

#	Program:	/corina/corina34_cracker 3.40 0067  02.08.2006

@<TRIPOS>MOLECULE
ASD01901581
  53   57    0    0    0
SMALL
NO_CHARGES


@<TRIPOS>ATOM
   1 C1            -0.0178     1.4599     0.0101 C.3     
   2 N2             0.0021    -0.0041     0.0020 N.am    
   3 C3             0.0143    -0.6270    -1.1942 C.2     
   4 O4             0.1227     0.0462    -2.2012 O.2     
   5 N5            -0.1088    -1.9581    -1.3079 N.am    
   6 C6            -0.4153    -2.7155    -0.2375 C.2     
   7 O7            -0.3700    -3.9228    -0.3070 O.2     
   8 C8            -0.8349    -2.0389     1.0423 C.3     
   9 C9             0.0243    -0.7754     1.2409 C.3     
  10 C10           -0.5521    -0.0035     2.4221 C.3     
  11 C11            0.4883     0.8467     3.1435 C.3     
  12 C12            1.5454    -0.0647     3.7846 C.3     
  13 C13            2.1165    -0.9171     2.6781 C.2     
  14 N14            3.3177    -1.5092     2.6164 N.pl3   
  15 H15            4.0021    -1.4919     3.3040 H       
  16 N16            3.4103    -2.1566     1.3753 N.2     
  17 C17            2.2801    -1.9783     0.7358 C.2     
  18 C18            1.4358    -1.2150     1.5420 C.2     
  19 C19            0.0792    -2.5694    -2.5561 C.ar    
  20 C20           -1.0014    -2.7376    -3.4161 C.ar    
  21 F21           -2.2294    -2.3116    -3.0480 F       
  22 C22           -0.8201    -3.3387    -4.6450 C.ar    
  23 C23            0.4510    -3.7788    -5.0252 C.ar    
  24 C24            1.5343    -3.6081    -4.1585 C.ar    
  25 C25            1.3467    -3.0010    -2.9335 C.ar    
  26 F26            2.3942    -2.8306    -2.0975 F       
  27 C27            0.6428    -4.4034    -6.2995 C.1     
  28 C28            0.8001    -4.9155    -7.3441 C.1     
  29 C29            0.9919    -5.5401    -8.6184 C.ar    
  30 C30           -0.0889    -5.7069    -9.4884 C.ar    
  31 C31            0.1035    -6.3094   -10.7140 C.ar    
  32 C32            1.3629    -6.7484   -11.0829 C.ar    
  33 C33            2.4378    -6.5870   -10.2265 C.ar    
  34 C34            2.2619    -5.9807    -9.0003 C.ar    
  35 H35            1.0048     1.8371     0.0023 H       
  36 H36           -0.5450     1.8209    -0.8730 H       
  37 H37           -0.5280     1.8114     0.9069 H       
  38 H38           -1.8817    -1.7502     0.9825 H       
  39 H39           -0.6781    -2.7098     1.8841 H       
  40 H40           -1.3876     0.6213     2.1019 H       
  41 H41           -0.9608    -0.7307     3.1439 H       
  42 H42            0.9786     1.5303     2.4550 H       
  43 H43           -0.0002     1.4278     3.9309 H       
  44 H44            2.3318     0.5392     4.2308 H       
  45 H45            1.0796    -0.6972     4.5366 H       
  46 H46            2.0483    -2.3576    -0.2478 H       
  47 H47           -1.6594    -3.4693    -5.3120 H       
  48 H48            2.5177    -3.9472    -4.4489 H       
  49 H49           -1.0725    -5.3652    -9.2016 H       
  50 H50           -0.7309    -6.4394   -11.3872 H       
  51 H51            1.5076    -7.2195   -12.0439 H       
  52 H52            3.4178    -6.9324   -10.5210 H       
  53 H53            3.1027    -5.8508    -8.3350 H       
@<TRIPOS>BOND
   1    1    2 1
   2    1   35 1
   3    1   36 1
   4    1   37 1
   5    2    9 1
   6    2    3 am
   7    3    4 2
   8    3    5 am
   9    5    6 am
  10    5   19 1
  11    6    7 2
  12    6    8 1
  13    8    9 1
  14    8   38 1
  15    8   39 1
  16    9   18 1
  17    9   10 1
  18   10   11 1
  19   10   40 1
  20   10   41 1
  21   11   12 1
  22   11   42 1
  23   11   43 1
  24   12   13 1
  25   12   44 1
  26   12   45 1
  27   13   18 2
  28   13   14 1
  29   14   15 1
  30   14   16 1
  31   16   17 2
  32   17   18 1
  33   17   46 1
  34   19   25 ar
  35   19   20 ar
  36   20   21 1
  37   20   22 ar
  38   22   23 ar
  39   22   47 1
  40   23   24 ar
  41   23   27 1
  42   24   25 ar
  43   24   48 1
  44   25   26 1
  45   27   28 3
  46   28   29 1
  47   29   34 ar
  48   29   30 ar
  49   30   31 ar
  50   30   49 1
  51   31   32 ar
  52   31   50 1
  53   32   33 ar
  54   32   51 1
  55   33   34 ar
  56   33   52 1
  57   34   53 1

#	End of record

