#	Name: ASD01470046
#	Creating user name:	WinNT
#	Creation time:	15. 06. 2019 19:21

#	Modifying user name:	WinNT
#	Modification time:	15. 06. 2019 19:21

#	Program:	/corina/corina34_cracker 3.40 0067  02.08.2006

@<TRIPOS>MOLECULE
ASD01470046
  86   92    0    0    0
SMALL
NO_CHARGES


@<TRIPOS>ATOM
   1 N1            -1.6778     1.4908     0.5556 N.am    
   2 C2            -0.3448     1.0552     0.1482 C.3     
   3 C3             0.2167     0.0248     1.1381 C.3     
   4 C4            -0.2392    -1.3878     0.8066 C.3     
   5 C5            -1.6154    -1.3923     0.1617 C.3     
   6 N6            -2.5801    -0.6664     0.9887 N.am    
   7 C7            -2.6256     0.6773     0.9931 C.2     
   8 O8            -3.6358     1.1927     1.4313 O.2     
   9 C9            -3.5120    -1.4179     1.8331 C.3     
  10 C10           -1.9837     2.9216     0.4807 C.3     
  11 C11           -1.7107     3.5642     1.8163 C.ar    
  12 C12           -2.9391    -1.5483     3.2208 C.ar    
  13 C13           -3.0834    -0.5236     4.1105 C.ar    
  14 C14           -2.5514    -0.6460     5.3991 C.ar    
  15 C15           -1.8730    -1.8249     5.7637 C.ar    
  16 C16           -1.7419    -2.8540     4.8343 C.ar    
  17 C17           -2.2740    -2.7130     3.5842 C.ar    
  18 C18           -0.4289     3.9776     2.1341 C.ar    
  19 C19           -0.1682     4.5693     3.3580 C.ar    
  20 C20           -1.1854     4.7507     4.2707 C.ar    
  21 C21           -2.4837     4.3355     3.9570 C.ar    
  22 C22           -2.7401     3.7438     2.7163 C.ar    
  23 C23           -2.5203     0.2239     6.5703 C.2     
  24 N24           -1.8817    -0.4043     7.5157 N.2     
  25 N25           -1.4688    -1.6617     7.0629 N.pl3   
  26 C26           -0.4238     0.4255    -1.2440 C.3     
  27 O27            1.6444     0.0731     1.0986 O.3     
  28 C28            0.4207     1.2226    -2.2045 C.ar    
  29 C29            1.7236     0.8390    -2.4616 C.ar    
  30 C30            2.4983     1.5701    -3.3426 C.ar    
  31 C31            1.9699     2.6846    -3.9668 C.ar    
  32 C32            0.6667     3.0676    -3.7104 C.ar    
  33 C33           -0.1094     2.3340    -2.8327 C.ar    
  34 C34           -2.0863    -2.8378    -0.0105 C.3     
  35 O35           -0.2845    -2.1582     2.0093 O.3     
  36 C36           -1.1717    -3.5531    -0.9712 C.ar    
  37 C37           -0.0256    -4.1697    -0.5053 C.ar    
  38 C38            0.8134    -4.8257    -1.3865 C.ar    
  39 C39            0.5061    -4.8655    -2.7337 C.ar    
  40 C40           -0.6405    -4.2496    -3.1995 C.ar    
  41 C41           -1.4817    -3.5973    -2.3177 C.ar    
  42 C42           -3.5752     4.5250     4.9258 C.2     
  43 C43           -3.3214     5.2707     6.2105 C.3     
  44 O44           -4.6788     4.0812     4.6902 O.2     
  45 N45           -4.5236     5.2263     7.0466 N.pl3   
  46 C46           -4.6072     4.7885     8.3149 C.2     
  47 N47           -5.8493     4.9132     8.7063 N.2     
  48 C48           -6.5849     5.4247     7.7200 C.2     
  49 N49           -5.8164     5.6384     6.6845 N.2     
  50 H50            0.3199     1.9183     0.1128 H       
  51 H51           -0.1203     0.2790     2.1430 H       
  52 H52            0.4768    -1.8415     0.1214 H       
  53 H53           -1.5542    -0.9186    -0.8181 H       
  54 H54           -4.4648    -0.8906     1.8813 H       
  55 H55           -3.6670    -2.4101     1.4093 H       
  56 H56           -1.3587     3.3874    -0.2811 H       
  57 H57           -3.0338     3.0555     0.2209 H       
  58 H58           -3.6049     0.3769     3.8217 H       
  59 H59           -1.2234    -3.7626     5.1025 H       
  60 H60           -2.1701    -3.5138     2.8670 H       
  61 H61            0.3723     3.8376     1.4235 H       
  62 H62            0.8348     4.8894     3.5987 H       
  63 H63           -0.9803     5.2119     5.2255 H       
  64 H64           -3.7400     3.4206     2.4668 H       
  65 H65           -2.9502     1.2122     6.6407 H       
  66 H66           -0.9757    -2.3138     7.5850 H       
  67 H67           -0.0555    -0.5995    -1.2006 H       
  68 H68           -1.4593     0.4254    -1.5844 H       
  69 H69            2.0758    -0.5507     1.6984 H       
  70 H70            2.1365    -0.0317    -1.9739 H       
  71 H71            3.5165     1.2708    -3.5429 H       
  72 H72            2.5754     3.2562    -4.6546 H       
  73 H73            0.2540     3.9385    -4.1978 H       
  74 H74           -1.1276     2.6332    -2.6324 H       
  75 H75           -2.0667    -3.3438     0.9547 H       
  76 H76           -3.1029    -2.8444    -0.4036 H       
  77 H77            0.5661    -2.2283     2.4638 H       
  78 H78            0.2145    -4.1386     0.5473 H       
  79 H79            1.7092    -5.3069    -1.0225 H       
  80 H80            1.1619    -5.3774    -3.4223 H       
  81 H81           -0.8804    -4.2804    -4.2521 H       
  82 H82           -2.3775    -3.1162    -2.6816 H       
  83 H83           -2.4914     4.8058     6.7426 H       
  84 H84           -3.0734     6.3080     5.9857 H       
  85 H85           -3.7915     4.4009     8.9071 H       
  86 H86           -7.6434     5.6329     7.7697 H       
@<TRIPOS>BOND
   1    1    2 1
   2    1   10 1
   3    1    7 am
   4    2    3 1
   5    2   26 1
   6    2   50 1
   7    3    4 1
   8    3   27 1
   9    3   51 1
  10    4    5 1
  11    4   35 1
  12    4   52 1
  13    5    6 1
  14    5   34 1
  15    5   53 1
  16    6    7 am
  17    6    9 1
  18    7    8 2
  19    9   12 1
  20    9   54 1
  21    9   55 1
  22   10   11 1
  23   10   56 1
  24   10   57 1
  25   11   18 ar
  26   11   22 ar
  27   12   13 ar
  28   12   17 ar
  29   13   14 ar
  30   13   58 1
  31   14   15 ar
  32   14   23 1
  33   15   16 ar
  34   15   25 1
  35   16   17 ar
  36   16   59 1
  37   17   60 1
  38   18   19 ar
  39   18   61 1
  40   19   20 ar
  41   19   62 1
  42   20   21 ar
  43   20   63 1
  44   21   22 ar
  45   21   42 1
  46   22   64 1
  47   23   24 2
  48   23   65 1
  49   24   25 1
  50   25   66 1
  51   26   28 1
  52   26   67 1
  53   26   68 1
  54   27   69 1
  55   28   29 ar
  56   28   33 ar
  57   29   30 ar
  58   29   70 1
  59   30   31 ar
  60   30   71 1
  61   31   32 ar
  62   31   72 1
  63   32   33 ar
  64   32   73 1
  65   33   74 1
  66   34   36 1
  67   34   75 1
  68   34   76 1
  69   35   77 1
  70   36   37 ar
  71   36   41 ar
  72   37   38 ar
  73   37   78 1
  74   38   39 ar
  75   38   79 1
  76   39   40 ar
  77   39   80 1
  78   40   41 ar
  79   40   81 1
  80   41   82 1
  81   42   43 1
  82   42   44 2
  83   43   45 1
  84   43   83 1
  85   43   84 1
  86   45   46 1
  87   45   49 1
  88   46   47 2
  89   46   85 1
  90   47   48 1
  91   48   49 2
  92   48   86 1

#	End of record

