#	Name: ASD03331370
#	Creating user name:	WinNT
#	Creation time:	15. 06. 2019 20:39

#	Modifying user name:	WinNT
#	Modification time:	15. 06. 2019 20:39

#	Program:	/corina/corina34_cracker 3.40 0067  02.08.2006

@<TRIPOS>MOLECULE
ASD03331370
  61   63    0    0    0
SMALL
NO_CHARGES


@<TRIPOS>ATOM
   1 C1            -0.7098     1.7143     0.5848 C.2     
   2 C2            -0.4409     0.4139     0.3051 C.2     
   3 C3             0.9547    -0.1535     0.2096 C.3     
   4 C4             1.9282     1.0308     0.1058 C.3     
   5 C5             1.5556     2.0736     1.1640 C.3     
   6 N6             0.2675     2.6952     0.8224 N.3     
   7 N7            -2.6554     0.7016     0.3193 N.2     
   8 N8            -1.6254    -0.2334     0.1376 N.am    
   9 C9            -2.1121     1.8697     0.5935 C.2     
  10 C10           -1.7816    -1.5403    -0.1521 C.2     
  11 O11           -0.8072    -2.2534    -0.2873 O.2     
  12 N12           -3.0189    -2.0563    -0.2919 N.am    
  13 C13           -0.1643     3.6243     1.8752 C.3     
  14 C14           -4.5130    -3.6839    -1.2957 C.2     
  15 C15           -3.1887    -3.4769    -0.6069 C.3     
  16 C16           -3.1534    -4.2937     0.6864 C.3     
  17 C17           -4.2267    -3.7761     1.6460 C.3     
  18 O18           -5.3492    -2.8056    -1.2787 O.2     
  19 C19           -3.4216    -5.7659     0.3672 C.3     
  20 C20           -1.7765    -4.1561     1.3391 C.3     
  21 N21           -4.7681    -4.8450    -1.9307 N.am    
  22 C22           -6.0807    -5.0738    -2.5397 C.3     
  23 C23           -6.1067    -6.4583    -3.1903 C.3     
  24 O24           -5.9783    -7.4615    -2.1808 O.3     
  25 C25           -2.8464     3.1311     0.8558 C.ar    
  26 C26           -2.5463     4.2817     0.1244 C.ar    
  27 C27           -3.2343     5.4543     0.3737 C.ar    
  28 C28           -4.2176     5.4886     1.3456 C.ar    
  29 C29           -4.5189     4.3504     2.0736 C.ar    
  30 C30           -3.8424     3.1710     1.8291 C.ar    
  31 F31           -1.5853     4.2493    -0.8246 F       
  32 Cl32          -5.7545     4.4035     3.2919 Cl      
  33 H33            1.1780    -0.7393     1.1012 H       
  34 H34            1.0393    -0.7812    -0.6776 H       
  35 H35            2.9465     0.6826     0.2791 H       
  36 H36            1.8568     1.4762    -0.8865 H       
  37 H37            1.4771     1.5894     2.1374 H       
  38 H38            2.3286     2.8410     1.2041 H       
  39 H39           -3.7968    -1.4870    -0.1841 H       
  40 H40           -0.4791     3.0587     2.7522 H       
  41 H41            0.6643     4.2797     2.1436 H       
  42 H42           -0.9985     4.2239     1.5109 H       
  43 H43           -2.3825    -3.8023    -1.2643 H       
  44 H44           -5.2077    -3.8742     1.1810 H       
  45 H45           -4.2016    -4.3581     2.5673 H       
  46 H46           -4.0356    -2.7274     1.8733 H       
  47 H47           -2.6363    -6.1448    -0.2868 H       
  48 H48           -3.4334    -6.3419     1.2925 H       
  49 H49           -4.3864    -5.8596    -0.1314 H       
  50 H50           -1.5854    -3.1073     1.5664 H       
  51 H51           -1.7513    -4.7380     2.2604 H       
  52 H52           -1.0118    -4.5248     0.6554 H       
  53 H53           -4.0826    -5.5291    -1.9845 H       
  54 H54           -6.8522    -5.0187    -1.7717 H       
  55 H55           -6.2674    -4.3127    -3.2974 H       
  56 H56           -7.0503    -6.5936    -3.7191 H       
  57 H57           -5.2797    -6.5442    -3.8951 H       
  58 H58           -5.9870    -8.3663    -2.5220 H       
  59 H59           -3.0034     6.3453    -0.1912 H       
  60 H60           -4.7522     6.4071     1.5376 H       
  61 H61           -4.0820     2.2827     2.3946 H       
@<TRIPOS>BOND
   1    1    2 2
   2    1    6 1
   3    1    9 1
   4    2    3 1
   5    2    8 1
   6    3    4 1
   7    3   33 1
   8    3   34 1
   9    4    5 1
  10    4   35 1
  11    4   36 1
  12    5    6 1
  13    5   37 1
  14    5   38 1
  15    6   13 1
  16    7    8 1
  17    7    9 2
  18    8   10 am
  19    9   25 1
  20   10   11 2
  21   10   12 am
  22   12   15 1
  23   12   39 1
  24   13   40 1
  25   13   41 1
  26   13   42 1
  27   14   18 2
  28   14   21 am
  29   14   15 1
  30   15   16 1
  31   15   43 1
  32   16   17 1
  33   16   19 1
  34   16   20 1
  35   17   44 1
  36   17   45 1
  37   17   46 1
  38   19   47 1
  39   19   48 1
  40   19   49 1
  41   20   50 1
  42   20   51 1
  43   20   52 1
  44   21   22 1
  45   21   53 1
  46   22   23 1
  47   22   54 1
  48   22   55 1
  49   23   24 1
  50   23   56 1
  51   23   57 1
  52   24   58 1
  53   25   26 ar
  54   25   30 ar
  55   26   27 ar
  56   26   31 1
  57   27   28 ar
  58   27   59 1
  59   28   29 ar
  60   28   60 1
  61   29   30 ar
  62   29   32 1
  63   30   61 1

#	End of record

