#	Name: ASD01910877
#	Creating user name:	WinNT
#	Creation time:	15. 06. 2019 19:56

#	Modifying user name:	WinNT
#	Modification time:	15. 06. 2019 19:56

#	Program:	/corina/corina34_cracker 3.40 0067  02.08.2006

@<TRIPOS>MOLECULE
ASD01910877
  50   54    0    0    0
SMALL
NO_CHARGES


@<TRIPOS>ATOM
   1 C1            -0.8989     1.6747     0.9468 C.ar    
   2 C2            -0.8097     0.4809     0.2527 C.ar    
   3 C3            -1.9433    -0.2757     0.0290 C.ar    
   4 C4            -3.1736     0.1625     0.5018 C.ar    
   5 C5            -3.2601     1.3609     1.1986 C.ar    
   6 C6            -2.1225     2.1109     1.4240 C.ar    
   7 N7            -4.3223    -0.6007     0.2766 N.3     
   8 C8            -5.5278     0.2747     0.1296 C.3     
   9 C9            -5.1302     1.2832    -0.9925 C.3     
  10 N10           -5.1180     0.4879    -2.2390 N.am    
  11 C11           -5.4430    -0.9135    -1.8405 C.3     
  12 C12           -4.2140    -1.3626    -0.9910 C.3     
  13 C13           -4.8646     0.9377    -3.4840 C.2     
  14 C14           -4.6612     2.3831    -3.7208 C.ar    
  15 C15           -4.5739     3.2637    -2.6403 C.ar    
  16 C16           -4.3840     4.6142    -2.8589 C.ar    
  17 C17           -4.2792     5.1039    -4.1450 C.ar    
  18 C18           -4.3652     4.2340    -5.2365 C.ar    
  19 C19           -4.5507     2.8683    -5.0220 C.ar    
  20 C20           -4.2568     4.7430    -6.5706 C.1     
  21 O21           -4.8032     0.1552    -4.4121 O.2     
  22 C22           -4.1679     5.1603    -7.6643 C.1     
  23 C23           -4.0595     5.6693    -8.9984 C.ar    
  24 C24           -4.1440     4.8094   -10.0961 C.ar    
  25 N25           -4.0442     5.2783   -11.3226 N.ar    
  26 C26           -3.8626     6.5622   -11.5653 C.ar    
  27 C27           -3.7680     7.4788   -10.5330 C.ar    
  28 C28           -3.8726     7.0397    -9.2256 C.ar    
  29 Cl29           0.5279     2.6234     1.2256 Cl      
  30 C30           -6.4830    -0.6655    -0.6898 C.3     
  31 H31            0.1471     0.1407    -0.1148 H       
  32 H32           -1.8732    -1.2069    -0.5134 H       
  33 H33           -4.2155     1.7041     1.5672 H       
  34 H34           -2.1891     3.0426     1.9660 H       
  35 H35           -5.9227     0.7072     1.0489 H       
  36 H36           -5.8675     2.0830    -1.0611 H       
  37 H37           -4.1403     1.6957    -0.7971 H       
  38 H38           -5.7427    -1.5842    -2.6457 H       
  39 H39           -3.2863    -1.1118    -1.5053 H       
  40 H40           -4.2609    -2.4337    -0.7941 H       
  41 H41           -4.6554     2.8877    -1.6312 H       
  42 H42           -4.3176     5.2903    -2.0193 H       
  43 H43           -4.1307     6.1610    -4.3087 H       
  44 H44           -4.6178     2.1916    -5.8610 H       
  45 H45           -4.2920     3.7514    -9.9376 H       
  46 H46           -3.7861     6.9037   -12.5871 H       
  47 H47           -3.6187     8.5269   -10.7462 H       
  48 H48           -3.8025     7.7335    -8.4009 H       
  49 H49           -6.7289    -1.5795    -0.1491 H       
  50 H50           -7.3744    -0.1462    -1.0414 H       
@<TRIPOS>BOND
   1    1    2 ar
   2    1   29 1
   3    1    6 ar
   4    2    3 ar
   5    2   31 1
   6    3    4 ar
   7    3   32 1
   8    4    5 ar
   9    4    7 1
  10    5    6 ar
  11    5   33 1
  12    6   34 1
  13    7    8 1
  14    7   12 1
  15    8    9 1
  16    8   30 1
  17    8   35 1
  18    9   10 1
  19    9   36 1
  20    9   37 1
  21   10   11 1
  22   10   13 am
  23   11   12 1
  24   11   30 1
  25   11   38 1
  26   12   39 1
  27   12   40 1
  28   13   14 1
  29   13   21 2
  30   14   15 ar
  31   14   19 ar
  32   15   16 ar
  33   15   41 1
  34   16   17 ar
  35   16   42 1
  36   17   18 ar
  37   17   43 1
  38   18   19 ar
  39   18   20 1
  40   19   44 1
  41   20   22 3
  42   22   23 1
  43   23   24 ar
  44   23   28 ar
  45   24   25 ar
  46   24   45 1
  47   25   26 ar
  48   26   27 ar
  49   26   46 1
  50   27   28 ar
  51   27   47 1
  52   28   48 1
  53   30   49 1
  54   30   50 1

#	End of record

