#	Name: ASD01209354
#	Creating user name:	WinNT
#	Creation time:	15. 06. 2019 19:11

#	Modifying user name:	WinNT
#	Modification time:	15. 06. 2019 19:11

#	Program:	/corina/corina34_cracker 3.40 0067  02.08.2006

@<TRIPOS>MOLECULE
ASD01209354
  55   58    0    0    0
SMALL
NO_CHARGES


@<TRIPOS>ATOM
   1 C1             0.7325     1.2382    -0.2111 C.2     
   2 C2             0.4810    -0.1851     0.2155 C.3     
   3 O3             1.8607     1.6698    -0.2402 O.2     
   4 O4            -0.2963     2.0247    -0.5641 O.3     
   5 S5             2.0664    -1.0297     0.4683 S.3     
   6 N6             0.2766    -2.8920    -0.3106 N.am    
   7 C7             1.6460    -2.7744     0.2045 C.3     
   8 C8             2.5432    -3.3715    -0.8550 C.2     
   9 C9             1.7307    -3.7816    -1.8663 C.2     
  10 C10            0.3368    -3.4805    -1.5186 C.2     
  11 C11            2.1813    -4.4293    -3.1194 C.ar    
  12 C12            1.8168    -5.7469    -3.3971 C.ar    
  13 C13            2.2394    -6.3446    -4.5666 C.ar    
  14 C14            3.0234    -5.6402    -5.4629 C.ar    
  15 C15            3.3885    -4.3333    -5.1930 C.ar    
  16 C16            2.9671    -3.7224    -4.0298 C.ar    
  17 C17            4.0070    -3.4861    -0.8034 C.ar    
  18 C18            4.8008    -2.7793    -1.7141 C.ar    
  19 C19            6.1736    -2.8920    -1.6584 C.ar    
  20 C20            6.7674    -3.7015    -0.7053 C.ar    
  21 C21            5.9897    -4.4039     0.1991 C.ar    
  22 C22            4.6157    -4.2981     0.1605 C.ar    
  23 O23           -0.6249    -3.7283    -2.2210 O.2     
  24 C24           -0.9419    -2.4516     0.3732 C.3     
  25 C25           -1.5880    -3.6292     1.0565 C.ar    
  26 C26           -1.1613    -4.0174     2.3131 C.ar    
  27 C27           -1.7519    -5.0965     2.9416 C.ar    
  28 C28           -2.7740    -5.7909     2.3108 C.ar    
  29 C29           -3.2003    -5.3995     1.0500 C.ar    
  30 C30           -2.6102    -4.3162     0.4282 C.ar    
  31 O31           -3.3563    -6.8532     2.9268 O.3     
  32 C32           -4.3245    -7.5881     2.1755 C.3     
  33 H33           -0.0861    -0.1906     1.1463 H       
  34 H34           -0.0864    -0.7017    -0.5587 H       
  35 H35           -0.0948     2.9504    -0.7582 H       
  36 H36            1.7448    -3.3292     1.1376 H       
  37 H37            1.2054    -6.2980    -2.6979 H       
  38 H38            1.9579    -7.3647    -4.7827 H       
  39 H39            3.3520    -6.1126    -6.3768 H       
  40 H40            4.0010    -3.7887    -5.8963 H       
  41 H41            3.2488    -2.7006    -3.8225 H       
  42 H42            4.3390    -2.1476    -2.4585 H       
  43 H43            6.7875    -2.3476    -2.3606 H       
  44 H44            7.8434    -3.7857    -0.6673 H       
  45 H45            6.4608    -5.0332     0.9396 H       
  46 H46            4.0105    -4.8436     0.8695 H       
  47 H47           -0.6885    -1.6949     1.1157 H       
  48 H48           -1.6345    -2.0290    -0.3546 H       
  49 H49           -0.3654    -3.4767     2.8036 H       
  50 H50           -1.4181    -5.3995     3.9230 H       
  51 H51           -3.9957    -5.9385     0.5569 H       
  52 H52           -2.9449    -4.0081    -0.5514 H       
  53 H53           -4.7567    -8.3672     2.8035 H       
  54 H54           -5.1121    -6.9136     1.8396 H       
  55 H55           -3.8433    -8.0441     1.3103 H       
@<TRIPOS>BOND
   1    1    2 1
   2    1    3 2
   3    1    4 1
   4    2    5 1
   5    2   33 1
   6    2   34 1
   7    4   35 1
   8    5    7 1
   9    6    7 1
  10    6   10 am
  11    6   24 1
  12    7    8 1
  13    7   36 1
  14    8    9 2
  15    8   17 1
  16    9   10 1
  17    9   11 1
  18   10   23 2
  19   11   12 ar
  20   11   16 ar
  21   12   13 ar
  22   12   37 1
  23   13   14 ar
  24   13   38 1
  25   14   15 ar
  26   14   39 1
  27   15   16 ar
  28   15   40 1
  29   16   41 1
  30   17   18 ar
  31   17   22 ar
  32   18   19 ar
  33   18   42 1
  34   19   20 ar
  35   19   43 1
  36   20   21 ar
  37   20   44 1
  38   21   22 ar
  39   21   45 1
  40   22   46 1
  41   24   25 1
  42   24   47 1
  43   24   48 1
  44   25   26 ar
  45   25   30 ar
  46   26   27 ar
  47   26   49 1
  48   27   28 ar
  49   27   50 1
  50   28   29 ar
  51   28   31 1
  52   29   30 ar
  53   29   51 1
  54   30   52 1
  55   31   32 1
  56   32   53 1
  57   32   54 1
  58   32   55 1

#	End of record

