#	Name: ASD09720067
#	Creating user name:	WinNT
#	Creation time:	15. 06. 2019 21:22

#	Modifying user name:	WinNT
#	Modification time:	15. 06. 2019 21:22

#	Program:	/corina/corina34_cracker 3.40 0067  02.08.2006

@<TRIPOS>MOLECULE
ASD09720067
  45   46    0    0    0
SMALL
NO_CHARGES


@<TRIPOS>ATOM
   1 C1            -0.1769     1.8345    -0.0151 C.2     
   2 C2             0.1367     0.3978    -0.0230 C.2     
   3 N3             1.3307    -0.0029    -0.3268 N.2     
   4 C4            -0.9308    -0.6083     0.3221 C.3     
   5 O5             2.3337     0.9426    -0.6511 O.3     
   6 S6            -0.2288    -2.2799     0.2604 S.3     
   7 C7            -1.6002    -3.3016     0.6847 C.ar    
   8 C8            -1.4486    -4.6818     0.7435 C.ar    
   9 C9            -2.5255    -5.4794     1.0763 C.ar    
  10 C10           -3.7540    -4.9063     1.3504 C.ar    
  11 C11           -3.9087    -3.5332     1.2924 C.ar    
  12 C12           -2.8346    -2.7289     0.9668 C.ar    
  13 C13            0.6894     2.8649    -0.3187 C.2     
  14 C14           -0.0134     4.0609    -0.1869 C.2     
  15 N15           -1.2415     3.7895     0.1765 N.2     
  16 N16           -1.3823     2.4007     0.2884 N.pl3   
  17 C17           -2.6010     1.6841     0.6722 C.3     
  18 C18           -2.9842     2.0604     2.1049 C.3     
  19 C19           -1.9087     1.5566     3.0695 C.3     
  20 C20            0.5478     5.4395    -0.4229 C.3     
  21 F21            0.3630     5.7951    -1.7632 F       
  22 F22           -0.1129     6.3589     0.3989 F       
  23 F23            1.9144     5.4442    -0.1233 F       
  24 C24           -3.4074     1.5833    -1.6904 C.3     
  25 C25           -3.7382     2.0670    -0.2771 C.3     
  26 H26           -1.3070    -0.4091     1.3256 H       
  27 H27           -1.7484    -0.5309    -0.3945 H       
  28 H28            3.1911     0.5491    -0.8636 H       
  29 H29           -0.4898    -5.1301     0.5289 H       
  30 H30           -2.4085    -6.5520     1.1222 H       
  31 H31           -4.5947    -5.5326     1.6101 H       
  32 H32           -4.8696    -3.0891     1.5068 H       
  33 H33           -2.9561    -1.6567     0.9217 H       
  34 H34            1.7255     2.7628    -0.6061 H       
  35 H35           -2.4248     0.6100     0.6135 H       
  36 H36           -3.0663     3.1443     2.1863 H       
  37 H37           -3.9412     1.6036     2.3570 H       
  38 H38           -0.9363     1.9419     2.7629 H       
  39 H39           -2.1348     1.9020     4.0783 H       
  40 H40           -1.8889     0.4668     3.0545 H       
  41 H41           -3.3742     0.4939    -1.7031 H       
  42 H42           -4.1742     1.9315    -2.3824 H       
  43 H43           -2.4381     1.9799    -1.9926 H       
  44 H44           -4.6645     1.6011     0.0589 H       
  45 H45           -3.8576     3.1505    -0.2825 H       
@<TRIPOS>BOND
   1    1    2 1
   2    1   13 2
   3    1   16 1
   4    2    3 2
   5    2    4 1
   6    3    5 1
   7    4    6 1
   8    4   26 1
   9    4   27 1
  10    5   28 1
  11    6    7 1
  12    7    8 ar
  13    7   12 ar
  14    8    9 ar
  15    8   29 1
  16    9   10 ar
  17    9   30 1
  18   10   11 ar
  19   10   31 1
  20   11   12 ar
  21   11   32 1
  22   12   33 1
  23   13   14 1
  24   13   34 1
  25   14   15 2
  26   14   20 1
  27   15   16 1
  28   16   17 1
  29   17   18 1
  30   17   25 1
  31   17   35 1
  32   18   19 1
  33   18   36 1
  34   18   37 1
  35   19   38 1
  36   19   39 1
  37   19   40 1
  38   20   21 1
  39   20   22 1
  40   20   23 1
  41   24   25 1
  42   24   41 1
  43   24   42 1
  44   24   43 1
  45   25   44 1
  46   25   45 1

#	End of record

