#	Name: ASD01150509
#	Creating user name:	WinNT
#	Creation time:	15. 06. 2019 19:04

#	Modifying user name:	WinNT
#	Modification time:	15. 06. 2019 19:04

#	Program:	/corina/corina34_cracker 3.40 0067  02.08.2006

@<TRIPOS>MOLECULE
ASD01150509
  58   60    0    0    0
SMALL
NO_CHARGES


@<TRIPOS>ATOM
   1 C1             1.9143     1.4016     0.9687 C.ar    
   2 C2             1.9596     0.0213     0.9430 C.ar    
   3 C3             0.4926     0.0046    -0.9573 C.ar    
   4 C4             0.4445     1.3911    -0.9341 C.ar    
   5 C5             1.1563     2.0910     0.0298 C.ar    
   6 N6             1.1105     3.4892     0.0567 N.am    
   7 C7            -0.0780     4.1147    -0.0078 C.2     
   8 N8            -0.1589     5.4581     0.0161 N.am    
   9 C9             0.9636     6.2013     0.1061 C.2     
  10 C10            2.2667     5.5231     0.1770 C.2     
  11 N11            2.3023     4.2168     0.1563 N.2     
  12 O12            0.8987     7.4163     0.1278 O.2     
  13 C13           -1.4670     6.1139    -0.0561 C.3     
  14 O14           -1.0968     3.4557    -0.0895 O.2     
  15 C15           -2.0092     6.3079     1.3365 C.ar    
  16 O16            3.4151     6.2432     0.2677 O.3     
  17 C17            4.6386     5.5078     0.3321 C.3     
  18 C18            1.2518    -0.6785    -0.0157 C.ar    
  19 C19           -1.7294     7.4626     2.0390 C.ar    
  20 N20           -2.1992     7.6434     3.2589 N.ar    
  21 C21           -2.9524     6.7322     3.8548 C.ar    
  22 C22           -3.2741     5.5445     3.2052 C.ar    
  23 C23           -2.8004     5.3292     1.9239 C.ar    
  24 N24           -0.2233    -0.7049    -1.9279 N.am    
  25 C25            0.2667    -1.8622    -2.4149 C.2     
  26 O26            1.3684    -2.2429    -2.0799 O.2     
  27 C27           -0.5545    -2.6831    -3.3755 C.3     
  28 N28           -3.4258     6.9638     5.1411 N.pl3   
  29 C29           -4.1669     5.9167     5.8485 C.3     
  30 C30           -3.1836     8.2551     5.7893 C.3     
  31 C31           -4.3350     9.2104     5.4690 C.3     
  32 C32           -3.1892     5.0463     6.6406 C.3     
  33 H33            2.4650     1.9454     1.7220 H       
  34 H34            2.5496    -0.5122     1.6735 H       
  35 H35           -0.1453     1.9245    -1.6649 H       
  36 H36           -1.3610     7.0833    -0.5431 H       
  37 H37           -2.1540     5.4921    -0.6301 H       
  38 H38            4.6282     4.8614     1.2097 H       
  39 H39            4.7446     4.8993    -0.5660 H       
  40 H40            5.4764     6.2016     0.4019 H       
  41 H41            1.2893    -1.7577    -0.0331 H       
  42 H42           -1.1176     8.2279     1.5845 H       
  43 H43           -3.8884     4.8025     3.6936 H       
  44 H44           -3.0337     4.4169     1.3950 H       
  45 H45           -1.0722    -0.3638    -2.2503 H       
  46 H46           -0.3365    -2.3725    -4.3973 H       
  47 H47           -0.3069    -3.7379    -3.2557 H       
  48 H48           -1.6140    -2.5328    -3.1682 H       
  49 H49           -4.8809     6.3757     6.5323 H       
  50 H50           -4.7009     5.2986     5.1267 H       
  51 H51           -3.1182     8.1135     6.8680 H       
  52 H52           -2.2484     8.6768     5.4208 H       
  53 H53           -4.4003     9.3520     4.3903 H       
  54 H54           -5.2701     8.7887     5.8375 H       
  55 H55           -4.1547    10.1712     5.9513 H       
  56 H56           -3.7406     4.2672     7.1670 H       
  57 H57           -2.4752     4.5873     5.9568 H       
  58 H58           -2.6552     5.6644     7.3624 H       
@<TRIPOS>BOND
   1    1    2 ar
   2    1    5 ar
   3    1   33 1
   4    2   18 ar
   5    2   34 1
   6    3    4 ar
   7    3   24 1
   8    3   18 ar
   9    4    5 ar
  10    4   35 1
  11    5    6 1
  12    6    7 am
  13    6   11 1
  14    7    8 am
  15    7   14 2
  16    8    9 am
  17    8   13 1
  18    9   10 1
  19    9   12 2
  20   10   11 2
  21   10   16 1
  22   13   15 1
  23   13   36 1
  24   13   37 1
  25   15   19 ar
  26   15   23 ar
  27   16   17 1
  28   17   38 1
  29   17   39 1
  30   17   40 1
  31   18   41 1
  32   19   20 ar
  33   19   42 1
  34   20   21 ar
  35   21   22 ar
  36   21   28 1
  37   22   23 ar
  38   22   43 1
  39   23   44 1
  40   24   25 am
  41   24   45 1
  42   25   26 2
  43   25   27 1
  44   27   46 1
  45   27   47 1
  46   27   48 1
  47   28   29 1
  48   28   30 1
  49   29   32 1
  50   29   49 1
  51   29   50 1
  52   30   31 1
  53   30   51 1
  54   30   52 1
  55   31   53 1
  56   31   54 1
  57   31   55 1
  58   32   56 1
  59   32   57 1
  60   32   58 1

#	End of record

