#	Name: ASD09740369
#	Creating user name:	WinNT
#	Creation time:	15. 06. 2019 21:23

#	Modifying user name:	WinNT
#	Modification time:	15. 06. 2019 21:23

#	Program:	/corina/corina34_cracker 3.40 0067  02.08.2006

@<TRIPOS>MOLECULE
ASD09740369
  70   73    0    0    0
SMALL
NO_CHARGES


@<TRIPOS>ATOM
   1 N1            -1.6111     1.8496    -2.0058 N.2     
   2 O2            -1.8041     0.6784    -2.2542 O.3     
   3 C3            -0.3337     2.0737    -1.8327 C.2     
   4 N4             0.3076     0.8980    -1.9976 N.2     
   5 C5            -0.6371     0.0152    -2.2657 C.2     
   6 C6            -0.4463    -1.4257    -2.5272 C.ar    
   7 C7             0.2943     3.3804    -1.5139 C.ar    
   8 C8             1.6749     3.4699    -1.3572 C.ar    
   9 C9             2.2539     4.6869    -1.0606 C.ar    
  10 C10            1.4651     5.8131    -0.9192 C.ar    
  11 C11            0.0904     5.7320    -1.0737 C.ar    
  12 C12           -0.4981     4.5205    -1.3766 C.ar    
  13 C13           -1.5485    -2.2398    -2.7979 C.ar    
  14 C14           -1.3648    -3.5875    -3.0424 C.ar    
  15 C15           -0.0820    -4.1313    -3.0186 C.ar    
  16 C16            1.0130    -3.3224    -2.7492 C.ar    
  17 C17            0.8371    -1.9761    -2.5101 C.ar    
  18 C18           -0.9722     6.8054    -0.9704 C.3     
  19 C19           -2.3030     6.0416    -0.8037 C.3     
  20 C20           -1.9972     4.6931    -1.4925 C.3     
  21 N21           -0.7236     7.6577     0.2000 N.3     
  22 C22            0.2009     8.7502    -0.1312 C.3     
  23 C23            0.4349     9.6141     1.1096 C.3     
  24 O24            0.0971    -5.4565    -3.2592 O.3     
  25 C25            1.4406    -7.4493    -3.5122 C.3     
  26 C26            1.4384    -5.9476    -3.2192 C.3     
  27 O27           -2.4359    -4.3830    -3.3059 O.3     
  28 C28           -4.7940    -4.8041    -3.6262 C.3     
  29 C29           -3.7213    -3.7588    -3.3138 C.3     
  30 N30            1.3594    10.7066     0.7784 N.3     
  31 C31            1.8448    12.5073    -0.8088 C.3     
  32 C32            0.7533    11.6354    -0.1849 C.3     
  33 C33            2.8411    10.5741     2.7238 C.3     
  34 C34            1.7938    11.4143     1.9902 C.3     
  35 H35            2.2907     2.5895    -1.4671 H       
  36 H36            3.3245     4.7595    -0.9386 H       
  37 H37            1.9233     6.7629    -0.6863 H       
  38 H38           -2.5422    -1.8171    -2.8157 H       
  39 H39            2.0056    -3.7476    -2.7309 H       
  40 H40            1.6909    -1.3488    -2.3010 H       
  41 H41           -0.9923     7.4064    -1.8795 H       
  42 H42           -2.5374     5.8970     0.2509 H       
  43 H43           -3.1142     6.5604    -1.3145 H       
  44 H44           -2.2945     4.7277    -2.5406 H       
  45 H45           -2.5119     3.8808    -0.9791 H       
  46 H46           -1.5883     8.0171     0.5757 H       
  47 H47            1.1501     8.3334    -0.4680 H       
  48 H48           -0.2290     9.3621    -0.9242 H       
  49 H49           -0.5143    10.0309     1.4464 H       
  50 H50            0.8648     9.0022     1.9026 H       
  51 H51            0.8417    -7.9666    -2.7627 H       
  52 H52            1.0179    -7.6272    -4.5010 H       
  53 H53            2.4638    -7.8240    -3.4816 H       
  54 H54            2.0373    -5.4303    -3.9687 H       
  55 H55            1.8611    -5.7698    -2.2303 H       
  56 H56           -4.7736    -5.5842    -2.8652 H       
  57 H57           -5.7745    -4.3279    -3.6322 H       
  58 H58           -4.5981    -5.2448    -4.6037 H       
  59 H59           -3.9172    -3.3180    -2.3363 H       
  60 H60           -3.7417    -2.9787    -4.0748 H       
  61 H61            2.2575    13.1715    -0.0495 H       
  62 H62            2.6365    11.8709    -1.2040 H       
  63 H63            1.4179    13.1006    -1.6174 H       
  64 H64            0.2489    11.0690    -0.9678 H       
  65 H65            0.0302    12.2699     0.3277 H       
  66 H66            2.4096     9.6101     2.9935 H       
  67 H67            3.7018    10.4177     2.0735 H       
  68 H68            3.1579    11.0958     3.6268 H       
  69 H69            2.2275    12.3754     1.7139 H       
  70 H70            0.9362    11.5770     2.6431 H       
@<TRIPOS>BOND
   1    1    2 1
   2    1    3 2
   3    2    5 1
   4    3    4 1
   5    3    7 1
   6    4    5 2
   7    5    6 1
   8    6   13 ar
   9    6   17 ar
  10    7    8 ar
  11    7   12 ar
  12    8    9 ar
  13    8   35 1
  14    9   10 ar
  15    9   36 1
  16   10   11 ar
  17   10   37 1
  18   11   12 ar
  19   11   18 1
  20   12   20 1
  21   13   14 ar
  22   13   38 1
  23   14   15 ar
  24   14   27 1
  25   15   16 ar
  26   15   24 1
  27   16   17 ar
  28   16   39 1
  29   17   40 1
  30   18   19 1
  31   18   21 1
  32   18   41 1
  33   19   20 1
  34   19   42 1
  35   19   43 1
  36   20   44 1
  37   20   45 1
  38   21   22 1
  39   21   46 1
  40   22   23 1
  41   22   47 1
  42   22   48 1
  43   23   30 1
  44   23   49 1
  45   23   50 1
  46   24   26 1
  47   25   26 1
  48   25   51 1
  49   25   52 1
  50   25   53 1
  51   26   54 1
  52   26   55 1
  53   27   29 1
  54   28   29 1
  55   28   56 1
  56   28   57 1
  57   28   58 1
  58   29   59 1
  59   29   60 1
  60   30   32 1
  61   30   34 1
  62   31   32 1
  63   31   61 1
  64   31   62 1
  65   31   63 1
  66   32   64 1
  67   32   65 1
  68   33   34 1
  69   33   66 1
  70   33   67 1
  71   33   68 1
  72   34   69 1
  73   34   70 1

#	End of record

