#	Name: ASD06170090
#	Creating user name:	WinNT
#	Creation time:	15. 06. 2019 21:05

#	Modifying user name:	WinNT
#	Modification time:	15. 06. 2019 21:05

#	Program:	/corina/corina34_cracker 3.40 0067  02.08.2006

@<TRIPOS>MOLECULE
ASD06170090
  66   70    0    0    0
SMALL
NO_CHARGES


@<TRIPOS>ATOM
   1 N1             0.8092     0.5663    -1.0991 N.pl3   
   2 N2             0.7158    -0.6953    -0.5046 N.am    
   3 C3             1.8979    -0.9993     0.0675 C.2     
   4 C4             2.7967     0.1358    -0.1774 C.2     
   5 C5             2.0604     1.0729    -0.9058 C.2     
   6 C6             4.1900     0.2606     0.2564 C.2     
   7 O7             4.8200     1.2694    -0.0025 O.2     
   8 N8             4.7746    -0.7415     0.9423 N.am    
   9 C9             2.5501     2.3792    -1.3827 C.ar    
  10 C10            3.7714     2.4681    -2.0567 C.ar    
  11 C11            4.2226     3.6934    -2.5002 C.ar    
  12 C12            3.4698     4.8334    -2.2790 C.ar    
  13 C13            2.2598     4.7534    -1.6120 C.ar    
  14 C14            1.7925     3.5342    -1.1681 C.ar    
  15 O15            2.1687    -2.0202     0.6723 O.2     
  16 C16           -0.4748    -1.5490    -0.5030 C.3     
  17 C17            6.0579    -0.5748     1.4625 C.ar    
  18 C18            6.5683     0.7070     1.6362 C.ar    
  19 C19            7.8420     0.8609     2.1527 C.ar    
  20 C20            8.5676    -0.2819     2.4806 C.ar    
  21 C21            7.9944    -1.5273     2.2802 C.ar    
  22 N22            6.7743    -1.6379     1.7903 N.ar    
  23 O23            9.8235    -0.1766     2.9907 O.3     
  24 N24           10.2058     1.1381     6.8811 N.ar    
  25 C25            9.0165     1.0139     6.3401 C.ar    
  26 C26            8.8487     0.5738     5.0335 C.ar    
  27 C27            9.9572     0.2551     4.2687 C.ar    
  28 C28           11.2330     0.3930     4.8613 C.ar    
  29 C29           12.4024     0.0887     4.1492 C.ar    
  30 C30           13.6163     0.2314     4.7476 C.ar    
  31 C31           13.7143     0.6791     6.0682 C.ar    
  32 C32           12.5852     0.9853     6.7936 C.ar    
  33 C33           11.3204     0.8473     6.1998 C.ar    
  34 O34           14.9380     0.8131     6.6426 O.3     
  35 C35           16.0717     0.4794     5.8393 C.3     
  36 C36           -0.2709     1.2392    -1.8249 C.3     
  37 C37           -0.2034     0.8606    -3.3058 C.3     
  38 C38           -1.3314     1.5634    -4.0638 C.3     
  39 O39            1.0568     1.2657    -3.8441 O.3     
  40 H40            4.3028    -1.5787     1.0742 H       
  41 H41            4.3603     1.5794    -2.2294 H       
  42 H42            5.1661     3.7636    -3.0212 H       
  43 H43            3.8284     5.7903    -2.6284 H       
  44 H44            1.6780     5.6474    -1.4424 H       
  45 H45            0.8458     3.4726    -0.6520 H       
  46 H46           -0.4583    -2.1970    -1.3794 H       
  47 H47           -0.4830    -2.1594     0.4000 H       
  48 H48           -1.3687    -0.9260    -0.5286 H       
  49 H49            5.9777     1.5713     1.3707 H       
  50 H50            8.2642     1.8443     2.2981 H       
  51 H51            8.5511    -2.4178     2.5321 H       
  52 H52            8.1441     1.2597     6.9275 H       
  53 H53            7.8570     0.4812     4.6157 H       
  54 H54           12.3397    -0.2584     3.1284 H       
  55 H55           14.5143    -0.0043     4.1959 H       
  56 H56           12.6717     1.3304     7.8133 H       
  57 H57           16.0049    -0.5644     5.5323 H       
  58 H58           16.0914     1.1174     4.9557 H       
  59 H59           16.9835     0.6305     6.4170 H       
  60 H60           -1.2321     0.9302    -1.4143 H       
  61 H61           -0.1613     2.3187    -1.7205 H       
  62 H62           -0.3130    -0.2188    -3.4102 H       
  63 H63           -1.2833     1.2937    -5.1188 H       
  64 H64           -2.2926     1.2544    -3.6532 H       
  65 H65           -1.2218     2.6429    -3.9594 H       
  66 H66            1.1696     1.0568    -4.7815 H       
@<TRIPOS>BOND
   1    1    2 1
   2    1    5 1
   3    1   36 1
   4    2    3 am
   5    2   16 1
   6    3    4 1
   7    3   15 2
   8    4    5 2
   9    4    6 1
  10    5    9 1
  11    6    7 2
  12    6    8 am
  13    8   17 1
  14    8   40 1
  15    9   10 ar
  16    9   14 ar
  17   10   11 ar
  18   10   41 1
  19   11   12 ar
  20   11   42 1
  21   12   13 ar
  22   12   43 1
  23   13   14 ar
  24   13   44 1
  25   14   45 1
  26   16   46 1
  27   16   47 1
  28   16   48 1
  29   17   18 ar
  30   17   22 ar
  31   18   19 ar
  32   18   49 1
  33   19   20 ar
  34   19   50 1
  35   20   21 ar
  36   20   23 1
  37   21   22 ar
  38   21   51 1
  39   23   27 1
  40   24   25 ar
  41   24   33 ar
  42   25   26 ar
  43   25   52 1
  44   26   27 ar
  45   26   53 1
  46   27   28 ar
  47   28   29 ar
  48   28   33 ar
  49   29   30 ar
  50   29   54 1
  51   30   31 ar
  52   30   55 1
  53   31   32 ar
  54   31   34 1
  55   32   33 ar
  56   32   56 1
  57   34   35 1
  58   35   57 1
  59   35   58 1
  60   35   59 1
  61   36   37 1
  62   36   60 1
  63   36   61 1
  64   37   38 1
  65   37   39 1
  66   37   62 1
  67   38   63 1
  68   38   64 1
  69   38   65 1
  70   39   66 1

#	End of record

