#	Name: ASD03240549
#	Creating user name:	WinNT
#	Creation time:	15. 06. 2019 20:35

#	Modifying user name:	WinNT
#	Modification time:	15. 06. 2019 20:35

#	Program:	/corina/corina34_cracker 3.40 0067  02.08.2006

@<TRIPOS>MOLECULE
ASD03240549
  64   71    0    0    0
SMALL
NO_CHARGES


@<TRIPOS>ATOM
   1 C1            -0.0166     1.3755     0.0096 C.ar    
   2 C2             0.0021    -0.0041     0.0020 C.ar    
   3 N3             1.1422    -0.6683    -0.0058 N.ar    
   4 C4             2.3145    -0.0481    -0.0057 C.ar    
   5 C5             2.3702     1.3442    -0.0124 C.ar    
   6 C6             1.1860     2.0698     0.0018 C.ar    
   7 N7             3.4820    -0.8058     0.0220 N.pl3   
   8 C8             4.3594    -0.7190     1.0995 C.ar    
   9 C9             4.9950     0.4897     1.4032 C.ar    
  10 C10            4.7629     1.6840     0.5615 C.2     
  11 N11            3.5939     2.0276    -0.0512 N.pl3   
  12 C12            4.6059    -1.8385     1.8829 C.ar    
  13 C13            5.4661    -1.7529     2.9609 C.ar    
  14 C14            6.0867    -0.5546     3.2694 C.ar    
  15 C15            5.8561     0.5664     2.4977 C.ar    
  16 N16            5.6741     2.5949     0.2844 N.2     
  17 C17            5.1437     3.5406    -0.5064 C.2     
  18 C18            3.8222     3.2042    -0.7371 C.2     
  19 C19            2.8489     3.9535    -1.5546 C.ar    
  20 C20            2.7492     5.3416    -1.4303 C.ar    
  21 C21            2.0266     3.2790    -2.4607 C.ar    
  22 C22            1.1191     3.9860    -3.2215 C.ar    
  23 C23            1.0222     5.3601    -3.0893 C.ar    
  24 C24            1.8371     6.0354    -2.1977 C.ar    
  25 C25            5.8474     4.7305    -1.0372 C.ar    
  26 C26            0.0287     6.1256    -3.9249 C.3     
  27 N27           -1.0497     5.2769    -4.4490 N.3     
  28 C28           -0.4729     7.4166    -3.2568 C.3     
  29 C29           -0.3862     8.0748    -4.6439 C.3     
  30 C30            0.6812     7.0212    -4.9912 C.3     
  31 C31            6.8134     5.3645    -0.2639 C.ar    
  32 C32            7.4718     6.4798    -0.7647 C.ar    
  33 C33            7.1514     6.9538    -2.0509 C.ar    
  34 C34            6.1780     6.3045    -2.8161 C.ar    
  35 C35            5.5404     5.2075    -2.3175 C.ar    
  36 N36            8.4507     7.3069    -0.2590 N.pl3   
  37 C37            8.7565     8.2781    -1.1734 C.2     
  38 C38            8.0071     8.1207    -2.2766 C.2     
  39 H39           -0.9556     1.9091     0.0170 H       
  40 H40           -0.9306    -0.5486     0.0028 H       
  41 H41            1.2002     3.1497     0.0064 H       
  42 H42            3.6864    -1.4000    -0.7169 H       
  43 H43            4.1252    -2.7770     1.6494 H       
  44 H44            5.6553    -2.6266     3.5670 H       
  45 H45            6.7537    -0.4966     4.1169 H       
  46 H46            6.3413     1.5002     2.7405 H       
  47 H47            3.3845     5.8699    -0.7349 H       
  48 H48            2.1017     2.2067    -2.5654 H       
  49 H49            0.4828     3.4660    -3.9223 H       
  50 H50            1.7559     7.1079    -2.0997 H       
  51 H51           -0.6763     4.4549    -4.8997 H       
  52 H52           -1.6992     5.0254    -3.7189 H       
  53 H53           -1.4899     7.3422    -2.8716 H       
  54 H54            0.2261     7.8330    -2.5315 H       
  55 H55           -1.2998     7.9787    -5.2307 H       
  56 H56           -0.0027     9.0948    -4.6200 H       
  57 H57            1.6963     7.3289    -4.7403 H       
  58 H58            0.5948     6.6297    -6.0048 H       
  59 H59            7.0503     4.9915     0.7216 H       
  60 H60            5.9333     6.6700    -3.8024 H       
  61 H61            4.7888     4.7077    -2.9106 H       
  62 H62            8.8617     7.2147     0.6148 H       
  63 H63            9.4915     9.0561    -1.0291 H       
  64 H64            8.0311     8.7377    -3.1627 H       
@<TRIPOS>BOND
   1    1    2 ar
   2    1    6 ar
   3    1   39 1
   4    2    3 ar
   5    2   40 1
   6    3    4 ar
   7    4    5 ar
   8    4    7 1
   9    5    6 ar
  10    5   11 1
  11    6   41 1
  12    7    8 1
  13    7   42 1
  14    8    9 ar
  15    8   12 ar
  16    9   10 1
  17    9   15 ar
  18   10   11 1
  19   10   16 2
  20   11   18 1
  21   12   13 ar
  22   12   43 1
  23   13   14 ar
  24   13   44 1
  25   14   15 ar
  26   14   45 1
  27   15   46 1
  28   16   17 1
  29   17   18 2
  30   17   25 1
  31   18   19 1
  32   19   20 ar
  33   19   21 ar
  34   20   24 ar
  35   20   47 1
  36   21   22 ar
  37   21   48 1
  38   22   23 ar
  39   22   49 1
  40   23   24 ar
  41   23   26 1
  42   24   50 1
  43   25   31 ar
  44   25   35 ar
  45   26   27 1
  46   26   28 1
  47   26   30 1
  48   27   51 1
  49   27   52 1
  50   28   29 1
  51   28   53 1
  52   28   54 1
  53   29   30 1
  54   29   55 1
  55   29   56 1
  56   30   57 1
  57   30   58 1
  58   31   32 ar
  59   31   59 1
  60   32   33 ar
  61   32   36 1
  62   33   34 ar
  63   33   38 1
  64   34   35 ar
  65   34   60 1
  66   35   61 1
  67   36   37 1
  68   36   62 1
  69   37   38 2
  70   37   63 1
  71   38   64 1

#	End of record

