#	Name: ASD06170222
#	Creating user name:	WinNT
#	Creation time:	15. 06. 2019 21:05

#	Modifying user name:	WinNT
#	Modification time:	15. 06. 2019 21:05

#	Program:	/corina/corina34_cracker 3.40 0067  02.08.2006

@<TRIPOS>MOLECULE
ASD06170222
  77   82    0    0    0
SMALL
NO_CHARGES


@<TRIPOS>ATOM
   1 C1            -0.0669     1.4464     0.0115 C.2     
   2 C2            -0.1051     0.1702    -0.5993 C.2     
   3 C3             1.1003    -0.4011    -1.0452 C.2     
   4 C4             2.2962     0.3185    -0.8665 C.2     
   5 C5             2.2714     1.5335    -0.2762 C.2     
   6 N6             1.1082     2.0867     0.1550 N.am    
   7 C7            -1.3756    -0.5421    -0.7636 C.2     
   8 O8            -1.4212    -1.5592    -1.4305 O.2     
   9 N9            -2.4933    -0.0707    -0.1761 N.am    
  10 N10            1.1099    -1.6399    -1.6443 N.pl3   
  11 C11            1.5826    -1.7800    -2.9522 C.ar    
  12 C12            1.5997    -3.0310    -3.5559 C.ar    
  13 C13            2.0675    -3.1659    -4.8482 C.ar    
  14 C14            2.5190    -2.0576    -5.5411 C.ar    
  15 C15            2.5038    -0.8108    -4.9429 C.ar    
  16 C16            2.0311    -0.6678    -3.6532 C.ar    
  17 C17            3.0292    -2.2088    -6.9510 C.3     
  18 F18            1.9694    -2.0488    -7.8501 F       
  19 F19            4.0037    -1.2366    -7.2011 F       
  20 F20            3.5883    -3.4812    -7.1107 F       
  21 O21           -1.0976     1.9670     0.4026 O.2     
  22 C22           -3.7197    -0.6924    -0.4106 C.ar    
  23 C23           -3.7491    -2.0108    -0.8514 C.ar    
  24 C24           -4.9706    -2.6177    -1.0805 C.ar    
  25 C25           -6.1304    -1.8790    -0.8589 C.ar    
  26 C26           -6.0241    -0.5692    -0.4194 C.ar    
  27 N27           -4.8424    -0.0227    -0.2060 N.ar    
  28 O28           -7.3522    -2.4362    -1.0718 O.3     
  29 N29           -8.7016    -5.2008     1.6754 N.ar    
  30 C30           -7.5983    -4.5278     1.9037 C.ar    
  31 C31           -7.1130    -3.5891     1.0020 C.ar    
  32 C32           -7.8018    -3.3469    -0.1735 C.ar    
  33 C33           -8.9884    -4.0773    -0.4087 C.ar    
  34 C34           -9.7405    -3.8869    -1.5775 C.ar    
  35 C35          -10.8815    -4.6104    -1.7719 C.ar    
  36 C36          -11.3095    -5.5415    -0.8148 C.ar    
  37 C37          -10.5967    -5.7459     0.3314 C.ar    
  38 C38           -9.4177    -5.0172     0.5597 C.ar    
  39 O39          -12.4491    -6.2494    -1.0308 O.3     
  40 C40          -12.8342    -7.1832    -0.0200 C.3     
  41 O41          -11.6107    -4.4261    -2.9047 O.3     
  42 C42          -11.1226    -3.4630    -3.8409 C.3     
  43 C43            1.1332     3.4071     0.7891 C.3     
  44 C44            1.3208     3.2470     2.2758 C.ar    
  45 C45            2.5943     3.2205     2.8129 C.ar    
  46 C46            2.7664     3.0736     4.1766 C.ar    
  47 C47            1.6650     2.9535     5.0032 C.ar    
  48 C48            0.3915     2.9808     4.4663 C.ar    
  49 C49            0.2193     3.1321     3.1030 C.ar    
  50 H50            3.2337    -0.1006    -1.2007 H       
  51 H51            3.1958     2.0761    -0.1442 H       
  52 H52           -2.4448     0.7008     0.4098 H       
  53 H53            0.7886    -2.4158    -1.1590 H       
  54 H54            1.2479    -3.8971    -3.0151 H       
  55 H55            2.0811    -4.1382    -5.3182 H       
  56 H56            2.8575     0.0527    -5.4866 H       
  57 H57            2.0147     0.3070    -3.1884 H       
  58 H58           -2.8297    -2.5539    -1.0133 H       
  59 H59           -5.0239    -3.6404    -1.4234 H       
  60 H60           -6.9191     0.0098    -0.2458 H       
  61 H61           -7.0526    -4.7087     2.8179 H       
  62 H62           -6.2023    -3.0501     1.2178 H       
  63 H63           -9.4185    -3.1713    -2.3196 H       
  64 H64          -10.9379    -6.4663     1.0602 H       
  65 H65          -12.0472    -7.9266     0.1068 H       
  66 H66          -12.9910    -6.6559     0.9210 H       
  67 H67          -13.7583    -7.6793    -0.3168 H       
  68 H68          -11.7958    -3.4147    -4.6968 H       
  69 H69          -11.0719    -2.4848    -3.3628 H       
  70 H70          -10.1278    -3.7551    -4.1772 H       
  71 H71            1.9574     3.9912     0.3797 H       
  72 H72            0.1919     3.9213     0.5950 H       
  73 H73            3.4548     3.3143     2.1670 H       
  74 H74            3.7613     3.0522     4.5961 H       
  75 H75            1.7994     2.8379     6.0686 H       
  76 H76           -0.4690     2.8867     5.1121 H       
  77 H77           -0.7758     3.1572     2.6839 H       
@<TRIPOS>BOND
   1    1    2 1
   2    1    6 am
   3    1   21 2
   4    2    3 2
   5    2    7 1
   6    3    4 1
   7    3   10 1
   8    4    5 2
   9    4   50 1
  10    5    6 1
  11    5   51 1
  12    6   43 1
  13    7    8 2
  14    7    9 am
  15    9   22 1
  16    9   52 1
  17   10   11 1
  18   10   53 1
  19   11   12 ar
  20   11   16 ar
  21   12   13 ar
  22   12   54 1
  23   13   14 ar
  24   13   55 1
  25   14   15 ar
  26   14   17 1
  27   15   16 ar
  28   15   56 1
  29   16   57 1
  30   17   18 1
  31   17   19 1
  32   17   20 1
  33   22   23 ar
  34   22   27 ar
  35   23   24 ar
  36   23   58 1
  37   24   25 ar
  38   24   59 1
  39   25   26 ar
  40   25   28 1
  41   26   27 ar
  42   26   60 1
  43   28   32 1
  44   29   30 ar
  45   29   38 ar
  46   30   31 ar
  47   30   61 1
  48   31   32 ar
  49   31   62 1
  50   32   33 ar
  51   33   34 ar
  52   33   38 ar
  53   34   35 ar
  54   34   63 1
  55   35   36 ar
  56   35   41 1
  57   36   37 ar
  58   36   39 1
  59   37   38 ar
  60   37   64 1
  61   39   40 1
  62   40   65 1
  63   40   66 1
  64   40   67 1
  65   41   42 1
  66   42   68 1
  67   42   69 1
  68   42   70 1
  69   43   44 1
  70   43   71 1
  71   43   72 1
  72   44   45 ar
  73   44   49 ar
  74   45   46 ar
  75   45   73 1
  76   46   47 ar
  77   46   74 1
  78   47   48 ar
  79   47   75 1
  80   48   49 ar
  81   48   76 1
  82   49   77 1

#	End of record

