#	Name: ASD03490053
#	Creating user name:	WinNT
#	Creation time:	15. 06. 2019 20:42

#	Modifying user name:	WinNT
#	Modification time:	15. 06. 2019 20:42

#	Program:	/corina/corina34_cracker 3.40 0067  02.08.2006

@<TRIPOS>MOLECULE
ASD03490053
  62   62    0    0    0
SMALL
NO_CHARGES


@<TRIPOS>ATOM
   1 C1            -0.3199     1.5323     0.1356 C.3     
   2 O2            -0.2416     0.0827     0.1638 O.3     
   3 C3            -1.3802    -0.5845     0.4092 C.2     
   4 C4            -1.4038    -2.0892     0.3305 C.3     
   5 C5            -1.3536     1.9670    -0.9053 C.3     
   6 O6            -2.3862     0.0215     0.6933 O.2     
   7 O7            -2.7419    -2.5552     0.5156 O.3     
   8 C8            -0.8925    -2.5367    -1.0414 C.3     
   9 O9            -0.5643    -2.6331     1.3511 O.3     
  10 C10           -0.5344    -4.0614     1.3823 C.3     
  11 C11            0.0121    -4.5882     0.0528 C.3     
  12 C12           -0.8627    -4.0674    -1.0921 C.3     
  13 C13            0.3687    -4.5280     2.5258 C.3     
  14 C14           -0.2644    -4.1443     3.8648 C.3     
  15 C15            0.5738    -4.7187     5.0086 C.3     
  16 O16           -0.0786    -4.4606     6.2535 O.3     
  17 O17           -0.3129    -2.7206     3.9781 O.3     
  18 C18            1.4493    -4.0998    -0.1388 C.3     
  19 O19            1.9179    -4.4931    -1.4302 O.3     
  20 O20           -2.1902    -4.5765    -0.9491 O.3     
  21 O21           -0.7158     2.0212     1.4442 O.3     
  22 C22            0.1448     1.8179     2.4581 C.2     
  23 O23           -0.2036     2.1531     3.7136 O.3     
  24 O24            1.2360     1.3318     2.2401 O.2     
  25 C25            0.7747     1.9055     4.7576 C.3     
  26 C26            1.6660     3.1379     4.9240 C.3     
  27 C27            0.0525     1.6167     6.0751 C.3     
  28 N28            2.3069    -4.6894     0.8923 N.am    
  29 O29            3.4239    -2.7893     1.1456 O.2     
  30 C30            3.2685    -3.9462     1.4749 C.2     
  31 C31            4.1507    -4.5526     2.5356 C.3     
  32 H32            0.6548     1.9438    -0.1265 H       
  33 H33           -2.3283     1.5555    -0.6433 H       
  34 H34           -1.4124     3.0552    -0.9266 H       
  35 H35           -1.0564     1.6000    -1.8877 H       
  36 H36           -3.1304    -2.3079     1.3659 H       
  37 H37           -1.5571    -2.1595    -1.8186 H       
  38 H38            0.1131    -2.1473    -1.2002 H       
  39 H39           -1.5436    -4.4428     1.5371 H       
  40 H40           -0.0056    -5.6780     0.0579 H       
  41 H41           -0.4468    -4.3926    -2.0457 H       
  42 H42            0.4871    -5.6105     2.4768 H       
  43 H43            1.3448    -4.0513     2.4356 H       
  44 H44           -1.2757    -4.5476     3.9173 H       
  45 H45            0.6850    -5.7945     4.8728 H       
  46 H46            1.5574    -4.2490     5.0096 H       
  47 H47            0.3978    -4.7977     7.0245 H       
  48 H48            0.5536    -2.2932     3.9393 H       
  49 H49            1.4777    -3.0132    -0.0573 H       
  50 H50            1.9927    -5.4501    -1.5469 H       
  51 H51           -2.7995    -4.2862    -1.6416 H       
  52 H52            1.3886     1.0474     4.4841 H       
  53 H53            2.4004     2.9520     5.7077 H       
  54 H54            2.1805     3.3436     3.9853 H       
  55 H55            1.0521     3.9960     5.1975 H       
  56 H56           -0.5824     0.7388     5.9566 H       
  57 H57            0.7869     1.4309     6.8588 H       
  58 H58           -0.5614     2.4749     6.3486 H       
  59 H59            2.1827    -5.6146     1.1557 H       
  60 H60            5.0304    -4.9944     2.0675 H       
  61 H61            4.4624    -3.7776     3.2358 H       
  62 H62            3.5975    -5.3245     3.0706 H       
@<TRIPOS>BOND
   1    1    2 1
   2    1    5 1
   3    1   21 1
   4    1   32 1
   5    2    3 1
   6    3    4 1
   7    3    6 2
   8    4    7 1
   9    4    8 1
  10    4    9 1
  11    5   33 1
  12    5   34 1
  13    5   35 1
  14    7   36 1
  15    8   12 1
  16    8   37 1
  17    8   38 1
  18    9   10 1
  19   10   11 1
  20   10   13 1
  21   10   39 1
  22   11   12 1
  23   11   18 1
  24   11   40 1
  25   12   20 1
  26   12   41 1
  27   13   14 1
  28   13   42 1
  29   13   43 1
  30   14   15 1
  31   14   17 1
  32   14   44 1
  33   15   16 1
  34   15   45 1
  35   15   46 1
  36   16   47 1
  37   17   48 1
  38   18   19 1
  39   18   28 1
  40   18   49 1
  41   19   50 1
  42   20   51 1
  43   21   22 1
  44   22   23 1
  45   22   24 2
  46   23   25 1
  47   25   26 1
  48   25   27 1
  49   25   52 1
  50   26   53 1
  51   26   54 1
  52   26   55 1
  53   27   56 1
  54   27   57 1
  55   27   58 1
  56   28   30 am
  57   28   59 1
  58   29   30 2
  59   30   31 1
  60   31   60 1
  61   31   61 1
  62   31   62 1

#	End of record

