#	Name: ASD08170690
#	Creating user name:	WinNT
#	Creation time:	15. 06. 2019 21:17

#	Modifying user name:	WinNT
#	Modification time:	15. 06. 2019 21:17

#	Program:	/corina/corina34_cracker 3.40 0067  02.08.2006

@<TRIPOS>MOLECULE
ASD08170690
  77   80    0    0    0
SMALL
NO_CHARGES


@<TRIPOS>ATOM
   1 N1            -0.0159     1.3150     0.0224 N.ar    
   2 C2             0.0017    -0.0034     0.0124 C.ar    
   3 C3            -1.2931    -0.7743     0.0243 C.3     
   4 C4            -4.2984    -0.6746     2.4294 C.3     
   5 C5            -5.5932    -1.4455     2.4412 C.2     
   6 N6            -5.8033    -2.5767     3.0361 N.2     
   7 N7            -6.9625    -3.0651     2.9277 N.2     
   8 C8            -7.8359    -2.3975     2.2358 C.2     
   9 S9            -7.0970    -0.9657     1.6538 S.3     
  10 N10           -9.1540    -2.7791     2.0098 N.am    
  11 C11           -3.4530    -1.1158     1.2328 C.3     
  12 C12           -2.1384    -0.3331     1.2208 C.3     
  13 C13            1.2122    -0.6808    -0.0095 C.ar    
  14 C14            2.3785     0.0690    -0.0202 C.ar    
  15 C15            2.2616     1.4575    -0.0083 C.ar    
  16 N16            1.0600     2.0148     0.0126 N.ar    
  17 N17            3.4043     2.2567    -0.0179 N.am    
  18 C18            3.2889     3.5963    -0.1113 C.2     
  19 O19            2.1992     4.1007    -0.2812 O.2     
  20 C20            4.5141     4.4673    -0.0047 C.3     
  21 C21            4.1152     5.9141    -0.1410 C.ar    
  22 C22            3.7801     6.6461     0.9814 C.ar    
  23 C23            3.4134     7.9784     0.8553 C.ar    
  24 C24            3.3843     8.5717    -0.3982 C.ar    
  25 C25            3.7204     7.8351    -1.5178 C.ar    
  26 C26            4.0906     6.5094    -1.3889 C.ar    
  27 C27           -9.6205    -3.9317     2.5297 C.2     
  28 O28           -8.8908    -4.6361     3.1947 O.2     
  29 C29          -11.0488    -4.3451     2.2847 C.3     
  30 C30          -11.3154    -5.6609     2.9693 C.ar    
  31 C31          -11.7761    -5.6812     4.2724 C.ar    
  32 C32          -12.0205    -6.8882     4.9004 C.ar    
  33 C33          -11.8047    -8.0749     4.2251 C.ar    
  34 C34          -11.3448    -8.0546     2.9216 C.ar    
  35 C35          -11.1045    -6.8475     2.2922 C.ar    
  36 O36            3.0828     8.7006     1.9580 O.3     
  37 C37            2.7154    10.0662     1.7530 C.3     
  38 C38            2.3794    10.7116     3.0989 C.3     
  39 C39            1.9860    12.1738     2.8794 C.3     
  40 S40            1.5877    12.9389     4.4751 S.o2    
  41 C41            1.1592    14.6314     3.9826 C.3     
  42 O42            0.4254    12.3122     5.0002 O.2     
  43 O43            2.7689    12.9823     5.2639 O.2     
  44 H44           -1.8401    -0.5802    -0.8983 H       
  45 H45           -1.0805    -1.8405     0.1031 H       
  46 H46           -4.5110     0.3916     2.3505 H       
  47 H47           -3.7514    -0.8687     3.3520 H       
  48 H48           -9.7376    -2.2157     1.4779 H       
  49 H49           -3.2404    -2.1820     1.3116 H       
  50 H50           -4.0000    -0.9216     0.3102 H       
  51 H51           -1.5915    -0.5273     2.1434 H       
  52 H52           -2.3511     0.7331     1.1420 H       
  53 H53            1.2451    -1.7603    -0.0176 H       
  54 H54            3.3472    -0.4082    -0.0369 H       
  55 H55            4.2821     1.8485     0.0427 H       
  56 H56            4.9880     4.3107     0.9643 H       
  57 H57            5.2148     4.2073    -0.7981 H       
  58 H58            3.8032     6.1818     1.9562 H       
  59 H59            3.0989     9.6084    -0.4989 H       
  60 H60            3.6980     8.2966    -2.4939 H       
  61 H61            4.3529     5.9353    -2.2653 H       
  62 H62          -11.7206    -3.5852     2.6839 H       
  63 H63          -11.2174    -4.4524     1.2132 H       
  64 H64          -11.9447    -4.7541     4.8001 H       
  65 H65          -12.3798    -6.9040     5.9188 H       
  66 H66          -11.9950    -9.0179     4.7160 H       
  67 H67          -11.1759    -8.9817     2.3941 H       
  68 H68          -10.7452    -6.8317     1.2738 H       
  69 H69            3.5457    10.6004     1.2911 H       
  70 H70            1.8442    10.1140     1.0996 H       
  71 H71            1.5491    10.1774     3.5608 H       
  72 H72            3.2506    10.6639     3.7523 H       
  73 H73            2.8163    12.7080     2.4175 H       
  74 H74            1.1149    12.2215     2.2260 H       
  75 H75            0.3124    14.6068     3.2968 H       
  76 H76            0.8940    15.2110     4.8668 H       
  77 H77            2.0138    15.0933     3.4883 H       
@<TRIPOS>BOND
   1    1    2 ar
   2    1   16 ar
   3    2    3 1
   4    2   13 ar
   5    3   12 1
   6    3   44 1
   7    3   45 1
   8    4    5 1
   9    4   11 1
  10    4   46 1
  11    4   47 1
  12    5    6 2
  13    5    9 1
  14    6    7 1
  15    7    8 2
  16    8    9 1
  17    8   10 1
  18   10   27 am
  19   10   48 1
  20   11   12 1
  21   11   49 1
  22   11   50 1
  23   12   51 1
  24   12   52 1
  25   13   14 ar
  26   13   53 1
  27   14   15 ar
  28   14   54 1
  29   15   16 ar
  30   15   17 1
  31   17   18 am
  32   17   55 1
  33   18   19 2
  34   18   20 1
  35   20   21 1
  36   20   56 1
  37   20   57 1
  38   21   22 ar
  39   21   26 ar
  40   22   23 ar
  41   22   58 1
  42   23   24 ar
  43   23   36 1
  44   24   25 ar
  45   24   59 1
  46   25   26 ar
  47   25   60 1
  48   26   61 1
  49   27   28 2
  50   27   29 1
  51   29   30 1
  52   29   62 1
  53   29   63 1
  54   30   31 ar
  55   30   35 ar
  56   31   32 ar
  57   31   64 1
  58   32   33 ar
  59   32   65 1
  60   33   34 ar
  61   33   66 1
  62   34   35 ar
  63   34   67 1
  64   35   68 1
  65   36   37 1
  66   37   38 1
  67   37   69 1
  68   37   70 1
  69   38   39 1
  70   38   71 1
  71   38   72 1
  72   39   40 1
  73   39   73 1
  74   39   74 1
  75   40   41 1
  76   40   42 2
  77   40   43 2
  78   41   75 1
  79   41   76 1
  80   41   77 1

#	End of record

