#	Name: ASD07480036
#	Creating user name:	WinNT
#	Creation time:	15. 06. 2019 21:11

#	Modifying user name:	WinNT
#	Modification time:	15. 06. 2019 21:11

#	Program:	/corina/corina34_cracker 3.40 0067  02.08.2006

@<TRIPOS>MOLECULE
ASD07480036
  40   43    0    0    0
SMALL
NO_CHARGES


@<TRIPOS>ATOM
   1 C1            -0.0170     1.4020     0.0098 C.2     
   2 C2             0.0021    -0.0041     0.0020 C.2     
   3 N3             1.1418    -0.6570    -0.0124 N.2     
   4 N4             2.3572     0.0341    -0.0203 N.pl3   
   5 C5             2.3723     1.3982    -0.0132 C.2     
   6 C6             1.1515     2.0990     0.0023 C.2     
   7 C7             3.6688    -0.3842    -0.0351 C.2     
   8 C8             4.4481     0.7642    -0.0365 C.2     
   9 N9             3.6392     1.8103    -0.0231 N.2     
  10 N10           -1.1970    -0.7100     0.0102 N.pl3   
  11 C11           -1.3293    -2.1743     0.0095 C.3     
  12 C12           -0.6950    -2.7467     1.2509 C.ar    
  13 C13            0.0399    -3.9149     1.1753 C.ar    
  14 C14            0.6221    -4.4416     2.3135 C.ar    
  15 C15            0.4698    -3.8004     3.5280 C.ar    
  16 C16           -0.2658    -2.6297     3.6048 C.ar    
  17 C17           -0.8436    -2.1003     2.4636 C.ar    
  18 C18            4.1466    -1.7657    -0.0463 C.2     
  19 N19            3.2637    -2.7840    -0.0425 N.am    
  20 C20           -2.5451    -0.1136     0.0273 C.3     
  21 C21           -3.4671    -1.1998    -0.5809 C.3     
  22 C22           -2.8381    -2.4980    -0.0059 C.3     
  23 F23           -0.4154    -2.0020     4.7918 F       
  24 O24            5.3420    -1.9964    -0.0591 O.2     
  25 H25           -0.9597     1.9289     0.0171 H       
  26 H26            1.1424     3.1789     0.0079 H       
  27 H27            5.5275     0.7978    -0.0466 H       
  28 H28           -0.8497    -2.5894    -0.8768 H       
  29 H29            0.1592    -4.4170     0.2265 H       
  30 H30            1.1958    -5.3546     2.2533 H       
  31 H31            0.9241    -4.2123     4.4170 H       
  32 H32           -1.4175    -1.1874     2.5223 H       
  33 H33            2.3114    -2.6003    -0.0324 H       
  34 H34            3.5807    -3.7008    -0.0500 H       
  35 H35           -2.8474     0.1114     1.0501 H       
  36 H36           -2.5684     0.7891    -0.5833 H       
  37 H37           -4.4940    -1.0784    -0.2361 H       
  38 H38           -3.4183    -1.1887    -1.6697 H       
  39 H39           -3.0441    -3.3475    -0.6571 H       
  40 H40           -3.2014    -2.6880     1.0041 H       
@<TRIPOS>BOND
   1    1    2 1
   2    1    6 2
   3    1   25 1
   4    2    3 2
   5    2   10 1
   6    3    4 1
   7    4    5 1
   8    4    7 1
   9    5    6 1
  10    5    9 2
  11    6   26 1
  12    7    8 2
  13    7   18 1
  14    8    9 1
  15    8   27 1
  16   10   20 1
  17   10   11 1
  18   11   12 1
  19   11   22 1
  20   11   28 1
  21   12   13 ar
  22   12   17 ar
  23   13   14 ar
  24   13   29 1
  25   14   15 ar
  26   14   30 1
  27   15   16 ar
  28   15   31 1
  29   16   17 ar
  30   16   23 1
  31   17   32 1
  32   18   24 2
  33   18   19 am
  34   19   33 1
  35   19   34 1
  36   20   21 1
  37   20   35 1
  38   20   36 1
  39   21   22 1
  40   21   37 1
  41   21   38 1
  42   22   39 1
  43   22   40 1

#	End of record

