#	Name: ASD04882214
#	Creating user name:	WinNT
#	Creation time:	15. 06. 2019 20:54

#	Modifying user name:	WinNT
#	Modification time:	15. 06. 2019 20:54

#	Program:	/corina/corina34_cracker 3.40 0067  02.08.2006

@<TRIPOS>MOLECULE
ASD04882214
  88   92    0    0    0
SMALL
NO_CHARGES


@<TRIPOS>ATOM
   1 C1            -0.0940     1.4639     0.0098 C.2     
   2 C2            -0.1235    -0.0094    -0.0163 C.2     
   3 N3             0.0630    -0.6667    -1.1780 N.am    
   4 C4             0.1564    -2.0648    -1.1849 C.ar    
   5 C5             0.0191    -2.7691    -2.3842 C.ar    
   6 C6             0.1115    -4.1562    -2.3925 C.ar    
   7 C7             0.3382    -4.8413    -1.2195 C.ar    
   8 C8             0.4760    -4.1432    -0.0165 C.ar    
   9 C9             0.3901    -2.7481    -0.0065 C.ar    
  10 N10           -0.2111    -2.0805    -3.5724 N.3     
  11 C11           -1.5286    -1.4297    -3.5572 C.3     
  12 C12           -0.0814    -2.9735    -4.7323 C.3     
  13 C13           -0.2626    -2.1643    -6.0186 C.3     
  14 N14           -1.5801    -1.5134    -6.0034 N.3     
  15 C15           -1.7098    -0.6204    -4.8436 C.3     
  16 C16           -1.8109    -0.8227    -7.1953 C.ar    
  17 C17           -2.8920    -1.1624    -7.9984 C.ar    
  18 C18           -0.9630     0.2094    -7.5773 C.ar    
  19 C19           -1.1941     0.8901    -8.7562 C.ar    
  20 C20           -2.2685     0.5458    -9.5562 C.ar    
  21 C21           -3.1174    -0.4773    -9.1764 C.ar    
  22 C22            0.7178    -4.8774     1.2401 C.2     
  23 N23            0.8059    -6.2222     1.2285 N.am    
  24 O24            0.8376    -4.2692     2.2862 O.2     
  25 O25           -0.3160    -0.6321     1.0106 O.2     
  26 C26            0.9811     2.2955     0.2082 C.2     
  27 O27            0.5085     3.5424     0.1435 O.3     
  28 N28           -0.6795     3.5894    -0.0622 N.2     
  29 C29           -1.2077     2.4069    -0.1764 C.2     
  30 C30           -3.8178    -2.2774    -7.5852 C.3     
  31 C31            1.0460    -6.9513     2.4764 C.3     
  32 C32            1.1020    -8.4526     2.1871 C.3     
  33 C33            1.3528    -9.2140     3.4903 C.3     
  34 N34            1.4064   -10.6516     3.2134 N.am    
  35 C35            2.6318   -11.3844     2.8735 C.3     
  36 C36            2.1566   -12.7176     2.2547 C.3     
  37 C37            0.7585   -12.8816     2.8946 C.3     
  38 C38            0.3406   -11.4701     3.2435 C.2     
  39 O39           -0.7925   -11.1257     3.5050 O.2     
  40 C40            2.4100     1.8826     0.4505 C.3     
  41 C41           -2.6544     2.0731    -0.4343 C.3     
  42 C42           -3.4635     3.3665    -0.5497 C.3     
  43 C43           -2.7705     1.2808    -1.7380 C.3     
  44 C44           -3.1981     1.2330     0.7231 C.3     
  45 H45            0.1325    -0.1719    -2.0095 H       
  46 H46            0.0049    -4.6978    -3.3208 H       
  47 H47            0.4091    -5.9189    -1.2291 H       
  48 H48            0.4962    -2.2060     0.9215 H       
  49 H49           -2.3084    -2.1885    -3.4922 H       
  50 H50           -1.5956    -0.7642    -2.6965 H       
  51 H51            0.9067    -3.4337    -4.7282 H       
  52 H52           -0.8447    -3.7499    -4.6806 H       
  53 H53            0.5172    -1.4054    -6.0837 H       
  54 H54           -0.1956    -2.8297    -6.8794 H       
  55 H55           -2.6979    -0.1602    -4.8476 H       
  56 H56           -0.9465     0.1560    -4.8953 H       
  57 H57           -0.1243     0.4792    -6.9527 H       
  58 H58           -0.5353     1.6926    -9.0538 H       
  59 H59           -2.4474     1.0804   -10.4775 H       
  60 H60           -3.9554    -0.7437    -9.8034 H       
  61 H61            0.7104    -6.7074     0.3940 H       
  62 H62           -4.6284    -1.8713    -6.9803 H       
  63 H63           -4.2313    -2.7544    -8.4738 H       
  64 H64           -3.2631    -3.0131    -7.0027 H       
  65 H65            1.9932    -6.6290     2.9089 H       
  66 H66            0.2376    -6.7464     3.1782 H       
  67 H67            0.1549    -8.7749     1.7545 H       
  68 H68            1.9104    -8.6575     1.4853 H       
  69 H69            2.3000    -8.8918     3.9229 H       
  70 H70            0.5444    -9.0091     4.1922 H       
  71 H71            3.2198   -10.8207     2.1492 H       
  72 H72            3.2195   -11.5737     3.7718 H       
  73 H73            2.0824   -12.6397     1.1700 H       
  74 H74            2.8154   -13.5374     2.5412 H       
  75 H75            0.0622   -13.3235     2.1819 H       
  76 H76            0.8208   -13.4908     3.7963 H       
  77 H77            2.9304     1.7971    -0.5035 H       
  78 H78            2.9050     2.6318     1.0685 H       
  79 H79            2.4283     0.9201     0.9618 H       
  80 H80           -3.0762     3.9650    -1.3743 H       
  81 H81           -4.5099     3.1251    -0.7362 H       
  82 H82           -3.3808     3.9309     0.3791 H       
  83 H83           -2.1941     0.3593    -1.6558 H       
  84 H84           -3.8170     1.0394    -1.9245 H       
  85 H85           -2.3832     1.8793    -2.5626 H       
  86 H86           -3.1154     1.7974     1.6519 H       
  87 H87           -4.2446     0.9916     0.5366 H       
  88 H88           -2.6217     0.3115     0.8054 H       
@<TRIPOS>BOND
   1    1    2 1
   2    1   26 2
   3    1   29 1
   4    2    3 am
   5    2   25 2
   6    3    4 1
   7    3   45 1
   8    4    5 ar
   9    4    9 ar
  10    5    6 ar
  11    5   10 1
  12    6    7 ar
  13    6   46 1
  14    7    8 ar
  15    7   47 1
  16    8    9 ar
  17    8   22 1
  18    9   48 1
  19   10   11 1
  20   10   12 1
  21   11   15 1
  22   11   49 1
  23   11   50 1
  24   12   13 1
  25   12   51 1
  26   12   52 1
  27   13   14 1
  28   13   53 1
  29   13   54 1
  30   14   15 1
  31   14   16 1
  32   15   55 1
  33   15   56 1
  34   16   17 ar
  35   16   18 ar
  36   17   30 1
  37   17   21 ar
  38   18   19 ar
  39   18   57 1
  40   19   20 ar
  41   19   58 1
  42   20   21 ar
  43   20   59 1
  44   21   60 1
  45   22   23 am
  46   22   24 2
  47   23   31 1
  48   23   61 1
  49   26   27 1
  50   26   40 1
  51   27   28 1
  52   28   29 2
  53   29   41 1
  54   30   62 1
  55   30   63 1
  56   30   64 1
  57   31   32 1
  58   31   65 1
  59   31   66 1
  60   32   33 1
  61   32   67 1
  62   32   68 1
  63   33   34 1
  64   33   69 1
  65   33   70 1
  66   34   35 1
  67   34   38 am
  68   35   36 1
  69   35   71 1
  70   35   72 1
  71   36   37 1
  72   36   73 1
  73   36   74 1
  74   37   38 1
  75   37   75 1
  76   37   76 1
  77   38   39 2
  78   40   77 1
  79   40   78 1
  80   40   79 1
  81   41   42 1
  82   41   43 1
  83   41   44 1
  84   42   80 1
  85   42   81 1
  86   42   82 1
  87   43   83 1
  88   43   84 1
  89   43   85 1
  90   44   86 1
  91   44   87 1
  92   44   88 1

#	End of record

