#	Name: ASD01882449
#	Creating user name:	WinNT
#	Creation time:	15. 06. 2019 19:44

#	Modifying user name:	WinNT
#	Modification time:	15. 06. 2019 19:44

#	Program:	/corina/corina34_cracker 3.40 0067  02.08.2006

@<TRIPOS>MOLECULE
ASD01882449
  58   62    0    0    0
SMALL
NO_CHARGES


@<TRIPOS>ATOM
   1 C1             0.3820     1.3466     0.4867 C.2     
   2 C2             0.3423    -0.0378     0.7412 C.2     
   3 C3             1.4452    -0.7919     0.4858 C.2     
   4 C4             2.6036    -0.1824    -0.0260 C.2     
   5 C5             2.6271     1.1457    -0.2645 C.2     
   6 N6             1.5285     1.9138    -0.0135 N.pl3   
   7 N7             0.0270     3.4342     0.2457 N.2     
   8 N8            -0.5013     2.3224     0.6209 N.2     
   9 C9             1.2587     3.2405    -0.1496 C.2     
  10 C10           -0.9073    -0.6764     1.2905 C.3     
  11 F11           -0.7236    -0.9705     2.6458 F       
  12 F12           -1.9837     0.2056     1.1464 F       
  13 F13           -1.1746    -1.8570     0.5892 F       
  14 C14            1.4252    -2.2753     0.7511 C.3     
  15 N15            1.5333    -3.0017    -0.5211 N.3     
  16 C16            1.8864    -4.4091    -0.2951 C.3     
  17 C17            2.1325    -5.0969    -1.6398 C.3     
  18 C18            0.8669    -5.0000    -2.4963 C.3     
  19 C19            0.4935    -3.5260    -2.6762 C.3     
  20 C20            0.2949    -2.8837    -1.3014 C.3     
  21 C21            1.1262    -5.6325    -3.8651 C.3     
  22 F22            1.4744    -6.9773    -3.6991 F       
  23 F23           -0.0306    -5.5433    -4.6467 F       
  24 F24            2.1721    -4.9552    -4.5012 F       
  25 C25           -0.2620    -5.7255    -1.8106 C.ar    
  26 C26           -0.0808    -7.0211    -1.3640 C.ar    
  27 C27           -1.1164    -7.6866    -0.7351 C.ar    
  28 C28           -2.3330    -7.0563    -0.5523 C.ar    
  29 C29           -2.5139    -5.7604    -0.9981 C.ar    
  30 C30           -1.4770    -5.0934    -1.6231 C.ar    
  31 C31            2.2054     4.2941    -0.6642 C.3     
  32 C32            2.0552     4.4172    -2.1818 C.3     
  33 C33            2.8501     5.5204    -2.8832 C.3     
  34 C34            3.2674     4.0572    -3.0432 C.3     
  35 H35            3.4799    -0.7801    -0.2291 H       
  36 H36            3.5227     1.6038    -0.6575 H       
  37 H37            2.2648    -2.5408     1.3936 H       
  38 H38            0.4910    -2.5436     1.2445 H       
  39 H39            2.7903    -4.4638     0.3116 H       
  40 H40            1.0694    -4.9095     0.2247 H       
  41 H41            2.9585    -4.6057    -2.1541 H       
  42 H42            2.3793    -6.1454    -1.4725 H       
  43 H43            1.2937    -3.0100    -3.2068 H       
  44 H44           -0.4307    -3.4521    -3.2493 H       
  45 H45           -0.5146    -3.3913    -0.7769 H       
  46 H46            0.0429    -1.8305    -1.4256 H       
  47 H47            0.8697    -7.5136    -1.5069 H       
  48 H48           -0.9750    -8.6991    -0.3868 H       
  49 H49           -3.1423    -7.5765    -0.0616 H       
  50 H50           -3.4646    -5.2681    -0.8555 H       
  51 H51           -1.6172    -4.0796    -1.9681 H       
  52 H52            1.9726     5.2511    -0.1972 H       
  53 H53            3.2299     4.0114    -0.4222 H       
  54 H54            1.0678     4.1792    -2.5774 H       
  55 H55            2.3858     6.0080    -3.7404 H       
  56 H56            3.4800     6.1586    -2.2634 H       
  57 H57            4.1719     3.7326    -2.5287 H       
  58 H58            3.0776     3.5821    -4.0057 H       
@<TRIPOS>BOND
   1    1    2 1
   2    1    6 1
   3    1    8 2
   4    2    3 2
   5    2   10 1
   6    3    4 1
   7    3   14 1
   8    4    5 2
   9    4   35 1
  10    5    6 1
  11    5   36 1
  12    6    9 1
  13    7    8 1
  14    7    9 2
  15    9   31 1
  16   10   11 1
  17   10   12 1
  18   10   13 1
  19   14   15 1
  20   14   37 1
  21   14   38 1
  22   15   16 1
  23   15   20 1
  24   16   17 1
  25   16   39 1
  26   16   40 1
  27   17   18 1
  28   17   41 1
  29   17   42 1
  30   18   19 1
  31   18   21 1
  32   18   25 1
  33   19   20 1
  34   19   43 1
  35   19   44 1
  36   20   45 1
  37   20   46 1
  38   21   22 1
  39   21   23 1
  40   21   24 1
  41   25   26 ar
  42   25   30 ar
  43   26   27 ar
  44   26   47 1
  45   27   28 ar
  46   27   48 1
  47   28   29 ar
  48   28   49 1
  49   29   30 ar
  50   29   50 1
  51   30   51 1
  52   31   32 1
  53   31   52 1
  54   31   53 1
  55   32   33 1
  56   32   34 1
  57   32   54 1
  58   33   34 1
  59   33   55 1
  60   33   56 1
  61   34   57 1
  62   34   58 1

#	End of record

