#	Name: ASD04590095
#	Creating user name:	WinNT
#	Creation time:	15. 06. 2019 20:50

#	Modifying user name:	WinNT
#	Modification time:	15. 06. 2019 20:50

#	Program:	/corina/corina34_cracker 3.40 0067  02.08.2006

@<TRIPOS>MOLECULE
ASD04590095
  60   63    0    0    0
SMALL
NO_CHARGES


@<TRIPOS>ATOM
   1 C1            -0.0172     1.4148     0.0098 C.2     
   2 C2             0.0021    -0.0041     0.0020 C.2     
   3 C3             1.2886     1.7939    -0.0006 C.2     
   4 N4             2.0329     0.6583    -0.0138 N.pl3   
   5 N5             1.2682    -0.3737    -0.0121 N.2     
   6 N6            -1.1444     2.2495     0.0200 N.am    
   7 C7            -0.9914     3.5885     0.0265 C.2     
   8 C8            -1.1720    -0.8970     0.0084 C.2     
   9 N9            -1.0019    -2.2339    -0.0004 N.am    
  10 C10           -2.1680    -3.1207     0.0060 C.3     
  11 C11           -1.7885    -4.4668    -0.6145 C.3     
  12 C12           -3.0063    -5.3929    -0.6079 C.3     
  13 C13           -3.4746    -5.6093     0.8325 C.3     
  14 C14           -3.8542    -4.2633     1.4531 C.3     
  15 C15           -2.6363    -3.3371     1.4464 C.3     
  16 O16            0.1236     4.0729     0.0236 O.2     
  17 C17           -2.1796     4.4682     0.0372 C.ar    
  18 C18           -2.0237     5.8545     0.0439 C.ar    
  19 C19           -3.4607     3.9144     0.0347 C.ar    
  20 C20           -4.5693     4.7387     0.0442 C.ar    
  21 C21           -4.4143     6.1131     0.0558 C.ar    
  22 C22           -3.1423     6.6736     0.0535 C.ar    
  23 O23           -2.2933    -0.4268     0.0217 O.2     
  24 Cl24          -6.1617     4.0474     0.0411 Cl      
  25 N25           -2.9909     8.0624     0.0656 N.3     
  26 C26           -4.2978     8.7344     0.0797 C.3     
  27 C27           -2.1820     8.5140    -1.0751 C.3     
  28 C28           -1.9734    10.0273    -0.9819 C.3     
  29 N29           -3.2802    10.6994    -0.9678 N.3     
  30 C30           -4.0891    10.2478     0.1729 C.3     
  31 C31           -3.1210    12.1597    -0.9550 C.3     
  32 H32            1.6631     2.8069     0.0009 H       
  33 H33            3.0025     0.6304    -0.0232 H       
  34 H34           -2.0341     1.8629     0.0223 H       
  35 H35           -0.1074    -2.6090    -0.0109 H       
  36 H36           -2.9724    -2.6675    -0.5734 H       
  37 H37           -1.4548    -4.3126    -1.6407 H       
  38 H38           -0.9841    -4.9200    -0.0352 H       
  39 H39           -3.8107    -4.9397    -1.1872 H       
  40 H40           -2.7359    -6.3519    -1.0499 H       
  41 H41           -4.3422    -6.2691     0.8373 H       
  42 H42           -2.6703    -6.0626     1.4119 H       
  43 H43           -4.6585    -3.8100     0.8737 H       
  44 H44           -4.1878    -4.4174     2.4792 H       
  45 H45           -1.8320    -3.7904     2.0258 H       
  46 H46           -2.9067    -2.3782     1.8885 H       
  47 H47           -1.0347     6.2884     0.0421 H       
  48 H48           -3.5854     2.8417     0.0250 H       
  49 H49           -5.2844     6.7529     0.0625 H       
  50 H50           -4.8383     8.4977    -0.8367 H       
  51 H51           -4.8731     8.3929     0.9402 H       
  52 H52           -1.2148     8.0117    -1.0565 H       
  53 H53           -2.6985     8.2747    -2.0047 H       
  54 H54           -1.4328    10.2641    -0.0655 H       
  55 H55           -1.3981    10.3688    -1.8424 H       
  56 H56           -5.0564    10.7500     0.1543 H       
  57 H57           -3.5726    10.4871     1.1025 H       
  58 H58           -2.5762    12.4736    -1.8454 H       
  59 H59           -4.1033    12.6321    -0.9448 H       
  60 H60           -2.5656    12.4569    -0.0655 H       
@<TRIPOS>BOND
   1    1    2 1
   2    1    3 2
   3    1    6 1
   4    2    8 1
   5    2    5 2
   6    3    4 1
   7    3   32 1
   8    4    5 1
   9    4   33 1
  10    6    7 am
  11    6   34 1
  12    7   16 2
  13    7   17 1
  14    8    9 am
  15    8   23 2
  16    9   10 1
  17    9   35 1
  18   10   11 1
  19   10   15 1
  20   10   36 1
  21   11   12 1
  22   11   37 1
  23   11   38 1
  24   12   13 1
  25   12   39 1
  26   12   40 1
  27   13   14 1
  28   13   41 1
  29   13   42 1
  30   14   15 1
  31   14   43 1
  32   14   44 1
  33   15   45 1
  34   15   46 1
  35   17   18 ar
  36   17   19 ar
  37   18   22 ar
  38   18   47 1
  39   19   20 ar
  40   19   48 1
  41   20   21 ar
  42   20   24 1
  43   21   22 ar
  44   21   49 1
  45   22   25 1
  46   25   26 1
  47   25   27 1
  48   26   30 1
  49   26   50 1
  50   26   51 1
  51   27   28 1
  52   27   52 1
  53   27   53 1
  54   28   29 1
  55   28   54 1
  56   28   55 1
  57   29   30 1
  58   29   31 1
  59   30   56 1
  60   30   57 1
  61   31   58 1
  62   31   59 1
  63   31   60 1

#	End of record

