#	Name: ASD03092202
#	Creating user name:	WinNT
#	Creation time:	15. 06. 2019 20:32

#	Modifying user name:	WinNT
#	Modification time:	15. 06. 2019 20:32

#	Program:	/corina/corina34_cracker 3.40 0067  02.08.2006

@<TRIPOS>MOLECULE
ASD03092202
  54   56    0    0    0
SMALL
NO_CHARGES


@<TRIPOS>ATOM
   1 C1            -0.9879    -0.7711     0.3926 C.ar    
   2 N2             0.0930    -0.0629     0.6576 N.ar    
   3 C3             0.0498     1.2454     0.8211 C.ar    
   4 C4            -1.1422     1.9330     0.7206 C.ar    
   5 C5            -2.3140     1.2219     0.4407 C.ar    
   6 C6            -2.2205    -0.1634     0.2689 C.ar    
   7 C7            -3.6158     1.9166     0.3241 C.2     
   8 N8            -4.8047     1.3568     0.4232 N.2     
   9 C9            -5.7522     2.2821     0.2666 C.2     
  10 N10           -5.1826     3.4485     0.0649 N.2     
  11 N11           -3.7947     3.2380     0.1031 N.pl3   
  12 C12           -2.7484     4.2486    -0.0706 C.3     
  13 C13           -2.4372     4.8976     1.2795 C.3     
  14 C14           -1.2603     5.8626     1.1222 C.3     
  15 O15           -3.5841     5.6159     1.7384 O.3     
  16 C16           -0.8687     6.4172     2.4934 C.3     
  17 N17           -7.1281     2.0487     0.3097 N.pl3   
  18 C18           -7.6117     0.7465     0.4733 C.ar    
  19 C19           -8.8300     0.3822    -0.0847 C.ar    
  20 C20           -9.3068    -0.9044     0.0776 C.ar    
  21 C21           -8.5718    -1.8309     0.7962 C.ar    
  22 C22           -7.3547    -1.4701     1.3553 C.ar    
  23 C23           -6.8712    -0.1853     1.1894 C.ar    
  24 C24            0.3081     7.3822     2.3361 C.3     
  25 C25            0.6997     7.9367     3.7072 C.3     
  26 C26           -0.8740    -2.2635     0.2165 C.3     
  27 F27           -6.6390    -2.3757     2.0574 F       
  28 F28           -9.0405    -3.0882     0.9539 F       
  29 C29            1.3196     1.9990     1.1221 C.3     
  30 H30           -1.1702     3.0041     0.8563 H       
  31 H31           -3.1012    -0.7494     0.0513 H       
  32 H32           -1.8480     3.7757    -0.4626 H       
  33 H33           -3.0922     5.0110    -0.7696 H       
  34 H34           -2.1789     4.1247     2.0033 H       
  35 H35           -0.4119     5.3333     0.6885 H       
  36 H36           -1.5494     6.6844     0.4670 H       
  37 H37           -3.8711     6.3211     1.1422 H       
  38 H38           -1.7172     6.9465     2.9271 H       
  39 H39           -0.5797     5.5954     3.1486 H       
  40 H40           -7.7485     2.7896     0.2261 H       
  41 H41           -9.4048     1.1045    -0.6452 H       
  42 H42          -10.2544    -1.1873    -0.3566 H       
  43 H43           -5.9235     0.0961     1.6242 H       
  44 H44            1.1566     6.8529     1.9024 H       
  45 H45            0.0191     8.2039     1.6809 H       
  46 H46           -0.1487     8.4660     4.1409 H       
  47 H47            0.9888     7.1149     4.3624 H       
  48 H48            1.5381     8.6242     3.5952 H       
  49 H49           -1.0074    -2.7543     1.1805 H       
  50 H50           -1.6426    -2.6073    -0.4758 H       
  51 H51            0.1103    -2.5081    -0.1827 H       
  52 H52            1.7866     2.3118     0.1882 H       
  53 H53            1.0867     2.8775     1.7240 H       
  54 H54            2.0039     1.3529     1.6720 H       
@<TRIPOS>BOND
   1    1    2 ar
   2    1   26 1
   3    1    6 ar
   4    2    3 ar
   5    3    4 ar
   6    3   29 1
   7    4    5 ar
   8    4   30 1
   9    5    6 ar
  10    5    7 1
  11    6   31 1
  12    7    8 2
  13    7   11 1
  14    8    9 1
  15    9   10 2
  16    9   17 1
  17   10   11 1
  18   11   12 1
  19   12   13 1
  20   12   32 1
  21   12   33 1
  22   13   14 1
  23   13   15 1
  24   13   34 1
  25   14   16 1
  26   14   35 1
  27   14   36 1
  28   15   37 1
  29   16   24 1
  30   16   38 1
  31   16   39 1
  32   17   18 1
  33   17   40 1
  34   18   19 ar
  35   18   23 ar
  36   19   20 ar
  37   19   41 1
  38   20   21 ar
  39   20   42 1
  40   21   22 ar
  41   21   28 1
  42   22   23 ar
  43   22   27 1
  44   23   43 1
  45   24   25 1
  46   24   44 1
  47   24   45 1
  48   25   46 1
  49   25   47 1
  50   25   48 1
  51   26   49 1
  52   26   50 1
  53   26   51 1
  54   29   52 1
  55   29   53 1
  56   29   54 1

#	End of record

