#	Name: ASD08150465
#	Creating user name:	WinNT
#	Creation time:	15. 06. 2019 21:16

#	Modifying user name:	WinNT
#	Modification time:	15. 06. 2019 21:16

#	Program:	/corina/corina34_cracker 3.40 0067  02.08.2006

@<TRIPOS>MOLECULE
ASD08150465
  26   27    0    0    0
SMALL
NO_CHARGES


@<TRIPOS>ATOM
   1 N1            -0.0157     1.3036     0.0092 N.ar    
   2 C2             0.0021    -0.0041     0.0020 C.ar    
   3 C3             1.2102    -0.7237    -0.0129 C.ar    
   4 C4             2.4189    -0.0314    -0.0207 C.ar    
   5 C5             2.3728     1.3752    -0.0131 C.ar    
   6 C6             3.5494     2.1416    -0.0197 C.ar    
   7 C7             3.4670     3.5023    -0.0117 C.ar    
   8 C8             2.2289     4.1421     0.0034 C.ar    
   9 C9             1.0692     3.4283     0.0106 C.ar    
  10 C10            1.1127     2.0243     0.0023 C.ar    
  11 C11            1.1975    -2.1988    -0.0198 C.2     
  12 O12            2.2444    -2.8153    -0.0327 O.2     
  13 O13            0.0249    -2.8626    -0.0118 O.3     
  14 Cl14           4.9218     4.4496    -0.0198 Cl      
  15 Cl15           3.9348    -0.8772    -0.0386 Cl      
  16 C16            0.0885    -4.3131    -0.0193 C.3     
  17 C17           -1.3302    -4.8858    -0.0084 C.3     
  18 H18           -0.9332    -0.5441     0.0081 H       
  19 H19            4.5139     1.6559    -0.0307 H       
  20 H20            2.1885     5.2213     0.0099 H       
  21 H21            0.1184     3.9403     0.0231 H       
  22 H22            0.6092    -4.6494    -0.9159 H       
  23 H23            0.6262    -4.6578     0.8640 H       
  24 H24           -1.2825    -5.9748    -0.0141 H       
  25 H25           -1.8510    -4.5496     0.8881 H       
  26 H26           -1.8680    -4.5411    -0.8917 H       
@<TRIPOS>BOND
   1    1    2 ar
   2    1   10 ar
   3    2    3 ar
   4    2   18 1
   5    3    4 ar
   6    3   11 1
   7    4    5 ar
   8    4   15 1
   9    5    6 ar
  10    5   10 ar
  11    6    7 ar
  12    6   19 1
  13    7    8 ar
  14    7   14 1
  15    8    9 ar
  16    8   20 1
  17    9   10 ar
  18    9   21 1
  19   11   12 2
  20   11   13 1
  21   13   16 1
  22   16   17 1
  23   16   22 1
  24   16   23 1
  25   17   24 1
  26   17   25 1
  27   17   26 1

#	End of record

