#	Name: ASD01810215
#	Creating user name:	WinNT
#	Creation time:	15. 06. 2019 19:24

#	Modifying user name:	WinNT
#	Modification time:	15. 06. 2019 19:24

#	Program:	/corina/corina34_cracker 3.40 0067  02.08.2006

@<TRIPOS>MOLECULE
ASD01810215
  41   44    0    0    0
SMALL
NO_CHARGES


@<TRIPOS>ATOM
   1 C1            -0.0167     1.3832     0.0096 C.ar    
   2 C2             0.0021    -0.0041     0.0020 C.ar    
   3 C3             1.1959    -0.6919    -0.0130 C.ar    
   4 C4             2.4007     0.0059    -0.0207 C.ar    
   5 C5             2.3789     1.4111    -0.0130 C.ar    
   6 C6             1.1632     2.0941     0.0022 C.ar    
   7 N7             3.6013    -0.6705    -0.0353 N.pl3   
   8 C8             4.7860    -0.0462    -0.0428 C.2     
   9 C9             4.8924     1.3300    -0.0360 C.2     
  10 C10            3.6622     2.1381    -0.0214 C.2     
  11 O11            3.7023     3.3559    -0.0152 O.2     
  12 C12            6.2117     1.9776    -0.0437 C.2     
  13 O13            6.3025     3.3226    -0.0369 O.3     
  14 O14            7.2212     1.3003    -0.0561 O.2     
  15 C15            3.5807    -2.1353    -0.0424 C.3     
  16 C16            3.5604    -2.6305    -1.4656 C.ar    
  17 C17            4.7357    -2.6770    -2.1973 C.ar    
  18 C18            4.7211    -3.1307    -3.5034 C.ar    
  19 C19            3.5226    -3.5411    -4.0813 C.ar    
  20 C20            2.3441    -3.4923    -3.3397 C.ar    
  21 C21            2.3694    -3.0424    -2.0352 C.ar    
  22 C22            3.5006    -4.0289    -5.4835 C.2     
  23 F23            5.8973    -2.2782    -1.6343 F       
  24 C24            2.4030    -4.4591    -6.1703 C.2     
  25 N25            2.8083    -4.8137    -7.4063 N.pl3   
  26 N26            4.1894    -4.5998    -7.4920 N.2     
  27 C27            4.6079    -4.1257    -6.3485 C.2     
  28 H28           -0.9606     1.9081     0.0170 H       
  29 H29           -0.9293    -0.5508     0.0083 H       
  30 H30            1.1970    -1.7719    -0.0185 H       
  31 H31            1.1468     3.1740     0.0078 H       
  32 H32            5.6885    -0.6393    -0.0542 H       
  33 H33            7.1917     3.7026    -0.0424 H       
  34 H34            4.4703    -2.5136     0.4612 H       
  35 H35            2.6906    -2.4887     0.4779 H       
  36 H36            5.6373    -3.1663    -4.0741 H       
  37 H37            1.4122    -3.8093    -3.7842 H       
  38 H38            1.4559    -3.0049    -1.4603 H       
  39 H39            1.3925    -4.5073    -5.7921 H       
  40 H40            2.2412    -5.1581    -8.1138 H       
  41 H41            5.6266    -3.8611    -6.1065 H       
@<TRIPOS>BOND
   1    1    2 ar
   2    1    6 ar
   3    1   28 1
   4    2    3 ar
   5    2   29 1
   6    3    4 ar
   7    3   30 1
   8    4    5 ar
   9    4    7 1
  10    5    6 ar
  11    5   10 1
  12    6   31 1
  13    7    8 1
  14    7   15 1
  15    8    9 2
  16    8   32 1
  17    9   10 1
  18    9   12 1
  19   10   11 2
  20   12   13 1
  21   12   14 2
  22   13   33 1
  23   15   16 1
  24   15   34 1
  25   15   35 1
  26   16   17 ar
  27   16   21 ar
  28   17   18 ar
  29   17   23 1
  30   18   19 ar
  31   18   36 1
  32   19   20 ar
  33   19   22 1
  34   20   21 ar
  35   20   37 1
  36   21   38 1
  37   22   24 2
  38   22   27 1
  39   24   25 1
  40   24   39 1
  41   25   26 1
  42   25   40 1
  43   26   27 2
  44   27   41 1

#	End of record

