#	Name: ASD01230164
#	Creating user name:	WinNT
#	Creation time:	15. 06. 2019 19:11

#	Modifying user name:	WinNT
#	Modification time:	15. 06. 2019 19:11

#	Program:	/corina/corina34_cracker 3.40 0067  02.08.2006

@<TRIPOS>MOLECULE
ASD01230164
  45   47    0    0    0
SMALL
NO_CHARGES


@<TRIPOS>ATOM
   1 S1             2.2691    -6.2731    -4.5426 S.o2    
   2 N2             1.6049    -5.5645    -3.2023 N.am    
   3 C3             2.1474    -4.5264    -2.6257 C.2     
   4 N4             3.2951    -3.9013    -3.0310 N.pl3   
   5 C5             4.1217    -4.3421    -4.1536 C.3     
   6 C6             3.2469    -4.9207    -5.2703 C.3     
   7 C7             1.4514    -3.9873    -1.4332 C.2     
   8 N8             1.9348    -2.9222    -0.8272 N.2     
   9 C9             3.0332    -2.3306    -1.2687 C.2     
  10 C10            3.7118    -2.7933    -2.3465 C.2     
  11 C11            0.2285    -4.6372    -0.9300 C.2     
  12 O12           -0.2137    -5.6201    -1.4936 O.2     
  13 N13           -0.4000    -4.1425     0.1547 N.am    
  14 C14           -1.6122    -4.6985     0.5745 C.ar    
  15 C15           -1.8308    -6.0647     0.4519 C.ar    
  16 C16           -3.0292    -6.6107     0.8680 C.ar    
  17 C17           -4.0110    -5.7989     1.4057 C.ar    
  18 C18           -3.7968    -4.4383     1.5288 C.ar    
  19 C19           -2.5983    -3.8867     1.1204 C.ar    
  20 C20           -5.3176    -6.3982     1.8582 C.3     
  21 C21           -5.5137    -6.1260     3.3510 C.3     
  22 C22           -6.7766    -6.8395     3.8378 C.3     
  23 C23           -6.4677    -5.7687     1.0696 C.3     
  24 O24            3.1188    -7.2882    -4.0261 O.2     
  25 O25            1.1563    -6.5910    -5.3672 O.2     
  26 H26            4.6845    -3.4928    -4.5411 H       
  27 H27            4.8177    -5.1070    -3.8092 H       
  28 H28            3.8761    -5.3074    -6.0720 H       
  29 H29            2.5819    -4.1492    -5.6585 H       
  30 H30            3.3992    -1.4537    -0.7554 H       
  31 H31            4.6016    -2.2752    -2.6724 H       
  32 H32           -0.0114    -3.4007     0.6442 H       
  33 H33           -1.0647    -6.6992     0.0314 H       
  34 H34           -3.1998    -7.6729     0.7729 H       
  35 H35           -4.5659    -3.8069     1.9485 H       
  36 H36           -2.4298    -2.8247     1.2212 H       
  37 H37           -5.3036    -7.4741     1.6838 H       
  38 H38           -4.6509    -6.4966     3.9043 H       
  39 H39           -5.6167    -5.0532     3.5142 H       
  40 H40           -6.9163    -6.6456     4.9013 H       
  41 H41           -7.6395    -6.4689     3.2845 H       
  42 H42           -6.6737    -7.9123     3.6746 H       
  43 H43           -6.4817    -4.6928     1.2440 H       
  44 H44           -6.3280    -5.9626     0.0061 H       
  45 H45           -7.4128    -6.2021     1.3969 H       
@<TRIPOS>BOND
   1    1    2 am
   2    1    6 1
   3    1   24 2
   4    1   25 2
   5    2    3 2
   6    3    4 1
   7    3    7 1
   8    4    5 1
   9    4   10 1
  10    5    6 1
  11    5   26 1
  12    5   27 1
  13    6   28 1
  14    6   29 1
  15    7    8 2
  16    7   11 1
  17    8    9 1
  18    9   10 2
  19    9   30 1
  20   10   31 1
  21   11   12 2
  22   11   13 am
  23   13   14 1
  24   13   32 1
  25   14   15 ar
  26   14   19 ar
  27   15   16 ar
  28   15   33 1
  29   16   17 ar
  30   16   34 1
  31   17   18 ar
  32   17   20 1
  33   18   19 ar
  34   18   35 1
  35   19   36 1
  36   20   21 1
  37   20   23 1
  38   20   37 1
  39   21   22 1
  40   21   38 1
  41   21   39 1
  42   22   40 1
  43   22   41 1
  44   22   42 1
  45   23   43 1
  46   23   44 1
  47   23   45 1

#	End of record

