#	Name: ASD01881903
#	Creating user name:	WinNT
#	Creation time:	15. 06. 2019 19:43

#	Modifying user name:	WinNT
#	Modification time:	15. 06. 2019 19:43

#	Program:	/corina/corina34_cracker 3.40 0067  02.08.2006

@<TRIPOS>MOLECULE
ASD01881903
  41   44    0    0    0
SMALL
NO_CHARGES


@<TRIPOS>ATOM
   1 N1            -0.0154     1.2839     0.0091 N.pl3   
   2 N2             0.0021    -0.0041     0.0020 N.2     
   3 N3             1.2033    -0.4649    -0.0119 N.2     
   4 C4             2.0741     0.5645    -0.0147 C.ar    
   5 C5             1.2843     1.7298    -0.0009 C.ar    
   6 C6             3.4670     0.6759    -0.0271 C.ar    
   7 C7             4.0484     1.9285    -0.0255 C.ar    
   8 C8             3.2560     3.0739    -0.0118 C.ar    
   9 C9             1.8924     2.9784    -0.0004 C.ar    
  10 O10            5.4033     2.0444    -0.0370 O.3     
  11 C11            5.9411     3.3683    -0.0346 C.3     
  12 C12            9.5640     3.8529    -0.0649 C.2     
  13 N13            9.4882     2.5502    -0.0715 N.2     
  14 C14            8.1985     2.1820    -0.0617 C.2     
  15 C15            7.4465     3.2990    -0.0485 C.2     
  16 N16            8.3121     4.3593    -0.0505 N.pl3   
  17 C17            7.9485     5.7784    -0.0392 C.3     
  18 C18            7.7140     6.2333     1.4027 C.3     
  19 C19           -1.2133     2.1272     0.0196 C.3     
  20 C20           -1.6228     2.4135     1.4657 C.3     
  21 C21           -2.7884     3.3784     1.6921 C.3     
  22 C22           -2.9777     1.8797     1.9352 C.3     
  23 Br23           4.5472    -0.8761    -0.0451 Br      
  24 H24            3.7236     4.0474    -0.0103 H       
  25 H25            1.2882     3.8735     0.0099 H       
  26 H26            5.5939     3.9031    -0.9187 H       
  27 H27            5.6098     3.8935     0.8612 H       
  28 H28           10.4766     4.4304    -0.0661 H       
  29 H29            7.8281     1.1675    -0.0643 H       
  30 H30            8.7564     6.3640    -0.4781 H       
  31 H31            7.0372     5.9247    -0.6191 H       
  32 H32            6.9062     5.6477     1.8416 H       
  33 H33            8.6253     6.0871     1.9826 H       
  34 H34            7.4435     7.2892     1.4111 H       
  35 H35           -1.0007     3.0667    -0.4906 H       
  36 H36           -2.0254     1.6113    -0.4926 H       
  37 H37           -0.8089     2.4286     2.1906 H       
  38 H38           -2.7415     4.0280     2.5661 H       
  39 H39           -3.2635     3.8093     0.8108 H       
  40 H40           -3.5773     1.3246     1.2137 H       
  41 H41           -3.0553     1.5434     2.9691 H       
@<TRIPOS>BOND
   1    1    2 1
   2    1    5 1
   3    1   19 1
   4    2    3 2
   5    3    4 1
   6    4    5 ar
   7    4    6 ar
   8    5    9 ar
   9    6    7 ar
  10    6   23 1
  11    7    8 ar
  12    7   10 1
  13    8    9 ar
  14    8   24 1
  15    9   25 1
  16   10   11 1
  17   11   15 1
  18   11   26 1
  19   11   27 1
  20   12   13 2
  21   12   16 1
  22   12   28 1
  23   13   14 1
  24   14   15 2
  25   14   29 1
  26   15   16 1
  27   16   17 1
  28   17   18 1
  29   17   30 1
  30   17   31 1
  31   18   32 1
  32   18   33 1
  33   18   34 1
  34   19   20 1
  35   19   35 1
  36   19   36 1
  37   20   21 1
  38   20   22 1
  39   20   37 1
  40   21   22 1
  41   21   38 1
  42   21   39 1
  43   22   40 1
  44   22   41 1

#	End of record

