#	Name: ASD01230753
#	Creating user name:	WinNT
#	Creation time:	15. 06. 2019 19:15

#	Modifying user name:	WinNT
#	Modification time:	15. 06. 2019 19:15

#	Program:	/corina/corina34_cracker 3.40 0067  02.08.2006

@<TRIPOS>MOLECULE
ASD01230753
  30   32    0    0    0
SMALL
NO_CHARGES


@<TRIPOS>ATOM
   1 C1            -0.0166     1.3738     0.0096 C.2     
   2 C2             0.0021    -0.0041     0.0020 C.2     
   3 C3            -1.2144    -0.7001     0.0083 C.2     
   4 C4            -2.3849    -0.0392     0.0110 C.2     
   5 N5            -2.4623     1.3311     0.0013 N.pl3   
   6 C6            -1.3175     2.0758     0.0320 C.2     
   7 C7            -3.8099     1.9043    -0.0487 C.3     
   8 C8            -3.8781     3.1901     0.7804 C.3     
   9 S9            -2.6221     4.3261     0.1120 S.o2    
  10 N10           -1.2620     3.3847     0.0816 N.am    
  11 C11            1.2497     2.1411     0.0016 C.ar    
  12 C12            2.1021     2.0734    -1.1007 C.ar    
  13 O13           -2.8873     4.6251    -1.2517 O.2     
  14 O14           -2.3212     5.3523     1.0478 O.2     
  15 C15            1.5917     2.9386     1.0940 C.ar    
  16 C16            2.7724     3.6519     1.0814 C.ar    
  17 C17            3.6179     3.5775    -0.0139 C.ar    
  18 C18            3.2805     2.7906    -1.1034 C.ar    
  19 F19            4.7726     4.2787    -0.0217 F       
  20 H20            0.9399    -0.5395    -0.0090 H       
  21 H21           -1.2114    -1.7801     0.0107 H       
  22 H22           -3.3018    -0.6097     0.0208 H       
  23 H23           -4.0665     2.1298    -1.0837 H       
  24 H24           -4.5229     1.1819     0.3488 H       
  25 H25           -4.8682     3.6372     0.6917 H       
  26 H26           -3.6612     2.9700     1.8257 H       
  27 H27            1.8401     1.4604    -1.9504 H       
  28 H28            0.9331     2.9978     1.9479 H       
  29 H29            3.0380     4.2696     1.9266 H       
  30 H30            3.9429     2.7359    -1.9547 H       
@<TRIPOS>BOND
   1    1    2 2
   2    1   11 1
   3    1    6 1
   4    2    3 1
   5    2   20 1
   6    3    4 2
   7    3   21 1
   8    4    5 1
   9    4   22 1
  10    5    6 1
  11    5    7 1
  12    6   10 2
  13    7    8 1
  14    7   23 1
  15    7   24 1
  16    8    9 1
  17    8   25 1
  18    8   26 1
  19    9   10 am
  20    9   13 2
  21    9   14 2
  22   11   12 ar
  23   11   15 ar
  24   12   18 ar
  25   12   27 1
  26   15   16 ar
  27   15   28 1
  28   16   17 ar
  29   16   29 1
  30   17   18 ar
  31   17   19 1
  32   18   30 1

#	End of record

