#	Name: ASD03240678
#	Creating user name:	WinNT
#	Creation time:	15. 06. 2019 20:35

#	Modifying user name:	WinNT
#	Modification time:	15. 06. 2019 20:35

#	Program:	/corina/corina34_cracker 3.40 0067  02.08.2006

@<TRIPOS>MOLECULE
ASD03240678
  47   51    0    0    0
SMALL
NO_CHARGES


@<TRIPOS>ATOM
   1 C1            -0.0178     1.4648     0.0101 C.3     
   2 N2             0.0021    -0.0041     0.0020 N.3     
   3 C3             1.3960     1.9864    -0.0006 C.ar    
   4 C4             2.0308     2.2313    -1.2052 C.ar    
   5 C5             3.3250     2.7093    -1.2216 C.ar    
   6 C6             3.9933     2.9457    -0.0203 C.ar    
   7 C7             3.3479     2.6968     1.1910 C.ar    
   8 C8             2.0517     2.2238     1.1943 C.ar    
   9 C9             9.6113     3.5472    -2.0642 C.2     
  10 N10           10.0821     4.4028    -1.1395 N.2     
  11 C11            9.3369     4.8438    -0.1591 C.2     
  12 C12            7.9494     4.3949    -0.0643 C.ar    
  13 C13            7.4615     3.4967    -1.0376 C.ar    
  14 N14            8.3233     3.0854    -2.0362 N.pl3   
  15 C15            7.1034     4.8313     0.9604 C.ar    
  16 C16            5.7971     4.3527     0.9749 C.ar    
  17 C17            5.3826     3.4582    -0.0308 C.ar    
  18 N18            6.2128     3.0674    -0.9863 N.ar    
  19 N19            8.1534     2.2215    -3.1248 N.2     
  20 C20            9.2811     2.1542    -3.7909 C.2     
  21 C21           10.2226     2.9608    -3.1641 C.2     
  22 C22            4.8534     4.7787     2.0361 C.ar    
  23 C23            5.2291     4.7069     3.3765 C.ar    
  24 C24            4.3467     5.1052     4.3600 C.ar    
  25 C25            3.0913     5.5746     4.0177 C.ar    
  26 C26            2.7128     5.6476     2.6892 C.ar    
  27 C27            3.5891     5.2579     1.6968 C.ar    
  28 C28            9.5185     1.3315    -5.0310 C.3     
  29 H29           -0.5450     1.8259    -0.8730 H       
  30 H30           -0.5280     1.8163     0.9069 H       
  31 H31            0.5405    -0.3627     0.7764 H       
  32 H32           -0.9349    -0.3784     0.0090 H       
  33 H33            1.5124     2.0475    -2.1347 H       
  34 H34            3.8196     2.8998    -2.1626 H       
  35 H35            3.8603     2.8775     2.1244 H       
  36 H36            1.5494     2.0346     2.1315 H       
  37 H37            9.7413     5.5303     0.5700 H       
  38 H38            7.4534     5.5178     1.7171 H       
  39 H39           11.2458     3.1068    -3.4773 H       
  40 H40            6.2088     4.3399     3.6449 H       
  41 H41            4.6367     5.0501     5.3988 H       
  42 H42            2.4038     5.8849     4.7907 H       
  43 H43            1.7312     6.0146     2.4278 H       
  44 H44            3.2942     5.3196     0.6597 H       
  45 H45            9.2793     1.9261    -5.9128 H       
  46 H46           10.5645     1.0276    -5.0706 H       
  47 H47            8.8835     0.4460    -5.0067 H       
@<TRIPOS>BOND
   1    1    2 1
   2    1    3 1
   3    1   29 1
   4    1   30 1
   5    2   31 1
   6    2   32 1
   7    3    4 ar
   8    3    8 ar
   9    4    5 ar
  10    4   33 1
  11    5    6 ar
  12    5   34 1
  13    6    7 ar
  14    6   17 1
  15    7    8 ar
  16    7   35 1
  17    8   36 1
  18    9   10 1
  19    9   14 1
  20    9   21 2
  21   10   11 2
  22   11   12 1
  23   11   37 1
  24   12   13 ar
  25   12   15 ar
  26   13   14 1
  27   13   18 ar
  28   14   19 1
  29   15   16 ar
  30   15   38 1
  31   16   17 ar
  32   16   22 1
  33   17   18 ar
  34   19   20 2
  35   20   21 1
  36   20   28 1
  37   21   39 1
  38   22   23 ar
  39   22   27 ar
  40   23   24 ar
  41   23   40 1
  42   24   25 ar
  43   24   41 1
  44   25   26 ar
  45   25   42 1
  46   26   27 ar
  47   26   43 1
  48   27   44 1
  49   28   45 1
  50   28   46 1
  51   28   47 1

#	End of record

