#	Name: ASD08150211
#	Creating user name:	WinNT
#	Creation time:	15. 06. 2019 21:15

#	Modifying user name:	WinNT
#	Modification time:	15. 06. 2019 21:15

#	Program:	/corina/corina34_cracker 3.40 0067  02.08.2006

@<TRIPOS>MOLECULE
ASD08150211
  49   53    0    0    0
SMALL
NO_CHARGES


@<TRIPOS>ATOM
   1 N1            -0.0157     1.2952    -0.0517 N.2     
   2 C2             0.0018    -0.0026    -0.0878 C.2     
   3 N3             1.1485    -0.7346    -0.1052 N.am    
   4 C4             2.3559    -0.1234    -0.0850 C.2     
   5 C5             2.3702     1.3460    -0.0441 C.ar    
   6 C6             3.5601     2.0709    -0.0203 C.ar    
   7 C7             3.5158     3.4472     0.0183 C.ar    
   8 C8             2.2979     4.1146     0.0337 C.ar    
   9 C9             1.1111     3.4173     0.0107 C.ar    
  10 C10            1.1296     2.0215    -0.0285 C.ar    
  11 O11            3.3900    -0.7656    -0.0998 O.2     
  12 C12            1.0789    -2.1329    -0.1439 C.ar    
  13 C13            1.0414    -2.8608     1.0384 C.ar    
  14 C14            0.9415    -4.8953    -0.2203 C.ar    
  15 C15            1.0415    -2.7941    -1.3642 C.ar    
  16 C16            0.9729    -4.2393     0.9969 C.ar    
  17 C17            0.9729    -4.1733    -1.3990 C.ar    
  18 C18            1.0761    -2.1468     2.3651 C.3     
  19 C19           -1.3149    -0.7353    -0.1111 C.3     
  20 N20           -2.4134     0.2336    -0.0866 N.pl3   
  21 N21           -4.8868     2.0588    -0.0412 N.2     
  22 C22           -6.1414     2.4043    -0.0344 C.2     
  23 N23           -6.9307     1.2933    -0.0671 N.pl3   
  24 C24           -6.1016     0.2006    -0.0956 C.ar    
  25 N25           -6.2842    -1.1152    -0.1330 N.ar    
  26 C26           -5.2545    -1.9352    -0.1540 C.ar    
  27 N27           -4.0059    -1.5056    -0.1385 N.ar    
  28 C28           -3.7252    -0.2070    -0.1017 C.ar    
  29 C29           -4.7913     0.7080    -0.0786 C.ar    
  30 C30            4.8858     1.3543    -0.0362 C.3     
  31 H31            4.4361     4.0122     0.0372 H       
  32 H32            2.2816     5.1940     0.0644 H       
  33 H33            0.1701     3.9473     0.0234 H       
  34 H34            0.8882    -5.9736    -0.2501 H       
  35 H35            1.0656    -2.2306    -2.2852 H       
  36 H36            0.9440    -4.8059     1.9159 H       
  37 H37            0.9487    -4.6884    -2.3479 H       
  38 H38            0.0580    -1.9233     2.6841 H       
  39 H39            1.5580    -2.7829     3.1075 H       
  40 H40            1.6372    -1.2179     2.2633 H       
  41 H41           -1.3804    -1.3360    -1.0183 H       
  42 H42           -1.3844    -1.3855     0.7610 H       
  43 H43           -2.2214     1.1840    -0.0597 H       
  44 H44           -6.5039     3.4213    -0.0064 H       
  45 H45           -7.9005     1.2781    -0.0694 H       
  46 H46           -5.4378    -2.9991    -0.1843 H       
  47 H47            5.1535     1.1083    -1.0638 H       
  48 H48            5.6522     1.9986     0.3945 H       
  49 H49            4.8105     0.4379     0.5490 H       
@<TRIPOS>BOND
   1    1    2 2
   2    1   10 1
   3    2    3 1
   4    2   19 1
   5    3    4 am
   6    3   12 1
   7    4    5 1
   8    4   11 2
   9    5    6 ar
  10    5   10 ar
  11    6    7 ar
  12    6   30 1
  13    7    8 ar
  14    7   31 1
  15    8    9 ar
  16    8   32 1
  17    9   10 ar
  18    9   33 1
  19   12   13 ar
  20   12   15 ar
  21   13   16 ar
  22   13   18 1
  23   14   16 ar
  24   14   17 ar
  25   14   34 1
  26   15   17 ar
  27   15   35 1
  28   16   36 1
  29   17   37 1
  30   18   38 1
  31   18   39 1
  32   18   40 1
  33   19   20 1
  34   19   41 1
  35   19   42 1
  36   20   28 1
  37   20   43 1
  38   21   22 2
  39   21   29 1
  40   22   23 1
  41   22   44 1
  42   23   24 1
  43   23   45 1
  44   24   25 ar
  45   24   29 ar
  46   25   26 ar
  47   26   27 ar
  48   26   46 1
  49   27   28 ar
  50   28   29 ar
  51   30   47 1
  52   30   48 1
  53   30   49 1

#	End of record

