#	Name: ASD01028360
#	Creating user name:	WinNT
#	Creation time:	15. 06. 2019 18:57

#	Modifying user name:	WinNT
#	Modification time:	15. 06. 2019 18:57

#	Program:	/corina/corina34_cracker 3.40 0067  02.08.2006

@<TRIPOS>MOLECULE
ASD01028360
  48   52    0    0    0
SMALL
NO_CHARGES


@<TRIPOS>ATOM
   1 C1            -0.0171     1.4132     0.0098 C.ar    
   2 C2             0.0021    -0.0041     0.0020 C.ar    
   3 C3             1.2194     2.0970     0.0017 C.ar    
   4 N4             2.3326     1.3796    -0.0128 N.ar    
   5 C5             2.3036     0.0559    -0.0197 C.ar    
   6 N6             1.1872    -0.6325    -0.0127 N.ar    
   7 O7             1.2650     3.4491     0.0081 O.3     
   8 C8             2.5593     4.0546    -0.0010 C.3     
   9 C9             2.4996     5.3784     0.7167 C.2     
  10 N10            3.3893     5.8332     1.6259 N.pl3   
  11 C11            2.9383     7.0738     2.0102 C.2     
  12 N12            1.8258     7.3035     1.3321 N.2     
  13 N13            1.5788     6.2978     0.5673 N.2     
  14 N14            4.5603     5.3116     2.1795 N.2     
  15 C15            5.2404     5.9991     3.0702 C.2     
  16 C16            4.8031     7.2748     3.4853 C.2     
  17 C17            3.6677     7.8094     2.9634 C.2     
  18 C18            6.4821     5.4265     3.6459 C.ar    
  19 C19           -1.2084    -0.7072     0.0094 C.ar    
  20 C20            6.9235     4.1673     3.2440 C.ar    
  21 C21            8.0795     3.6398     3.7825 C.ar    
  22 C22            8.7994     4.3583     4.7200 C.ar    
  23 C23            8.3659     5.6086     5.1227 C.ar    
  24 C24            7.2144     6.1484     4.5865 C.ar    
  25 C25           -2.3971    -0.0097     0.0241 C.ar    
  26 C26           -2.4060     1.3884     0.0316 C.ar    
  27 C27           -1.2416     2.0939     0.0194 C.ar    
  28 O28           -3.5733    -0.6883     0.0308 O.3     
  29 C29           -4.7714     0.0904     0.0460 C.3     
  30 C30            3.0077     4.2780    -1.4466 C.3     
  31 H31            3.2408    -0.4807    -0.0319 H       
  32 H32            3.2703     3.3999     0.5029 H       
  33 H33            5.3719     7.8276     4.2184 H       
  34 H34            3.3284     8.7854     3.2774 H       
  35 H35           -1.2107    -1.7872     0.0033 H       
  36 H36            6.3618     3.6052     2.5126 H       
  37 H37            8.4225     2.6640     3.4717 H       
  38 H38            9.7031     3.9414     5.1394 H       
  39 H39            8.9316     6.1652     5.8553 H       
  40 H40            6.8768     7.1247     4.9016 H       
  41 H41           -3.3485     1.9154     0.0427 H       
  42 H42           -1.2617     3.1737     0.0254 H       
  43 H43           -4.7881     0.7141     0.9397 H       
  44 H44           -4.8041     0.7243    -0.8401 H       
  45 H45           -5.6361    -0.5733     0.0500 H       
  46 H46            2.2967     4.9328    -1.9505 H       
  47 H47            3.9950     4.7399    -1.4535 H       
  48 H48            3.0509     3.3206    -1.9657 H       
@<TRIPOS>BOND
   1    1    2 ar
   2    1    3 ar
   3    1   27 ar
   4    2   19 ar
   5    2    6 ar
   6    3    4 ar
   7    3    7 1
   8    4    5 ar
   9    5    6 ar
  10    5   31 1
  11    7    8 1
  12    8    9 1
  13    8   30 1
  14    8   32 1
  15    9   10 1
  16    9   13 2
  17   10   11 1
  18   10   14 1
  19   11   12 2
  20   11   17 1
  21   12   13 1
  22   14   15 2
  23   15   16 1
  24   15   18 1
  25   16   17 2
  26   16   33 1
  27   17   34 1
  28   18   20 ar
  29   18   24 ar
  30   19   25 ar
  31   19   35 1
  32   20   21 ar
  33   20   36 1
  34   21   22 ar
  35   21   37 1
  36   22   23 ar
  37   22   38 1
  38   23   24 ar
  39   23   39 1
  40   24   40 1
  41   25   26 ar
  42   25   28 1
  43   26   27 ar
  44   26   41 1
  45   27   42 1
  46   28   29 1
  47   29   43 1
  48   29   44 1
  49   29   45 1
  50   30   46 1
  51   30   47 1
  52   30   48 1

#	End of record

