#	Name: ASD06660111
#	Creating user name:	WinNT
#	Creation time:	15. 06. 2019 21:08

#	Modifying user name:	WinNT
#	Modification time:	15. 06. 2019 21:08

#	Program:	/corina/corina34_cracker 3.40 0067  02.08.2006

@<TRIPOS>MOLECULE
ASD06660111
  72   75    0    0    0
SMALL
NO_CHARGES


@<TRIPOS>ATOM
   1 C1            -1.3547     1.7016     0.5255 C.2     
   2 C2            -0.9302     0.4315    -0.1656 C.3     
   3 C3            -1.5731     0.3661    -1.5525 C.3     
   4 O4            -0.5242     2.5092     0.8687 O.2     
   5 O5            -2.6559     1.9382     0.7548 O.3     
   6 C6            -1.2559    -0.9615    -2.1911 C.ar    
   7 C7            -2.0515    -2.0615    -1.9278 C.ar    
   8 C8            -1.7635    -3.2796    -2.5116 C.ar    
   9 C9            -0.6737    -3.3989    -3.3641 C.ar    
  10 C10            0.1231    -2.2923    -3.6268 C.ar    
  11 C11           -0.1732    -1.0758    -3.0437 C.ar    
  12 N12           -0.3789    -4.6317    -3.9567 N.am    
  13 C13           -1.1421    -5.7319    -3.8384 C.2     
  14 C14           -0.5290    -6.8763    -4.6150 C.3     
  15 C15            0.4910    -6.1932    -5.5552 C.3     
  16 C16            0.8000    -4.8879    -4.7924 C.3     
  17 C17            1.7487    -7.0499    -5.7137 C.3     
  18 N18            1.4104    -8.2879    -6.4203 N.pl3   
  19 C19            2.3978    -9.2305    -6.6826 C.ar    
  20 C20            3.7054    -8.9920    -6.2713 C.ar    
  21 C21            4.6777    -9.9384    -6.5388 C.ar    
  22 C22            4.3086   -11.0961    -7.2113 C.ar    
  23 C23            2.9925   -11.2674    -7.5902 C.ar    
  24 N24            2.0845   -10.3496    -7.3168 N.ar    
  25 O25           -2.1721    -5.7977    -3.2015 O.2     
  26 C26            1.3022     0.1450     0.7680 C.2     
  27 C27            2.7669     0.0218     0.6088 C.ar    
  28 C28            3.3519    -1.2362     0.4542 C.ar    
  29 C29            4.7190    -1.3440     0.3057 C.ar    
  30 C30            5.5103    -0.2088     0.3103 C.ar    
  31 C31            4.9369     1.0408     0.4631 C.ar    
  32 C32            3.5700     1.1631     0.6068 C.ar    
  33 O33            0.7959     0.0037     1.8640 O.2     
  34 N34            0.5283     0.4139    -0.3022 N.am    
  35 C35            7.0033    -0.3344     0.1486 C.3     
  36 F36            7.3319    -0.2749    -1.2100 F       
  37 F37            7.6356     0.7128     0.8275 F       
  38 F38            7.4285    -1.5575     0.6781 F       
  39 C39            2.9465     2.5256     0.7674 C.3     
  40 C40            2.4919    -2.4736     0.4500 C.3     
  41 C41            1.9515    -2.7143    -0.9610 C.3     
  42 H42           -1.2502    -0.4275     0.4241 H       
  43 H43           -2.6535     0.4747    -1.4575 H       
  44 H44           -1.1802     1.1711    -2.1734 H       
  45 H45           -2.8796     2.7663     1.2011 H       
  46 H46           -2.8989    -1.9680    -1.2647 H       
  47 H47           -2.3848    -4.1384    -2.3050 H       
  48 H48            0.9713    -2.3819    -4.2893 H       
  49 H49            0.4437    -0.2139    -3.2508 H       
  50 H50           -0.0230    -7.5672    -3.9406 H       
  51 H51           -1.2921    -7.3968    -5.1937 H       
  52 H52            0.0434    -5.9768    -6.5252 H       
  53 H53            0.9513    -4.0669    -5.4932 H       
  54 H54            1.6837    -5.0194    -4.1679 H       
  55 H55            2.4948    -6.4977    -6.2851 H       
  56 H56            2.1503    -7.2914    -4.7296 H       
  57 H57            0.4974    -8.4497    -6.7052 H       
  58 H58            3.9577    -8.0801    -5.7505 H       
  59 H59            5.7011    -9.7805    -6.2320 H       
  60 H60            5.0440   -11.8545    -7.4358 H       
  61 H61            2.7012   -12.1662    -8.1134 H       
  62 H62            5.1729    -2.3167     0.1860 H       
  63 H63            5.5600     1.9229     0.4658 H       
  64 H64            0.9371     0.5958    -1.1629 H       
  65 H65            2.9012     2.7820     1.8258 H       
  66 H66            3.5487     3.2653     0.2398 H       
  67 H67            1.9385     2.5151     0.3527 H       
  68 H68            3.0878    -3.3313     0.7620 H       
  69 H69            1.6589    -2.3395     1.1401 H       
  70 H70            1.4388    -1.8185    -1.3115 H       
  71 H71            2.7785    -2.9456    -1.6323 H       
  72 H72            1.2522    -3.5502    -0.9446 H       
@<TRIPOS>BOND
   1    1    2 1
   2    1    4 2
   3    1    5 1
   4    2    3 1
   5    2   34 1
   6    2   42 1
   7    3    6 1
   8    3   43 1
   9    3   44 1
  10    5   45 1
  11    6    7 ar
  12    6   11 ar
  13    7    8 ar
  14    7   46 1
  15    8    9 ar
  16    8   47 1
  17    9   10 ar
  18    9   12 1
  19   10   11 ar
  20   10   48 1
  21   11   49 1
  22   12   13 am
  23   12   16 1
  24   13   14 1
  25   13   25 2
  26   14   15 1
  27   14   50 1
  28   14   51 1
  29   15   16 1
  30   15   17 1
  31   15   52 1
  32   16   53 1
  33   16   54 1
  34   17   18 1
  35   17   55 1
  36   17   56 1
  37   18   19 1
  38   18   57 1
  39   19   20 ar
  40   19   24 ar
  41   20   21 ar
  42   20   58 1
  43   21   22 ar
  44   21   59 1
  45   22   23 ar
  46   22   60 1
  47   23   24 ar
  48   23   61 1
  49   26   27 1
  50   26   33 2
  51   26   34 am
  52   27   28 ar
  53   27   32 ar
  54   28   29 ar
  55   28   40 1
  56   29   30 ar
  57   29   62 1
  58   30   31 ar
  59   30   35 1
  60   31   32 ar
  61   31   63 1
  62   32   39 1
  63   34   64 1
  64   35   36 1
  65   35   37 1
  66   35   38 1
  67   39   65 1
  68   39   66 1
  69   39   67 1
  70   40   41 1
  71   40   68 1
  72   40   69 1
  73   41   70 1
  74   41   71 1
  75   41   72 1

#	End of record

