#	Name: ASD01911832
#	Creating user name:	WinNT
#	Creation time:	15. 06. 2019 19:58

#	Modifying user name:	WinNT
#	Modification time:	15. 06. 2019 19:58

#	Program:	/corina/corina34_cracker 3.40 0067  02.08.2006

@<TRIPOS>MOLECULE
ASD01911832
  45   47    0    0    0
SMALL
NO_CHARGES


@<TRIPOS>ATOM
   1 C1            -0.0167     1.3804     0.0096 C.ar    
   2 C2             0.0021    -0.0041     0.0020 C.ar    
   3 C3             1.2091    -0.6823    -0.0127 C.ar    
   4 C4             2.3985     0.0207    -0.0204 C.ar    
   5 C5             2.3838     1.4086    -0.0132 C.ar    
   6 C6             1.1711     2.0886     0.0021 C.ar    
   7 N7             3.5880     2.1225    -0.0205 N.3     
   8 C8             4.4012     1.7952     1.1583 C.3     
   9 C9             5.7787     2.4528     1.0231 C.3     
  10 N10            5.5880     3.8906     0.7788 N.am    
  11 C11            4.6766     4.2981    -0.3012 C.3     
  12 C12            3.3425     3.5678    -0.1138 C.3     
  13 C13            6.2311     4.8103     1.5252 C.2     
  14 C14            6.0211     6.2784     1.2577 C.3     
  15 O15            6.8054     7.0463     2.1727 O.3     
  16 C16            6.6781     8.4595     2.0036 C.3     
  17 O17            6.9788     4.4564     2.4121 O.2     
  18 C18            7.5433     9.1664     3.0149 C.ar    
  19 C19            8.8534     9.4800     2.7042 C.ar    
  20 C20            9.6476    10.1286     3.6306 C.ar    
  21 C21            9.1308    10.4644     4.8705 C.ar    
  22 C22            7.8186    10.1498     5.1806 C.ar    
  23 C23            7.0247     9.5059     4.2506 C.ar    
  24 F24            1.1532     3.4395     0.0086 F       
  25 F25           -1.1593    -0.6943     0.0094 F       
  26 F26            9.9065    11.0981     5.7771 F       
  27 H27           -0.9594     1.9074     0.0170 H       
  28 H28            1.2208    -1.7622    -0.0179 H       
  29 H29            3.3393    -0.5095    -0.0315 H       
  30 H30            3.9070     2.1672     2.0558 H       
  31 H31            4.5197     0.7140     1.2296 H       
  32 H32            6.3447     2.3097     1.9435 H       
  33 H33            6.3165     2.0074     0.1861 H       
  34 H34            4.5140     5.3750    -0.2563 H       
  35 H35            5.1085     4.0301    -1.2654 H       
  36 H36            2.6933     3.7722    -0.9652 H       
  37 H37            2.8631     3.9152     0.8014 H       
  38 H38            6.3249     6.5088     0.2366 H       
  39 H39            4.9671     6.5242     1.3874 H       
  40 H40            6.9956     8.7351     0.9979 H       
  41 H41            5.6378     8.7506     2.1488 H       
  42 H42            9.2564     9.2176     1.7371 H       
  43 H43           10.6712    10.3732     3.3877 H       
  44 H44            7.4144    10.4113     6.1474 H       
  45 H45            6.0011     9.2604     4.4923 H       
@<TRIPOS>BOND
   1    1    2 ar
   2    1    6 ar
   3    1   27 1
   4    2    3 ar
   5    2   25 1
   6    3    4 ar
   7    3   28 1
   8    4    5 ar
   9    4   29 1
  10    5    6 ar
  11    5    7 1
  12    6   24 1
  13    7    8 1
  14    7   12 1
  15    8    9 1
  16    8   30 1
  17    8   31 1
  18    9   10 1
  19    9   32 1
  20    9   33 1
  21   10   11 1
  22   10   13 am
  23   11   12 1
  24   11   34 1
  25   11   35 1
  26   12   36 1
  27   12   37 1
  28   13   14 1
  29   13   17 2
  30   14   15 1
  31   14   38 1
  32   14   39 1
  33   15   16 1
  34   16   18 1
  35   16   40 1
  36   16   41 1
  37   18   19 ar
  38   18   23 ar
  39   19   20 ar
  40   19   42 1
  41   20   21 ar
  42   20   43 1
  43   21   22 ar
  44   21   26 1
  45   22   23 ar
  46   22   44 1
  47   23   45 1

#	End of record

