#	Name: ASD01915473
#	Creating user name:	WinNT
#	Creation time:	15. 06. 2019 20:05

#	Modifying user name:	WinNT
#	Modification time:	15. 06. 2019 20:05

#	Program:	/corina/corina34_cracker 3.40 0067  02.08.2006

@<TRIPOS>MOLECULE
ASD01915473
  42   45    0    0    0
SMALL
NO_CHARGES


@<TRIPOS>ATOM
   1 C1            -0.0167     1.3783     0.0096 C.ar    
   2 C2             0.0021    -0.0041     0.0020 C.ar    
   3 C3             1.2066    -0.6801    -0.0126 C.ar    
   4 C4             2.3997     0.0285    -0.0202 C.ar    
   5 C5             2.3807     1.4151    -0.0130 C.ar    
   6 C6             1.1719     2.0887     0.0021 C.ar    
   7 F7             1.1515     3.4395     0.0091 F       
   8 O8             3.5853    -0.6355    -0.0342 O.3     
   9 C9             4.7735     0.1583    -0.0413 C.3     
  10 C10            5.9804    -0.7440    -0.0566 C.ar    
  11 C11            5.8011    -2.1155    -0.0614 C.ar    
  12 N12            7.1873    -0.2095    -0.0705 N.ar    
  13 C13            8.2737    -0.9529    -0.0854 C.ar    
  14 C14            8.1737    -2.3453    -0.0698 C.ar    
  15 C15            6.9125    -2.9431    -0.0676 C.ar    
  16 C16            9.6384    -0.3154    -0.1415 C.3     
  17 C17           10.6447    -1.1616     0.6338 C.3     
  18 N18           10.5847    -2.5609     0.2173 N.am    
  19 C19            9.4054    -3.1586    -0.0407 C.2     
  20 O20            9.3561    -4.3553    -0.2484 O.2     
  21 C21           11.7665    -3.2887     0.0850 C.ar    
  22 N22           11.7254    -4.5244    -0.3867 N.ar    
  23 C23           12.8195    -5.2483    -0.5285 C.ar    
  24 C24           14.0572    -4.7359    -0.1857 C.ar    
  25 C25           14.1423    -3.4412     0.3135 C.ar    
  26 C26           12.9771    -2.7070     0.4445 C.ar    
  27 F27           15.1715    -5.4853    -0.3338 F       
  28 H28           -0.9596     1.9048     0.0169 H       
  29 H29           -0.9262    -0.5561     0.0079 H       
  30 H30            1.2198    -1.7600    -0.0178 H       
  31 H31            3.3080     1.9685    -0.0185 H       
  32 H32            4.7821     0.7916    -0.9284 H       
  33 H33            4.7983     0.7832     0.8515 H       
  34 H34            4.8065    -2.5364    -0.0600 H       
  35 H35            6.8060    -4.0179    -0.0665 H       
  36 H36            9.9576    -0.2357    -1.1806 H       
  37 H37            9.5901     0.6812     0.2973 H       
  38 H38           11.6488    -0.7775     0.4541 H       
  39 H39           10.4225    -1.0954     1.6988 H       
  40 H40           12.7473    -6.2535    -0.9168 H       
  41 H41           15.0965    -3.0171     0.5892 H       
  42 H42           13.0065    -1.6980     0.8286 H       
@<TRIPOS>BOND
   1    1    2 ar
   2    1    6 ar
   3    1   28 1
   4    2    3 ar
   5    2   29 1
   6    3    4 ar
   7    3   30 1
   8    4    5 ar
   9    4    8 1
  10    5    6 ar
  11    5   31 1
  12    6    7 1
  13    8    9 1
  14    9   10 1
  15    9   32 1
  16    9   33 1
  17   10   11 ar
  18   10   12 ar
  19   11   15 ar
  20   11   34 1
  21   12   13 ar
  22   13   14 ar
  23   13   16 1
  24   14   15 ar
  25   14   19 1
  26   15   35 1
  27   16   17 1
  28   16   36 1
  29   16   37 1
  30   17   18 1
  31   17   38 1
  32   17   39 1
  33   18   19 am
  34   18   21 1
  35   19   20 2
  36   21   22 ar
  37   21   26 ar
  38   22   23 ar
  39   23   24 ar
  40   23   40 1
  41   24   25 ar
  42   24   27 1
  43   25   26 ar
  44   25   41 1
  45   26   42 1

#	End of record

