#	Name: ASD00498001
#	Creating user name:	WinNT
#	Creation time:	15. 06. 2019 18:36

#	Modifying user name:	WinNT
#	Modification time:	15. 06. 2019 18:36

#	Program:	/corina/corina34_cracker 3.40 0067  02.08.2006

@<TRIPOS>MOLECULE
ASD00498001
  48   50    0    0    0
SMALL
NO_CHARGES


@<TRIPOS>ATOM
   1 N1            -0.0207     1.6788     0.0113 N.3     
   2 P2             0.0021    -0.0041     0.0020 P.3     
   3 O3             0.6948    -0.4814    -1.2156 O.2     
   4 O4             0.7808    -0.5374     1.3064 O.3     
   5 O5            -1.5084    -0.5613     0.0134 O.3     
   6 P6            -2.1568    -2.0350     0.0117 P.3     
   7 O7            -1.4430    -2.8892     0.9870 O.2     
   8 O8            -2.0274    -2.6765    -1.4592 O.3     
   9 O9            -3.7111    -1.9378     0.4200 O.3     
  10 C10           -4.5393    -3.0868     0.6095 C.3     
  11 O11           -6.5746    -1.9479    -0.1155 O.3     
  12 C12           -5.9525    -2.6399     0.9891 C.3     
  13 C13           -6.8546    -3.8678     1.2440 C.3     
  14 C14           -8.2285    -3.4490     0.6744 C.3     
  15 C15           -7.9939    -2.0177     0.1427 C.3     
  16 O16           -9.2177    -3.4443     1.7057 O.3     
  17 O17           -6.9534    -4.1344     2.6444 O.3     
  18 N18           -9.2265    -1.7201    -3.2227 N.2     
  19 C19           -8.2938    -2.0108    -2.3628 C.2     
  20 N20           -8.7485    -1.8033    -1.0946 N.pl3   
  21 C21          -10.0425    -1.3573    -1.1893 C.ar    
  22 N22          -10.9776    -0.9978    -0.3161 N.ar    
  23 C23          -12.1634    -0.6014    -0.7281 C.ar    
  24 N24          -12.4853    -0.5398    -2.0072 N.ar    
  25 C25          -11.6155    -0.8794    -2.9530 C.ar    
  26 C26          -10.3359    -1.3089    -2.5628 C.ar    
  27 N27          -11.9623    -0.8120    -4.2911 N.pl3   
  28 P28            1.5421     2.3032    -0.0003 P.3     
  29 O29            2.3094     1.8046    -1.3249 O.3     
  30 O30            1.4773     3.9119     0.0090 O.3     
  31 O31            2.2705     1.8319     1.1987 O.2     
  32 H32           -0.5592     2.0373    -0.7631 H       
  33 H33            0.3814    -0.2621     2.1429 H       
  34 H34           -2.4728    -2.1680    -2.1507 H       
  35 H35           -4.5766    -3.6642    -0.3142 H       
  36 H36           -4.1269    -3.7043     1.4075 H       
  37 H37           -5.9250    -1.9997     1.8708 H       
  38 H38           -6.4713    -4.7399     0.7143 H       
  39 H39           -8.5243    -4.1142    -0.1369 H       
  40 H40           -8.2794    -1.2821     0.8946 H       
  41 H41           -9.3616    -4.3077     2.1167 H       
  42 H42           -7.5085    -4.8958     2.8617 H       
  43 H43           -7.3055    -2.3645    -2.6167 H       
  44 H44          -12.9006    -0.3161     0.0078 H       
  45 H45          -12.8490    -0.5142    -4.5479 H       
  46 H46          -11.3186    -1.0626    -4.9721 H       
  47 H47            1.8868     2.0779    -2.1507 H       
  48 H48            2.3441     4.3405     0.0030 H       
@<TRIPOS>BOND
   1    1    2 1
   2    1   28 1
   3    1   32 1
   4    2    3 2
   5    2    4 1
   6    2    5 1
   7    4   33 1
   8    5    6 1
   9    6    7 2
  10    6    8 1
  11    6    9 1
  12    8   34 1
  13    9   10 1
  14   10   12 1
  15   10   35 1
  16   10   36 1
  17   11   12 1
  18   11   15 1
  19   12   13 1
  20   12   37 1
  21   13   14 1
  22   13   17 1
  23   13   38 1
  24   14   15 1
  25   14   16 1
  26   14   39 1
  27   15   20 1
  28   15   40 1
  29   16   41 1
  30   17   42 1
  31   18   19 2
  32   18   26 1
  33   19   20 1
  34   19   43 1
  35   20   21 1
  36   21   22 ar
  37   21   26 ar
  38   22   23 ar
  39   23   24 ar
  40   23   44 1
  41   24   25 ar
  42   25   26 ar
  43   25   27 1
  44   27   45 1
  45   27   46 1
  46   28   29 1
  47   28   30 1
  48   28   31 2
  49   29   47 1
  50   30   48 1

#	End of record

