#	Name: ASD00240001
#	Creating user name:	WinNT
#	Creation time:	15. 06. 2019 18:33

#	Modifying user name:	WinNT
#	Modification time:	15. 06. 2019 18:33

#	Program:	/corina/corina34_cracker 3.40 0067  02.08.2006

@<TRIPOS>MOLECULE
ASD00240001
  18   17    0    0    0
SMALL
NO_CHARGES


@<TRIPOS>ATOM
   1 N1            -0.0178     1.4648     0.0101 N.3     
   2 C2             0.0021    -0.0041     0.0020 C.3     
   3 C3            -1.4333    -0.5336     0.0129 C.3     
   4 C4            -1.4126    -2.0635     0.0045 C.3     
   5 C5            -2.8479    -2.5931     0.0153 C.3     
   6 N6            -2.8280    -4.0619     0.0072 N.3     
   7 H7             0.9191     1.8392     0.0032 H       
   8 H8            -0.5563     1.8234    -0.7642 H       
   9 H9             0.5123    -0.3556    -0.8948 H       
  10 H10            0.5293    -0.3651     0.8851 H       
  11 H11           -1.9435    -0.1821     0.9097 H       
  12 H12           -1.9605    -0.1726    -0.8702 H       
  13 H13           -0.9024    -2.4150    -0.8923 H       
  14 H14           -0.8854    -2.4246     0.8875 H       
  15 H15           -3.3581    -2.2415     0.9121 H       
  16 H16           -3.3751    -2.2320    -0.8677 H       
  17 H17           -3.7650    -4.4363     0.0142 H       
  18 H18           -2.3045    -4.4121    -0.7810 H       
@<TRIPOS>BOND
   1    1    2 1
   2    1    7 1
   3    1    8 1
   4    2    3 1
   5    2    9 1
   6    2   10 1
   7    3    4 1
   8    3   11 1
   9    3   12 1
  10    4    5 1
  11    4   13 1
  12    4   14 1
  13    5    6 1
  14    5   15 1
  15    5   16 1
  16    6   17 1
  17    6   18 1

#	End of record

