#	Name: ASD01913451
#	Creating user name:	WinNT
#	Creation time:	15. 06. 2019 20:01

#	Modifying user name:	WinNT
#	Modification time:	15. 06. 2019 20:01

#	Program:	/corina/corina34_cracker 3.40 0067  02.08.2006

@<TRIPOS>MOLECULE
ASD01913451
  36   38    0    0    0
SMALL
NO_CHARGES


@<TRIPOS>ATOM
   1 C1             0.8766     0.0983    -1.0354 C.ar    
   2 C2             0.0131    -0.0110     0.0497 C.ar    
   3 C3             0.3661     0.6182     1.2391 C.ar    
   4 N4             1.5023     1.2933     1.2956 N.ar    
   5 C5             2.2942     1.3738     0.2453 C.ar    
   6 N6             1.9948     0.7918    -0.8987 N.ar    
   7 C7            -1.0650    -2.0647    -0.1484 C.ar    
   8 C8            -2.2278    -2.8223    -0.1697 C.ar    
   9 C9            -2.1362    -4.2011    -0.2765 C.ar    
  10 C10           -0.8791    -4.7769    -0.3587 C.ar    
  11 C11            0.2445    -3.9597    -0.3316 C.ar    
  12 N12            0.1215    -2.6452    -0.2286 N.ar    
  13 N13            1.5131    -4.5292    -0.4132 N.am    
  14 C14            2.6025    -3.7395    -0.4908 C.2     
  15 O15           -1.1459    -0.7141    -0.0497 O.3     
  16 C16            3.9391    -4.3405    -0.7059 C.ar    
  17 C17            5.0612    -3.5190    -0.7853 C.ar    
  18 C18            6.3053    -4.0961    -0.9869 C.ar    
  19 C19            6.3837    -5.4750    -1.1020 C.ar    
  20 C20            5.2254    -6.2311    -1.0130 C.ar    
  21 N21            4.0584    -5.6582    -0.8160 N.ar    
  22 O22            2.4882    -2.5344    -0.3844 O.2     
  23 C23            5.3056    -7.7308    -1.1376 C.3     
  24 H24            0.6397    -0.3797    -1.9744 H       
  25 H25           -0.2782     0.5566     2.1037 H       
  26 H26            3.2149     1.9327     0.3242 H       
  27 H27           -3.1932    -2.3428    -0.1035 H       
  28 H28           -3.0257    -4.8133    -0.2950 H       
  29 H29           -0.7735    -5.8484    -0.4424 H       
  30 H30            1.6125    -5.4941    -0.4140 H       
  31 H31            4.9632    -2.4475    -0.6915 H       
  32 H32            7.1934    -3.4850    -1.0531 H       
  33 H33            7.3378    -5.9556    -1.2598 H       
  34 H34            5.4536    -8.1699    -0.1510 H       
  35 H35            4.3788    -8.1096    -1.5686 H       
  36 H36            6.1422    -7.9976    -1.7833 H       
@<TRIPOS>BOND
   1    1    2 ar
   2    1    6 ar
   3    1   24 1
   4    2    3 ar
   5    2   15 1
   6    3    4 ar
   7    3   25 1
   8    4    5 ar
   9    5    6 ar
  10    5   26 1
  11    7    8 ar
  12    7   12 ar
  13    7   15 1
  14    8    9 ar
  15    8   27 1
  16    9   10 ar
  17    9   28 1
  18   10   11 ar
  19   10   29 1
  20   11   12 ar
  21   11   13 1
  22   13   14 am
  23   13   30 1
  24   14   16 1
  25   14   22 2
  26   16   17 ar
  27   16   21 ar
  28   17   18 ar
  29   17   31 1
  30   18   19 ar
  31   18   32 1
  32   19   20 ar
  33   19   33 1
  34   20   21 ar
  35   20   23 1
  36   23   34 1
  37   23   35 1
  38   23   36 1

#	End of record

