#	Name: ASD09740181
#	Creating user name:	WinNT
#	Creation time:	15. 06. 2019 21:22

#	Modifying user name:	WinNT
#	Modification time:	15. 06. 2019 21:22

#	Program:	/corina/corina34_cracker 3.40 0067  02.08.2006

@<TRIPOS>MOLECULE
ASD09740181
  36   38    0    0    0
SMALL
NO_CHARGES


@<TRIPOS>ATOM
   1 O1            -0.0144     1.2087     0.0087 O.3     
   2 N2             0.0021    -0.0041     0.0020 N.2     
   3 C3             1.2351     1.6835    -0.0007 C.2     
   4 N4             2.0401     0.6504    -0.0139 N.2     
   5 C5             1.2359    -0.4366    -0.0121 C.2     
   6 C6             1.6722    -1.8553    -0.0231 C.ar    
   7 C7             1.7625     3.6263    -1.4162 C.ar    
   8 C8             3.0296    -2.1687    -0.0370 C.ar    
   9 C9             0.7257    -2.8770    -0.0139 C.ar    
  10 C10            1.1391    -4.1989    -0.0238 C.ar    
  11 C11            2.4935    -4.5027    -0.0424 C.ar    
  12 C12            3.4331    -3.4891    -0.0468 C.ar    
  13 C13            0.6726     4.1787    -2.0715 C.ar    
  14 C14            0.8230     4.6240    -3.3712 C.ar    
  15 N15            1.9851     4.5276    -3.9870 N.ar    
  16 C16            3.0427     4.0079    -3.3949 C.ar    
  17 C17            2.9680     3.5421    -2.0959 C.ar    
  18 C18            2.9407    -5.9418    -0.0522 C.3     
  19 O19            0.2185    -5.1987    -0.0148 O.3     
  20 C20           -1.1574    -4.8135     0.0049 C.3     
  21 C21            1.6413     3.1347     0.0032 C.3     
  22 H22            3.7662    -1.3789    -0.0404 H       
  23 H23           -0.3276    -2.6391     0.0014 H       
  24 H24            4.4856    -3.7306    -0.0613 H       
  25 H25           -0.2819     4.2597    -1.5727 H       
  26 H26           -0.0210     5.0555    -3.8886 H       
  27 H27            3.9778     3.9453    -3.9315 H       
  28 H28            3.8377     3.1179    -1.6163 H       
  29 H29            3.0350    -6.2860    -1.0821 H       
  30 H30            3.9051    -6.0260     0.4488 H       
  31 H31            2.2055    -6.5543     0.4698 H       
  32 H32           -1.3569    -4.2237     0.8996 H       
  33 H33           -1.3807    -4.2178    -0.8802 H       
  34 H34           -1.7843    -5.7052     0.0104 H       
  35 H35            0.8873     3.7216     0.5278 H       
  36 H36            2.6013     3.2420     0.5081 H       
@<TRIPOS>BOND
   1    1    2 1
   2    1    3 1
   3    2    5 2
   4    3    4 2
   5    3   21 1
   6    4    5 1
   7    5    6 1
   8    6    8 ar
   9    6    9 ar
  10    7   13 ar
  11    7   17 ar
  12    7   21 1
  13    8   12 ar
  14    8   22 1
  15    9   10 ar
  16    9   23 1
  17   10   11 ar
  18   10   19 1
  19   11   12 ar
  20   11   18 1
  21   12   24 1
  22   13   14 ar
  23   13   25 1
  24   14   15 ar
  25   14   26 1
  26   15   16 ar
  27   16   17 ar
  28   16   27 1
  29   17   28 1
  30   18   29 1
  31   18   30 1
  32   18   31 1
  33   19   20 1
  34   20   32 1
  35   20   33 1
  36   20   34 1
  37   21   35 1
  38   21   36 1

#	End of record

