#	Name: ASD01882510
#	Creating user name:	WinNT
#	Creation time:	15. 06. 2019 19:44

#	Modifying user name:	WinNT
#	Modification time:	15. 06. 2019 19:44

#	Program:	/corina/corina34_cracker 3.40 0067  02.08.2006

@<TRIPOS>MOLECULE
ASD01882510
  56   60    0    0    0
SMALL
NO_CHARGES


@<TRIPOS>ATOM
   1 C1             1.1500     0.2847     1.1815 C.2     
   2 C2             1.0999    -1.0691     0.7932 C.2     
   3 C3             2.2186    -1.6568     0.2875 C.2     
   4 C4             3.4020    -0.9094     0.1602 C.2     
   5 C5             3.4347     0.3860     0.5367 C.2     
   6 N6             2.3211     0.9885     1.0448 N.pl3   
   7 N7             0.8031     2.2707     1.8722 N.2     
   8 N8             0.2577     1.1198     1.6882 N.2     
   9 C9             2.0559     2.2441     1.4966 C.2     
  10 C10            2.1886    -3.1035    -0.1338 C.3     
  11 N11            1.9185    -3.1882    -1.5753 N.3     
  12 C12            2.1148    -4.5575    -2.0679 C.3     
  13 C13            1.9677    -4.5791    -3.5910 C.3     
  14 C14            0.5729    -4.0749    -3.9715 C.3     
  15 C15            0.3762    -2.6659    -3.4053 C.3     
  16 C16            0.5693    -2.6998    -1.8875 C.3     
  17 C17            0.4431    -4.0371    -5.4724 C.ar    
  18 C18           -0.7651    -4.3447    -6.0696 C.ar    
  19 C19           -0.8841    -4.3101    -7.4464 C.ar    
  20 C20            0.2049    -3.9676    -8.2259 C.ar    
  21 C21            1.4128    -3.6591    -7.6287 C.ar    
  22 C22            1.5306    -3.6895    -6.2517 C.ar    
  23 O23           -0.4164    -4.9507    -3.4273 O.3     
  24 C24           -0.2334    -6.3238    -3.7782 C.3     
  25 C25            3.0276     3.3946     1.5526 C.3     
  26 C26            2.9644     4.1799     0.2410 C.3     
  27 C27            3.7950     5.4611     0.1440 C.3     
  28 C28            4.2250     4.2105    -0.6255 C.3     
  29 Cl29          -0.3708    -1.9764     0.9585 Cl      
  30 H30            4.2903    -1.3745    -0.2409 H       
  31 H31            4.3498     0.9506     0.4346 H       
  32 H32            3.1519    -3.5651     0.0831 H       
  33 H33            1.4040    -3.6252     0.4141 H       
  34 H34            3.1119    -4.9025    -1.7944 H       
  35 H35            1.3682    -5.2145    -1.6216 H       
  36 H36            2.7229    -3.9331    -4.0387 H       
  37 H37            2.0980    -5.5984    -3.9548 H       
  38 H38            1.1063    -1.9897    -3.8500 H       
  39 H39           -0.6307    -2.3182    -3.6363 H       
  40 H40           -0.1700    -3.3654    -1.4421 H       
  41 H41            0.4440    -1.6954    -1.4830 H       
  42 H42           -1.6158    -4.6123    -5.4606 H       
  43 H43           -1.8278    -4.5511    -7.9130 H       
  44 H44            0.1120    -3.9412    -9.3016 H       
  45 H45            2.2636    -3.3918    -8.2377 H       
  46 H46            2.4733    -3.4449    -5.7849 H       
  47 H47            0.6780    -6.6994    -3.3129 H       
  48 H48           -1.0863    -6.9051    -3.4279 H       
  49 H49           -0.1523    -6.4143    -4.8614 H       
  50 H50            2.7657     4.0513     2.3823 H       
  51 H51            4.0373     3.0107     1.6979 H       
  52 H52            2.0019     4.1641    -0.2704 H       
  53 H53            3.3792     6.2881    -0.4316 H       
  54 H54            4.3865     5.7446     1.0146 H       
  55 H55            5.0993     3.6713    -0.2611 H       
  56 H56            4.0921     4.2148    -1.7073 H       
@<TRIPOS>BOND
   1    1    2 1
   2    1    6 1
   3    1    8 2
   4    2    3 2
   5    2   29 1
   6    3    4 1
   7    3   10 1
   8    4    5 2
   9    4   30 1
  10    5    6 1
  11    5   31 1
  12    6    9 1
  13    7    8 1
  14    7    9 2
  15    9   25 1
  16   10   11 1
  17   10   32 1
  18   10   33 1
  19   11   12 1
  20   11   16 1
  21   12   13 1
  22   12   34 1
  23   12   35 1
  24   13   14 1
  25   13   36 1
  26   13   37 1
  27   14   15 1
  28   14   17 1
  29   14   23 1
  30   15   16 1
  31   15   38 1
  32   15   39 1
  33   16   40 1
  34   16   41 1
  35   17   18 ar
  36   17   22 ar
  37   18   19 ar
  38   18   42 1
  39   19   20 ar
  40   19   43 1
  41   20   21 ar
  42   20   44 1
  43   21   22 ar
  44   21   45 1
  45   22   46 1
  46   23   24 1
  47   24   47 1
  48   24   48 1
  49   24   49 1
  50   25   26 1
  51   25   50 1
  52   25   51 1
  53   26   27 1
  54   26   28 1
  55   26   52 1
  56   27   28 1
  57   27   53 1
  58   27   54 1
  59   28   55 1
  60   28   56 1

#	End of record

