#	Name: ASD07930433
#	Creating user name:	WinNT
#	Creation time:	15. 06. 2019 21:12

#	Modifying user name:	WinNT
#	Modification time:	15. 06. 2019 21:12

#	Program:	/corina/corina34_cracker 3.40 0067  02.08.2006

@<TRIPOS>MOLECULE
ASD07930433
  42   44    0    0    0
SMALL
NO_CHARGES


@<TRIPOS>ATOM
   1 N1             0.0006     1.2712     0.0037 N.2     
   2 N2            -1.1611    -0.7566     0.0076 N.pl3   
   3 C3            -1.3888    -1.7915    -1.0064 C.3     
   4 C4            -0.2711    -2.8399    -0.9192 C.3     
   5 S5             1.3268    -1.9884    -1.1091 S.o2    
   6 N6             1.2083    -0.7374    -0.0148 N.am    
   7 C7             0.0133    -0.0322    -0.0008 C.2     
   8 C8             2.3111    -0.3991     0.8883 C.3     
   9 C9            -1.3839    -1.1539    -2.3972 C.3     
  10 C10           -2.7200    -2.4534    -0.7598 C.ar    
  11 C11           -3.4610    -2.1182     0.3562 C.ar    
  12 C12           -4.6878    -2.7286     0.5829 C.ar    
  13 C13           -5.1665    -3.6747    -0.3134 C.ar    
  14 C14           -4.4220    -4.0070    -1.4285 C.ar    
  15 C15           -3.2019    -3.3933    -1.6556 C.ar    
  16 N16           -5.4403    -2.3907     1.7137 N.am    
  17 C17           -6.7861    -2.3673     1.6452 C.2     
  18 O18           -7.3439    -2.5439     0.5790 O.2     
  19 C19           -7.5819    -2.1275     2.8625 C.2     
  20 O20            2.3892    -2.7940    -0.6176 O.2     
  21 O21            1.4101    -1.3489    -2.3754 O.2     
  22 N22           -7.0975    -1.9148     4.1161 N.2     
  23 F23           -2.4754    -3.7197    -2.7468 F       
  24 C24           -8.1021    -1.7427     4.9221 C.2     
  25 O25           -9.2457    -1.8369     4.2291 O.3     
  26 C26           -8.9394    -2.0714     2.9431 C.2     
  27 H27            0.8358     1.7644    -0.0027 H       
  28 H28           -1.8367    -0.5789     0.6806 H       
  29 H29           -0.3091    -3.3379     0.0496 H       
  30 H30           -0.3931    -3.5741    -1.7155 H       
  31 H31            2.9602     0.3345     0.4103 H       
  32 H32            1.9095     0.0181     1.8118 H       
  33 H33            2.8840    -1.2983     1.1149 H       
  34 H34           -0.4199    -0.6773    -2.5750 H       
  35 H35           -1.5532    -1.9235    -3.1503 H       
  36 H36           -2.1753    -0.4067    -2.4571 H       
  37 H37           -3.0867    -1.3823     1.0524 H       
  38 H38           -6.1201    -4.1507    -0.1388 H       
  39 H39           -4.7939    -4.7432    -2.1258 H       
  40 H40           -4.9932    -2.1734     2.5466 H       
  41 H41           -8.0275    -1.5543     5.9829 H       
  42 H42           -9.6375    -2.1979     2.1288 H       
@<TRIPOS>BOND
   1    1    7 2
   2    1   27 1
   3    2    3 1
   4    2    7 1
   5    2   28 1
   6    3    4 1
   7    3    9 1
   8    3   10 1
   9    4    5 1
  10    4   29 1
  11    4   30 1
  12    5    6 am
  13    5   20 2
  14    5   21 2
  15    6    7 1
  16    6    8 1
  17    8   31 1
  18    8   32 1
  19    8   33 1
  20    9   34 1
  21    9   35 1
  22    9   36 1
  23   10   11 ar
  24   10   15 ar
  25   11   12 ar
  26   11   37 1
  27   12   13 ar
  28   12   16 1
  29   13   14 ar
  30   13   38 1
  31   14   15 ar
  32   14   39 1
  33   15   23 1
  34   16   17 am
  35   16   40 1
  36   17   18 2
  37   17   19 1
  38   19   22 1
  39   19   26 2
  40   22   24 2
  41   24   25 1
  42   24   41 1
  43   25   26 1
  44   26   42 1

#	End of record

