#	Name: ASD01917033
#	Creating user name:	WinNT
#	Creation time:	15. 06. 2019 20:08

#	Modifying user name:	WinNT
#	Modification time:	15. 06. 2019 20:08

#	Program:	/corina/corina34_cracker 3.40 0067  02.08.2006

@<TRIPOS>MOLECULE
ASD01917033
  45   47    0    0    0
SMALL
NO_CHARGES


@<TRIPOS>ATOM
   1 C1            -0.0119     1.4270    -0.4288 C.ar    
   2 C2            -0.0207     0.0460    -0.2812 C.ar    
   3 C3             1.1676    -0.6405    -0.0679 C.ar    
   4 C4             2.3605     0.0468    -0.0023 C.ar    
   5 C5             2.3733     1.4345    -0.1506 C.ar    
   6 C6             1.1771     2.1211    -0.3644 C.ar    
   7 O7            -1.1944    -0.6347    -0.3452 O.3     
   8 C8            -1.1311    -2.0533    -0.1852 C.3     
   9 C9             3.6512     2.1758    -0.0804 C.2     
  10 N10            4.8523     1.6659    -0.2557 N.2     
  11 C11            5.7740     2.6260    -0.1200 C.2     
  12 N12            5.1696     3.7642     0.1446 N.2     
  13 N13            3.7909     3.4987     0.1697 N.pl3   
  14 C14            2.7166     4.4614     0.4256 C.3     
  15 C15            2.2993     5.1050    -0.8715 C.2     
  16 O16            1.3232     6.0263    -0.8801 O.3     
  17 O17            2.8434     4.7918    -1.9039 O.2     
  18 C18            0.9733     6.6042    -2.1654 C.3     
  19 C19            7.2403     2.4376    -0.2465 C.ar    
  20 C20            7.7602     1.1760    -0.5303 C.ar    
  21 C21            8.1000     3.5229    -0.0873 C.ar    
  22 C22            9.4625     3.3447    -0.2054 C.ar    
  23 C23            9.9778     2.0858    -0.4825 C.ar    
  24 C24            9.1235     1.0039    -0.6472 C.ar    
  25 O25           11.3206     1.9132    -0.5983 O.3     
  26 C26           11.7825     0.5916    -0.8843 C.3     
  27 H27           -0.9374     1.9572    -0.5986 H       
  28 H28            1.1569    -1.7144     0.0471 H       
  29 H29            3.2841    -0.4877     0.1640 H       
  30 H30            1.1833     3.1949    -0.4799 H       
  31 H31           -2.1348    -2.4722    -0.2575 H       
  32 H32           -0.5023    -2.4794    -0.9670 H       
  33 H33           -0.7080    -2.2903     0.7909 H       
  34 H34            1.8636     3.9452     0.8661 H       
  35 H35            3.0722     5.2282     1.1138 H       
  36 H36            1.8464     7.0986    -2.5912 H       
  37 H37            0.6377     5.8156    -2.8390 H       
  38 H38            0.1732     7.3320    -2.0308 H       
  39 H39            7.0962     0.3340    -0.6582 H       
  40 H40            7.6997     4.5026     0.1279 H       
  41 H41           10.1291     4.1855    -0.0825 H       
  42 H42            9.5273     0.0256    -0.8624 H       
  43 H43           12.8705     0.5933    -0.9505 H       
  44 H44           11.4681    -0.0835    -0.0884 H       
  45 H45           11.3614     0.2567    -1.8323 H       
@<TRIPOS>BOND
   1    1    2 ar
   2    1    6 ar
   3    1   27 1
   4    2    3 ar
   5    2    7 1
   6    3    4 ar
   7    3   28 1
   8    4    5 ar
   9    4   29 1
  10    5    6 ar
  11    5    9 1
  12    6   30 1
  13    7    8 1
  14    8   31 1
  15    8   32 1
  16    8   33 1
  17    9   10 2
  18    9   13 1
  19   10   11 1
  20   11   12 2
  21   11   19 1
  22   12   13 1
  23   13   14 1
  24   14   15 1
  25   14   34 1
  26   14   35 1
  27   15   16 1
  28   15   17 2
  29   16   18 1
  30   18   36 1
  31   18   37 1
  32   18   38 1
  33   19   20 ar
  34   19   21 ar
  35   20   24 ar
  36   20   39 1
  37   21   22 ar
  38   21   40 1
  39   22   23 ar
  40   22   41 1
  41   23   24 ar
  42   23   25 1
  43   24   42 1
  44   25   26 1
  45   26   43 1
  46   26   44 1
  47   26   45 1

#	End of record

