#	Name: ASD01883376
#	Creating user name:	WinNT
#	Creation time:	15. 06. 2019 19:46

#	Modifying user name:	WinNT
#	Modification time:	15. 06. 2019 19:46

#	Program:	/corina/corina34_cracker 3.40 0067  02.08.2006

@<TRIPOS>MOLECULE
ASD01883376
  54   56    0    0    0
SMALL
NO_CHARGES


@<TRIPOS>ATOM
   1 N1             0.0021     1.3082    -0.0152 N.am    
   2 C2            -0.7518     1.3829     1.0973 C.2     
   3 C3            -1.9997     0.7182     1.1499 C.2     
   4 C4            -2.4239    -0.0108     0.0261 C.2     
   5 C5            -1.5912    -0.0513    -1.1076 C.2     
   6 C6            -0.4117     0.6073    -1.1028 C.2     
   7 O7            -0.3596     2.0222     2.0588 O.2     
   8 C8            -2.8143     0.7866     2.3257 C.1     
   9 N9            -3.4606     0.8409     3.2584 N.1     
  10 C10            1.2919     2.0017    -0.0562 C.3     
  11 C11            2.3909     1.0649     0.4490 C.3     
  12 C12            3.7380     1.7891     0.4061 C.3     
  13 N13           -3.6309    -0.6732     0.0341 N.pl3   
  14 C14           -4.8964     0.0654     0.1606 C.3     
  15 C15           -5.8354    -0.3813    -0.9650 C.3     
  16 N16           -5.9647    -1.8444    -0.9388 N.3     
  17 C17           -4.6754    -2.4981    -1.1997 C.3     
  18 C18           -3.6892    -2.1376    -0.0898 C.3     
  19 C19            4.8160     0.8982     1.0266 C.3     
  20 C20            4.1052     2.0975    -1.0468 C.3     
  21 C21           -6.9328    -2.2751    -1.8386 C.ar    
  22 C22           -7.2037    -3.6338    -1.9614 C.ar    
  23 C23           -8.1699    -4.0486    -2.8605 C.ar    
  24 C24           -8.8349    -3.0868    -3.6091 C.ar    
  25 C25           -8.5153    -1.7549    -3.4360 C.ar    
  26 N26           -7.5926    -1.3878    -2.5672 N.ar    
  27 C27           -9.8945    -3.4926    -4.6008 C.3     
  28 H28           -1.8967    -0.6057    -1.9826 H       
  29 H29            0.2190     0.5690    -1.9787 H       
  30 H30            1.5116     2.3000    -1.0814 H       
  31 H31            1.2488     2.8869     0.5784 H       
  32 H32            2.1712     0.7666     1.4741 H       
  33 H33            2.4340     0.1797    -0.1856 H       
  34 H34            3.6680     2.7202     0.9686 H       
  35 H35           -5.3527    -0.1526     1.1262 H       
  36 H36           -4.7061     1.1353     0.0757 H       
  37 H37           -6.8159     0.0731    -0.8226 H       
  38 H38           -5.4256    -0.0696    -1.9257 H       
  39 H39           -4.8145    -3.5788    -1.2275 H       
  40 H40           -4.2817    -2.1568    -2.1571 H       
  41 H41           -2.7011    -2.5253    -0.3378 H       
  42 H42           -4.0273    -2.5657     0.8538 H       
  43 H43            4.8860    -0.0328     0.4641 H       
  44 H44            5.7757     1.4142     0.9961 H       
  45 H45            4.5544     0.6786     2.0617 H       
  46 H46            5.0649     2.6134    -1.0773 H       
  47 H47            4.1752     1.1664    -1.6093 H       
  48 H48            3.3372     2.7322    -1.4888 H       
  49 H49           -6.6669    -4.3553    -1.3633 H       
  50 H50           -8.4014    -5.0970    -2.9777 H       
  51 H51           -9.0299    -1.0034    -4.0165 H       
  52 H52          -10.8657    -3.5144    -4.1064 H       
  53 H53           -9.9198    -2.7740    -5.4200 H       
  54 H54           -9.6644    -4.4831    -4.9935 H       
@<TRIPOS>BOND
   1    1    2 am
   2    1   10 1
   3    1    6 1
   4    2    3 1
   5    2    7 2
   6    3    4 2
   7    3    8 1
   8    4    5 1
   9    4   13 1
  10    5    6 2
  11    5   28 1
  12    6   29 1
  13    8    9 3
  14   10   11 1
  15   10   30 1
  16   10   31 1
  17   11   12 1
  18   11   32 1
  19   11   33 1
  20   12   19 1
  21   12   20 1
  22   12   34 1
  23   13   14 1
  24   13   18 1
  25   14   15 1
  26   14   35 1
  27   14   36 1
  28   15   16 1
  29   15   37 1
  30   15   38 1
  31   16   17 1
  32   16   21 1
  33   17   18 1
  34   17   39 1
  35   17   40 1
  36   18   41 1
  37   18   42 1
  38   19   43 1
  39   19   44 1
  40   19   45 1
  41   20   46 1
  42   20   47 1
  43   20   48 1
  44   21   22 ar
  45   21   26 ar
  46   22   23 ar
  47   22   49 1
  48   23   24 ar
  49   23   50 1
  50   24   25 ar
  51   24   27 1
  52   25   26 ar
  53   25   51 1
  54   27   52 1
  55   27   53 1
  56   27   54 1

#	End of record

