#	Name: ASD01883172
#	Creating user name:	WinNT
#	Creation time:	15. 06. 2019 19:45

#	Modifying user name:	WinNT
#	Modification time:	15. 06. 2019 19:45

#	Program:	/corina/corina34_cracker 3.40 0067  02.08.2006

@<TRIPOS>MOLECULE
ASD01883172
  50   51    0    0    0
SMALL
NO_CHARGES


@<TRIPOS>ATOM
   1 N1            -0.0162     1.3417     0.0094 N.am    
   2 C2             0.0021    -0.0041     0.0020 C.2     
   3 C3            -1.2161    -0.7274     0.0102 C.2     
   4 C4            -2.4261    -0.0112     0.0261 C.2     
   5 C5            -2.3786     1.3968     0.0332 C.2     
   6 C6            -1.1850     2.0325     0.0299 C.2     
   7 O7             1.0657    -0.6000    -0.0122 O.2     
   8 C8            -1.2151    -2.1594     0.0021 C.1     
   9 N9            -1.2144    -3.2953    -0.0044 N.1     
  10 C10            1.2513     2.0764     0.0013 C.3     
  11 C11            1.6787     2.3399    -1.4440 C.3     
  12 C12            3.0024     3.1072    -1.4525 C.3     
  13 C13            4.1050     2.2286    -0.8581 C.3     
  14 C14            3.3668     3.4794    -2.8911 C.3     
  15 C15           -3.7218    -0.7213     0.0347 C.ar    
  16 C16           -4.5708    -0.6162     1.1391 C.ar    
  17 C17           -5.7778    -1.2797     1.1433 C.ar    
  18 C18           -6.1513    -2.0534     0.0510 C.ar    
  19 C19           -5.3094    -2.1609    -1.0494 C.ar    
  20 C20           -4.1037    -1.4950    -1.0640 C.ar    
  21 O21           -7.3417    -2.7063     0.0591 O.3     
  22 C22           -7.6630    -3.4838    -1.0960 C.3     
  23 C23           -9.0318    -4.1399    -0.9045 C.3     
  24 C24           -9.3707    -4.9598    -2.1227 C.2     
  25 C25          -10.6749    -5.7124    -2.1855 C.3     
  26 O26           -8.5972    -5.0138    -3.0485 O.2     
  27 H27           -3.2949     1.9683     0.0453 H       
  28 H28           -1.1610     3.1122     0.0354 H       
  29 H29            1.1242     3.0258     0.5214 H       
  30 H30            2.0168     1.4859     0.5046 H       
  31 H31            1.8057     1.3905    -1.9642 H       
  32 H32            0.9132     2.9304    -1.9474 H       
  33 H33            2.9002     4.0145    -0.8572 H       
  34 H34            4.2071     1.3213    -1.4534 H       
  35 H35            5.0480     2.7753    -0.8642 H       
  36 H36            3.8453     1.9634     0.1668 H       
  37 H37            2.5813     4.1053    -3.3146 H       
  38 H38            4.3098     4.0261    -2.8971 H       
  39 H39            3.4690     2.5721    -3.4864 H       
  40 H40           -4.2809    -0.0157     1.9887 H       
  41 H41           -6.4347    -1.1990     1.9968 H       
  42 H42           -5.6031    -2.7634    -1.8962 H       
  43 H43           -3.4501    -1.5788    -1.9197 H       
  44 H44           -7.6895    -2.8373    -1.9733 H       
  45 H45           -6.9064    -4.2558    -1.2363 H       
  46 H46           -9.0054    -4.7863    -0.0273 H       
  47 H47           -9.7884    -3.3679    -0.7642 H       
  48 H48          -11.5041    -5.0099    -2.1019 H       
  49 H49          -10.7427    -6.2432    -3.1351 H       
  50 H50          -10.7211    -6.4284    -1.3650 H       
@<TRIPOS>BOND
   1    1    2 am
   2    1   10 1
   3    1    6 1
   4    2    3 1
   5    2    7 2
   6    3    4 2
   7    3    8 1
   8    4    5 1
   9    4   15 1
  10    5    6 2
  11    5   27 1
  12    6   28 1
  13    8    9 3
  14   10   11 1
  15   10   29 1
  16   10   30 1
  17   11   12 1
  18   11   31 1
  19   11   32 1
  20   12   13 1
  21   12   14 1
  22   12   33 1
  23   13   34 1
  24   13   35 1
  25   13   36 1
  26   14   37 1
  27   14   38 1
  28   14   39 1
  29   15   16 ar
  30   15   20 ar
  31   16   17 ar
  32   16   40 1
  33   17   18 ar
  34   17   41 1
  35   18   19 ar
  36   18   21 1
  37   19   20 ar
  38   19   42 1
  39   20   43 1
  40   21   22 1
  41   22   23 1
  42   22   44 1
  43   22   45 1
  44   23   24 1
  45   23   46 1
  46   23   47 1
  47   24   25 1
  48   24   26 2
  49   25   48 1
  50   25   49 1
  51   25   50 1

#	End of record

