#	Name: ASD01885483
#	Creating user name:	WinNT
#	Creation time:	15. 06. 2019 19:49

#	Modifying user name:	WinNT
#	Modification time:	15. 06. 2019 19:49

#	Program:	/corina/corina34_cracker 3.40 0067  02.08.2006

@<TRIPOS>MOLECULE
ASD01885483
  66   70    0    0    0
SMALL
NO_CHARGES


@<TRIPOS>ATOM
   1 C1            -0.0633     0.6665     0.6005 C.ar    
   2 C2            -0.3770    -0.3977    -0.2456 C.ar    
   3 N3            -1.5366    -1.0987    -0.1798 N.2     
   4 C4            -2.7110    -0.6118    -0.0006 C.2     
   5 C5            -2.9345     0.8640     0.2017 C.3     
   6 C6            -2.2321     1.2760     1.4707 C.2     
   7 N7            -0.9126     1.1370     1.5932 N.am    
   8 C8             1.1628     1.3149     0.4588 C.ar    
   9 C9             2.0652     0.9167    -0.5132 C.ar    
  10 C10            1.7509    -0.1411    -1.3612 C.ar    
  11 C11            0.5474    -0.7901    -1.2308 C.ar    
  12 C12           -3.8684    -1.5186     0.0069 C.ar    
  13 O13           -2.8748     1.7403     2.3886 O.2     
  14 C14           -4.2407    -2.1935    -1.1582 C.ar    
  15 C15           -5.3271    -3.0431    -1.1445 C.ar    
  16 C16           -6.0542    -3.2332     0.0189 C.ar    
  17 C17           -5.7017    -2.5751     1.1807 C.ar    
  18 C18           -4.6061    -1.7175     1.1904 C.ar    
  19 N19            3.2901     1.5766    -0.6427 N.pl3   
  20 C20            4.4090     0.8773    -1.0028 C.2     
  21 N21            5.5406     1.5174    -1.2393 N.2     
  22 N22            4.3567    -0.4834    -1.1179 N.pl3   
  23 C23            5.5789    -1.2427    -1.3933 C.3     
  24 C24            5.6212     2.8528    -1.0247 C.1     
  25 N25            5.6887     3.9725    -0.8449 N.1     
  26 C26            5.2508    -2.7114    -1.4718 C.ar    
  27 C27            4.9019    -3.2780    -2.6835 C.ar    
  28 C28            4.6010    -4.6253    -2.7554 C.ar    
  29 C29            4.6493    -5.4061    -1.6157 C.ar    
  30 C30            4.9991    -4.8397    -0.4042 C.ar    
  31 C31            5.3043    -3.4934    -0.3331 C.ar    
  32 C32           -4.2245    -1.0095     2.4345 C.ar    
  33 C33           -5.1393    -0.1908     3.1049 C.ar    
  34 C34           -4.7420     0.4501     4.2602 C.ar    
  35 N35           -3.5197     0.2986     4.7328 N.ar    
  36 C36           -2.6265    -0.4639     4.1317 C.ar    
  37 C37           -2.9414    -1.1458     2.9743 C.ar    
  38 C38           -1.2458    -0.5970     4.7206 C.3     
  39 C39           -5.7175     1.3355     4.9921 C.3     
  40 H40           -2.5235     1.4174    -0.6426 H       
  41 H41           -4.0020     1.0657     0.2900 H       
  42 H42           -0.5137     1.3812     2.4430 H       
  43 H43            1.4113     2.1367     1.1138 H       
  44 H44            2.4528    -0.4516    -2.1211 H       
  45 H45            0.3084    -1.6105    -1.8913 H       
  46 H46           -3.6785    -2.0497    -2.0691 H       
  47 H47           -5.6128    -3.5632    -2.0468 H       
  48 H48           -6.9032    -3.9008     0.0174 H       
  49 H49           -6.2746    -2.7290     2.0832 H       
  50 H50            3.3468     2.5307    -0.4772 H       
  51 H51            3.5103    -0.9464    -1.0172 H       
  52 H52            6.0047    -0.9144    -2.3415 H       
  53 H53            6.2997    -1.0736    -0.5934 H       
  54 H54            4.8641    -2.6679    -3.5739 H       
  55 H55            4.3277    -5.0677    -3.7019 H       
  56 H56            4.4135    -6.4585    -1.6718 H       
  57 H57            5.0366    -5.4497     0.4863 H       
  58 H58            5.5776    -3.0509     0.6135 H       
  59 H59           -6.1415    -0.0619     2.7235 H       
  60 H60           -2.2053    -1.7683     2.4875 H       
  61 H61           -1.2029    -1.4868     5.3487 H       
  62 H62           -0.5148    -0.6842     3.9168 H       
  63 H63           -1.0210     0.2836     5.3223 H       
  64 H64           -6.2674     0.7434     5.7236 H       
  65 H65           -5.1741     2.1305     5.5027 H       
  66 H66           -6.4165     1.7730     4.2793 H       
@<TRIPOS>BOND
   1    1    2 ar
   2    1    8 ar
   3    1    7 1
   4    2    3 1
   5    2   11 ar
   6    3    4 2
   7    4    5 1
   8    4   12 1
   9    5    6 1
  10    5   40 1
  11    5   41 1
  12    6    7 am
  13    6   13 2
  14    7   42 1
  15    8    9 ar
  16    8   43 1
  17    9   10 ar
  18    9   19 1
  19   10   11 ar
  20   10   44 1
  21   11   45 1
  22   12   14 ar
  23   12   18 ar
  24   14   15 ar
  25   14   46 1
  26   15   16 ar
  27   15   47 1
  28   16   17 ar
  29   16   48 1
  30   17   18 ar
  31   17   49 1
  32   18   32 1
  33   19   20 1
  34   19   50 1
  35   20   21 2
  36   20   22 1
  37   21   24 1
  38   22   23 1
  39   22   51 1
  40   23   26 1
  41   23   52 1
  42   23   53 1
  43   24   25 3
  44   26   27 ar
  45   26   31 ar
  46   27   28 ar
  47   27   54 1
  48   28   29 ar
  49   28   55 1
  50   29   30 ar
  51   29   56 1
  52   30   31 ar
  53   30   57 1
  54   31   58 1
  55   32   33 ar
  56   32   37 ar
  57   33   34 ar
  58   33   59 1
  59   34   35 ar
  60   34   39 1
  61   35   36 ar
  62   36   37 ar
  63   36   38 1
  64   37   60 1
  65   38   61 1
  66   38   62 1
  67   38   63 1
  68   39   64 1
  69   39   65 1
  70   39   66 1

#	End of record

