#	Name: ASD01901396
#	Creating user name:	WinNT
#	Creation time:	15. 06. 2019 19:53

#	Modifying user name:	WinNT
#	Modification time:	15. 06. 2019 19:53

#	Program:	/corina/corina34_cracker 3.40 0067  02.08.2006

@<TRIPOS>MOLECULE
ASD01901396
  40   43    0    0    0
SMALL
NO_CHARGES


@<TRIPOS>ATOM
   1 C1            -0.0168     1.3883     0.0097 C.ar    
   2 N2             1.1078     2.0750     0.0026 N.ar    
   3 C3             2.2869     1.4800    -0.0118 C.ar    
   4 C4             2.3880     0.0977    -0.0207 C.ar    
   5 C5             1.2337    -0.6647    -0.0138 C.ar    
   6 C6             0.0021    -0.0041     0.0020 C.ar    
   7 C7            -1.2664    -0.7749     0.0105 C.2     
   8 N8            -2.7242    -2.2658     1.1179 N.2     
   9 C9            -1.6029    -1.5874     1.1149 C.2     
  10 C10           -2.1277    -0.7036    -1.0483 C.2     
  11 N11           -3.2846    -1.4241    -1.0081 N.pl3   
  12 C12           -3.5730    -2.2060     0.0808 C.2     
  13 C13           -4.3234    -1.5590    -1.8893 C.2     
  14 C14           -5.2112    -2.4076    -1.3290 C.2     
  15 N15           -4.7421    -2.7909    -0.1379 N.2     
  16 C16           -6.5142    -2.8490    -1.9442 C.3     
  17 O17           -6.6717    -2.2292    -3.2221 O.3     
  18 C18           -7.8034    -2.5236    -3.9155 C.ar    
  19 C19           -8.7447    -3.3864    -3.3739 C.ar    
  20 C20           -8.0205    -1.9568    -5.1628 C.ar    
  21 C21           -9.1712    -2.2565    -5.8661 C.ar    
  22 C22          -10.1077    -3.1216    -5.3264 C.ar    
  23 C23           -9.8945    -3.6843    -4.0794 C.ar    
  24 F24          -11.2330    -3.4131    -6.0149 F       
  25 F25            3.4108     2.2297    -0.0186 F       
  26 C26            3.7403    -0.5672    -0.0382 C.3     
  27 H27           -0.9621     1.9103     0.0260 H       
  28 H28            1.2830    -1.7436    -0.0208 H       
  29 H29           -0.9336    -1.6505     1.9602 H       
  30 H30           -1.8958    -0.0859    -1.9033 H       
  31 H31           -4.4154    -1.0770    -2.8514 H       
  32 H32           -6.5110    -3.9324    -2.0637 H       
  33 H33           -7.3397    -2.5575    -1.2948 H       
  34 H34           -8.5787    -3.8254    -2.4012 H       
  35 H35           -7.2904    -1.2814    -5.5837 H       
  36 H36           -9.3404    -1.8153    -6.8373 H       
  37 H37          -10.6276    -4.3561    -3.6579 H       
  38 H38            4.0767    -0.7334     0.9852 H       
  39 H39            3.6684    -1.5232    -0.5568 H       
  40 H40            4.4538     0.0740    -0.5557 H       
@<TRIPOS>BOND
   1    1    6 ar
   2    1    2 ar
   3    1   27 1
   4    2    3 ar
   5    3    4 ar
   6    3   25 1
   7    4    5 ar
   8    4   26 1
   9    5    6 ar
  10    5   28 1
  11    6    7 1
  12    7   10 2
  13    7    9 1
  14    8    9 2
  15    8   12 1
  16    9   29 1
  17   10   11 1
  18   10   30 1
  19   11   13 1
  20   11   12 1
  21   12   15 2
  22   13   14 2
  23   13   31 1
  24   14   15 1
  25   14   16 1
  26   16   17 1
  27   16   32 1
  28   16   33 1
  29   17   18 1
  30   18   20 ar
  31   18   19 ar
  32   19   23 ar
  33   19   34 1
  34   20   21 ar
  35   20   35 1
  36   21   22 ar
  37   21   36 1
  38   22   23 ar
  39   22   24 1
  40   23   37 1
  41   26   38 1
  42   26   39 1
  43   26   40 1

#	End of record

