#	Name: ASD01912410
#	Creating user name:	WinNT
#	Creation time:	15. 06. 2019 19:59

#	Modifying user name:	WinNT
#	Modification time:	15. 06. 2019 19:59

#	Program:	/corina/corina34_cracker 3.40 0067  02.08.2006

@<TRIPOS>MOLECULE
ASD01912410
  52   55    0    0    0
SMALL
NO_CHARGES


@<TRIPOS>ATOM
   1 C1            -0.3227     0.5424    -1.6327 C.1     
   2 C2            -0.1783     1.6986    -0.8003 C.ar    
   3 C3             1.0160     2.4243    -0.7934 C.ar    
   4 C4             1.1043     3.5430     0.0353 C.ar    
   5 C5             0.0086     3.8967     0.8219 C.ar    
   6 N6            -1.1039     3.1919     0.7936 N.ar    
   7 C7            -1.2379     2.1260     0.0194 C.ar    
   8 N8            -0.4372    -0.3748    -2.2931 N.1     
   9 C9             2.3505     4.3473     0.0797 C.ar    
  10 C10            2.4330     5.4637     0.9094 C.ar    
  11 C11            3.5948     6.2079     0.9471 C.ar    
  12 C12            4.6759     5.8472     0.1633 C.ar    
  13 C13            4.5995     4.7399    -0.6622 C.ar    
  14 C14            3.4445     3.9855    -0.7038 C.ar    
  15 N15           -2.4294     1.4232     0.0212 N.3     
  16 C16           -3.5758     2.3314     0.1509 C.3     
  17 C17           -4.8730     1.5521    -0.0943 C.3     
  18 C18           -4.8905     0.3563     0.8346 C.2     
  19 C19           -3.6526    -0.5144     0.8877 C.3     
  20 C20           -2.4330     0.3962     1.0705 C.3     
  21 C21           -5.9592     0.0797     1.5806 C.2     
  22 C22           -5.9499    -1.0574     2.4510 C.1     
  23 C23           -5.9423    -1.9896     3.1645 C.1     
  24 C24           -5.9331    -3.1267     4.0349 C.ar    
  25 C25           -7.0570    -3.4125     4.8155 C.ar    
  26 C26           -7.0316    -4.5142     5.6506 C.ar    
  27 C27           -5.8852    -5.2974     5.6814 C.ar    
  28 C28           -4.8083    -4.9580     4.8829 C.ar    
  29 N29           -4.8573    -3.9067     4.0909 N.ar    
  30 C30           -3.5634    -5.8065     4.9147 C.3     
  31 H31            1.8489     2.1267    -1.4132 H       
  32 H32            0.0732     4.7621     1.4647 H       
  33 H33            1.5894     5.7464     1.5216 H       
  34 H34            3.6597     7.0736     1.5896 H       
  35 H35            5.5829     6.4326     0.1956 H       
  36 H36            5.4466     4.4628    -1.2721 H       
  37 H37            3.3874     3.1185    -1.3453 H       
  38 H38           -3.5912     2.7563     1.1545 H       
  39 H39           -3.4892     3.1332    -0.5823 H       
  40 H40           -5.7308     2.1917     0.1135 H       
  41 H41           -4.9084     1.2138    -1.1299 H       
  42 H42           -3.7248    -1.2052     1.7277 H       
  43 H43           -3.5570    -1.0745    -0.0425 H       
  44 H44           -1.5219    -0.1981     1.0007 H       
  45 H45           -2.4805     0.8756     2.0482 H       
  46 H46           -6.8324     0.7131     1.5289 H       
  47 H47           -7.9323    -2.7816     4.7673 H       
  48 H48           -7.8845    -4.7601     6.2658 H       
  49 H49           -5.8350    -6.1642     6.3237 H       
  50 H50           -3.6411    -6.5939     4.1650 H       
  51 H51           -2.6943    -5.1848     4.6999 H       
  52 H52           -3.4543    -6.2547     5.9023 H       
@<TRIPOS>BOND
   1    1    2 1
   2    1    8 3
   3    2    3 ar
   4    2    7 ar
   5    3    4 ar
   6    3   31 1
   7    4    5 ar
   8    4    9 1
   9    5    6 ar
  10    5   32 1
  11    6    7 ar
  12    7   15 1
  13    9   10 ar
  14    9   14 ar
  15   10   11 ar
  16   10   33 1
  17   11   12 ar
  18   11   34 1
  19   12   13 ar
  20   12   35 1
  21   13   14 ar
  22   13   36 1
  23   14   37 1
  24   15   16 1
  25   15   20 1
  26   16   17 1
  27   16   38 1
  28   16   39 1
  29   17   18 1
  30   17   40 1
  31   17   41 1
  32   18   19 1
  33   18   21 2
  34   19   20 1
  35   19   42 1
  36   19   43 1
  37   20   44 1
  38   20   45 1
  39   21   22 1
  40   21   46 1
  41   22   23 3
  42   23   24 1
  43   24   25 ar
  44   24   29 ar
  45   25   26 ar
  46   25   47 1
  47   26   27 ar
  48   26   48 1
  49   27   28 ar
  50   27   49 1
  51   28   29 ar
  52   28   30 1
  53   30   50 1
  54   30   51 1
  55   30   52 1

#	End of record

