#	Name: ASD02408015
#	Creating user name:	WinNT
#	Creation time:	15. 06. 2019 20:20

#	Modifying user name:	WinNT
#	Modification time:	15. 06. 2019 20:20

#	Program:	/corina/corina34_cracker 3.40 0067  02.08.2006

@<TRIPOS>MOLECULE
ASD02408015
  32   33    0    0    0
SMALL
NO_CHARGES


@<TRIPOS>ATOM
   1 C1            -0.0167     1.3779     0.0096 C.ar    
   2 C2             0.0021    -0.0041     0.0020 C.ar    
   3 C3             1.2780     2.1491     0.0014 C.3     
   4 C4             1.6598     2.5049     1.4152 C.2     
   5 N5             2.7941     3.2006     1.6280 N.am    
   6 N6             0.8781     2.1338     2.3919 N.2     
   7 C7             1.1667     2.4225     3.6682 C.2     
   8 C8             2.3385     3.1418     3.9621 C.2     
   9 C9             3.1670     3.5365     2.8808 C.2     
  10 S10            0.0894     1.9070     4.9637 S.3     
  11 O11            4.1944     4.1619     3.0788 O.2     
  12 C12           -1.1857    -0.7116     0.0096 C.ar    
  13 C13           -2.3919    -0.0369     0.0253 C.ar    
  14 C14           -2.4106     1.3455     0.0338 C.ar    
  15 C15           -1.2233     2.0528     0.0190 C.ar    
  16 C16           -1.1863     1.0643     3.9950 C.3     
  17 C17           -1.2437     3.5597     0.0283 C.3     
  18 C18            2.6827     3.4703     5.3127 C.1     
  19 N19            2.9558     3.7309     6.3842 N.1     
  20 H20            0.9446    -0.5313    -0.0102 H       
  21 H21            2.0626     1.5372    -0.4437 H       
  22 H22            1.1538     3.0614    -0.5820 H       
  23 H23            3.3471     3.4616     0.8750 H       
  24 H24           -1.1711    -1.7915     0.0029 H       
  25 H25           -3.3198    -0.5895     0.0305 H       
  26 H26           -3.3531     1.8727     0.0456 H       
  27 H27           -1.9527     0.6742     4.6647 H       
  28 H28           -1.6381     1.7697     3.2975 H       
  29 H29           -0.7364     0.2416     3.4393 H       
  30 H30           -1.2322     3.9169     1.0580 H       
  31 H31           -0.3670     3.9382    -0.4974 H       
  32 H32           -2.1466     3.9139    -0.4691 H       
@<TRIPOS>BOND
   1    1    2 ar
   2    1    3 1
   3    1   15 ar
   4    2   12 ar
   5    2   20 1
   6    3    4 1
   7    3   21 1
   8    3   22 1
   9    4    5 1
  10    4    6 2
  11    5    9 am
  12    5   23 1
  13    6    7 1
  14    7    8 2
  15    7   10 1
  16    8    9 1
  17    8   18 1
  18    9   11 2
  19   10   16 1
  20   12   13 ar
  21   12   24 1
  22   13   14 ar
  23   13   25 1
  24   14   15 ar
  25   14   26 1
  26   15   17 1
  27   16   27 1
  28   16   28 1
  29   16   29 1
  30   17   30 1
  31   17   31 1
  32   17   32 1
  33   18   19 3

#	End of record

