#	Name: ASD04170028
#	Creating user name:	WinNT
#	Creation time:	15. 06. 2019 20:48

#	Modifying user name:	WinNT
#	Modification time:	15. 06. 2019 20:48

#	Program:	/corina/corina34_cracker 3.40 0067  02.08.2006

@<TRIPOS>MOLECULE
ASD04170028
  42   44    0    0    0
SMALL
NO_CHARGES


@<TRIPOS>ATOM
   1 C1            -0.0187     1.5258     0.0104 C.3     
   2 C2             0.0021    -0.0041     0.0020 C.3     
   3 C3            -1.4117    -0.5257     0.0127 C.ar    
   4 C4            -2.0693    -0.7576    -1.1823 C.ar    
   5 C5            -3.3635    -1.2355    -1.1795 C.ar    
   6 C6            -4.0094    -1.4851     0.0324 C.ar    
   7 C7            -3.3403    -1.2489     1.2343 C.ar    
   8 C8            -2.0444    -0.7759     1.2175 C.ar    
   9 C9            -5.3964    -1.9968     0.0429 C.2     
  10 O10           -5.9768    -2.2011    -1.0054 O.2     
  11 N11           -6.0173    -2.2367     1.2148 N.am    
  12 C12           -7.3917    -2.7438     1.2252 C.3     
  13 C13           -7.3770    -4.2682     1.0906 C.3     
  14 N14           -8.0086    -4.8811     2.2615 N.4     
  15 C15           -9.4083    -4.4634     2.3703 C.3     
  16 C16           -9.4900    -2.9456     2.5479 C.3     
  17 C17           -8.0675    -2.3704     2.5511 C.3     
  18 C18           -7.2834    -3.0261     3.6954 C.3     
  19 C19           -7.2724    -4.5414     3.4815 C.3     
  20 H20            1.0039     1.9031     0.0027 H       
  21 H21           -0.5459     1.8868    -0.8726 H       
  22 H22           -0.5289     1.8773     0.9072 H       
  23 H23            0.5123    -0.3556    -0.8948 H       
  24 H24            0.5293    -0.3651     0.8851 H       
  25 H25           -1.5685    -0.5638    -2.1193 H       
  26 H26           -3.8758    -1.4158    -2.1130 H       
  27 H27           -3.8345    -1.4400     2.1754 H       
  28 H28           -1.5255    -0.5928     2.1468 H       
  29 H29           -5.5542    -2.0737     2.0513 H       
  30 H30           -7.9477    -2.3092     0.3945 H       
  31 H31           -7.9227    -4.5573     0.1924 H       
  32 H32           -6.3463    -4.6144     1.0128 H       
  33 H33           -7.9824    -5.8836     2.1503 H       
  34 H34           -9.9430    -4.7508     1.4650 H       
  35 H35           -9.8662    -4.9532     3.2297 H       
  36 H36          -10.0577    -2.5115     1.7249 H       
  37 H37           -9.9796    -2.7143     3.4939 H       
  38 H38           -8.0984    -1.2871     2.6673 H       
  39 H39           -6.2602    -2.6504     3.6994 H       
  40 H40           -7.7632    -2.7950     4.6464 H       
  41 H41           -7.7416    -5.0306     4.3351 H       
  42 H42           -6.2424    -4.8863     3.3903 H       
@<TRIPOS>BOND
   1    1    2 1
   2    1   20 1
   3    1   21 1
   4    1   22 1
   5    2    3 1
   6    2   23 1
   7    2   24 1
   8    3    4 ar
   9    3    8 ar
  10    4    5 ar
  11    4   25 1
  12    5    6 ar
  13    5   26 1
  14    6    7 ar
  15    6    9 1
  16    7    8 ar
  17    7   27 1
  18    8   28 1
  19    9   10 2
  20    9   11 am
  21   11   12 1
  22   11   29 1
  23   12   13 1
  24   12   17 1
  25   12   30 1
  26   13   14 1
  27   13   31 1
  28   13   32 1
  29   14   15 1
  30   14   19 1
  31   14   33 1
  32   15   16 1
  33   15   34 1
  34   15   35 1
  35   16   17 1
  36   16   36 1
  37   16   37 1
  38   17   18 1
  39   17   38 1
  40   18   19 1
  41   18   39 1
  42   18   40 1
  43   19   41 1
  44   19   42 1

#	End of record

