#	Name: ASD01320018
#	Creating user name:	WinNT
#	Creation time:	15. 06. 2019 19:15

#	Modifying user name:	WinNT
#	Modification time:	15. 06. 2019 19:15

#	Program:	/corina/corina34_cracker 3.40 0067  02.08.2006

@<TRIPOS>MOLECULE
ASD01320018
  48   50    0    0    0
SMALL
NO_CHARGES


@<TRIPOS>ATOM
   1 C1             0.2933     1.6437     0.3838 C.ar    
   2 C2             0.1765     0.2927     0.6522 C.ar    
   3 C3             1.2711    -0.5425     0.4946 C.ar    
   4 C4             2.4879    -0.0167     0.0649 C.ar    
   5 C5             2.5969     1.3403    -0.2029 C.ar    
   6 C6             1.5006     2.1662    -0.0426 C.ar    
   7 O7             1.1582    -1.8712     0.7590 O.3     
   8 C8            -0.0621    -2.3493     1.1102 C.ar    
   9 C9            -0.9960    -2.6514     0.1268 C.ar    
  10 C10           -2.2465    -3.1413     0.4850 C.ar    
  11 C11           -2.5581    -3.3283     1.8464 C.ar    
  12 C12           -1.6100    -3.0204     2.8210 C.ar    
  13 C13           -0.3706    -2.5402     2.4521 C.ar    
  14 N14            3.5975    -0.8553    -0.0958 N.am    
  15 C15            4.6303    -0.4657    -0.8691 C.2     
  16 C16            5.8450    -1.3035    -0.9571 C.ar    
  17 O17            4.5630     0.5747    -1.4943 O.2     
  18 C18            6.9163    -0.9029    -1.7570 C.ar    
  19 C19            8.0473    -1.6894    -1.8342 C.ar    
  20 C20            8.1207    -2.8727    -1.1215 C.ar    
  21 C21            7.0621    -3.2757    -0.3265 C.ar    
  22 C22            5.9279    -2.4960    -0.2359 C.ar    
  23 C23           -3.2447    -3.4642    -0.5571 C.2     
  24 O24           -3.7286    -4.5768    -0.6105 O.2     
  25 O25           -3.6172    -2.5242    -1.4472 O.3     
  26 C26           -3.8827    -3.8474     2.2389 C.2     
  27 O27           -4.7466    -4.0047     1.3994 O.2     
  28 O28           -4.1339    -4.1468     3.5284 O.3     
  29 N29            9.1845    -1.2662    -2.6820 N.pl3   
  30 O30            9.1212    -0.2247    -3.3104 O.2     
  31 O31           10.1836    -1.9594    -2.7512 O.2     
  32 C32            1.6207     3.6398    -0.3344 C.3     
  33 F33            1.3092     3.8761    -1.6776 F       
  34 F34            0.7343     4.3505     0.4819 F       
  35 F35            2.9300     4.0607    -0.0783 F       
  36 H36           -0.5620     2.2923     0.5033 H       
  37 H37           -0.7679    -0.1119     0.9851 H       
  38 H38            3.5386     1.7512    -0.5358 H       
  39 H39           -0.7507    -2.5054    -0.9148 H       
  40 H40           -1.8445    -3.1621     3.8657 H       
  41 H41            0.3611    -2.3033     3.2103 H       
  42 H42            3.6229    -1.7167     0.3494 H       
  43 H43            6.8600     0.0203    -2.3144 H       
  44 H44            9.0081    -3.4850    -1.1860 H       
  45 H45            7.1258    -4.2006     0.2274 H       
  46 H46            5.1024    -2.8116     0.3849 H       
  47 H47           -4.2726    -2.7822    -2.1097 H       
  48 H48           -5.0159    -4.4838     3.7371 H       
@<TRIPOS>BOND
   1    1    2 ar
   2    1    6 ar
   3    1   36 1
   4    2    3 ar
   5    2   37 1
   6    3    4 ar
   7    3    7 1
   8    4    5 ar
   9    4   14 1
  10    5    6 ar
  11    5   38 1
  12    6   32 1
  13    7    8 1
  14    8    9 ar
  15    8   13 ar
  16    9   10 ar
  17    9   39 1
  18   10   11 ar
  19   10   23 1
  20   11   12 ar
  21   11   26 1
  22   12   13 ar
  23   12   40 1
  24   13   41 1
  25   14   15 am
  26   14   42 1
  27   15   16 1
  28   15   17 2
  29   16   18 ar
  30   16   22 ar
  31   18   19 ar
  32   18   43 1
  33   19   20 ar
  34   19   29 1
  35   20   21 ar
  36   20   44 1
  37   21   22 ar
  38   21   45 1
  39   22   46 1
  40   23   24 2
  41   23   25 1
  42   25   47 1
  43   26   27 2
  44   26   28 1
  45   28   48 1
  46   29   30 2
  47   29   31 2
  48   32   33 1
  49   32   34 1
  50   32   35 1

#	End of record

