#	Name: ASD01914176
#	Creating user name:	WinNT
#	Creation time:	15. 06. 2019 20:03

#	Modifying user name:	WinNT
#	Modification time:	15. 06. 2019 20:03

#	Program:	/corina/corina34_cracker 3.40 0067  02.08.2006

@<TRIPOS>MOLECULE
ASD01914176
  38   40    0    0    0
SMALL
NO_CHARGES


@<TRIPOS>ATOM
   1 C1             0.6964     2.3939     0.2200 C.ar    
   2 C2             0.9503     1.0222     0.1849 C.ar    
   3 C3             2.2608     0.5804     0.2234 C.ar    
   4 C4             3.2766     1.5238     0.2958 C.ar    
   5 C5             2.9538     2.8679     0.3272 C.ar    
   6 N6             1.6978     3.2633     0.2893 N.ar    
   7 C7            -0.6542     2.8678     0.1749 C.1     
   8 C8            -1.7614     3.2563     0.1380 C.1     
   9 C9            -3.1497     3.7434     0.0916 C.3     
  10 C10           -3.1557     5.2725     0.1433 C.3     
  11 N11           -4.5374     5.7573     0.0972 N.pl3   
  12 N12           -5.2934     5.9711     1.1159 N.2     
  13 N13           -6.4481     6.3935     0.7387 N.2     
  14 C14           -6.4654     6.4661    -0.6042 C.2     
  15 C15           -5.2312     6.0611    -1.0231 C.2     
  16 C16           -4.7421     5.9683    -2.4455 C.3     
  17 C17           -7.5975     6.9042    -1.4587 C.ar    
  18 C18           -8.3820     7.9901    -1.0763 C.ar    
  19 C19           -9.4331     8.3943    -1.8738 C.ar    
  20 C20           -9.7087     7.7220    -3.0532 C.ar    
  21 C21           -8.9312     6.6417    -3.4373 C.ar    
  22 C22           -7.8749     6.2342    -2.6483 C.ar    
  23 F23          -10.7390     8.1207    -3.8309 F       
  24 H24            0.1355     0.3156     0.1288 H       
  25 H25            2.4885    -0.4750     0.1981 H       
  26 H26            4.3097     1.2107     0.3277 H       
  27 H27            3.7423     3.6037     0.3835 H       
  28 H28           -3.6214     3.4092    -0.8325 H       
  29 H29           -3.7019     3.3489     0.9446 H       
  30 H30           -2.6840     5.6066     1.0674 H       
  31 H31           -2.6035     5.6670    -0.7097 H       
  32 H32           -4.9887     4.9871    -2.8512 H       
  33 H33           -5.2223     6.7408    -3.0460 H       
  34 H34           -3.6615     6.1097    -2.4681 H       
  35 H35           -8.1680     8.5145    -0.1567 H       
  36 H36          -10.0420     9.2358    -1.5778 H       
  37 H37           -9.1494     6.1203    -4.3576 H       
  38 H38           -7.2667     5.3944    -2.9504 H       
@<TRIPOS>BOND
   1    1    2 ar
   2    1    6 ar
   3    1    7 1
   4    2    3 ar
   5    2   24 1
   6    3    4 ar
   7    3   25 1
   8    4    5 ar
   9    4   26 1
  10    5    6 ar
  11    5   27 1
  12    7    8 3
  13    8    9 1
  14    9   10 1
  15    9   28 1
  16    9   29 1
  17   10   11 1
  18   10   30 1
  19   10   31 1
  20   11   12 1
  21   11   15 1
  22   12   13 2
  23   13   14 1
  24   14   15 2
  25   14   17 1
  26   15   16 1
  27   16   32 1
  28   16   33 1
  29   16   34 1
  30   17   18 ar
  31   17   22 ar
  32   18   19 ar
  33   18   35 1
  34   19   20 ar
  35   19   36 1
  36   20   21 ar
  37   20   23 1
  38   21   22 ar
  39   21   37 1
  40   22   38 1

#	End of record

