#	Name: ASD01917258
#	Creating user name:	WinNT
#	Creation time:	15. 06. 2019 20:08

#	Modifying user name:	WinNT
#	Modification time:	15. 06. 2019 20:08

#	Program:	/corina/corina34_cracker 3.40 0067  02.08.2006

@<TRIPOS>MOLECULE
ASD01917258
  48   51    0    0    0
SMALL
NO_CHARGES


@<TRIPOS>ATOM
   1 C1             0.1367     0.7338    -0.4637 C.ar    
   2 C2             0.2956    -0.6279    -0.2866 C.ar    
   3 C3             1.5575    -1.1565    -0.0887 C.ar    
   4 C4             2.6605    -0.3235    -0.0685 C.ar    
   5 C5             2.5017     1.0381    -0.2466 C.ar    
   6 C6             1.2397     1.5669    -0.4430 C.ar    
   7 C7             3.7041     1.9463    -0.2240 C.3     
   8 O8             4.2278     2.0761    -1.5472 O.3     
   9 C9             5.3226     2.8678    -1.7030 C.2     
  10 N10            5.9391     3.5225    -0.7407 N.2     
  11 N11            7.0041     4.2228    -1.2922 N.pl3   
  12 C12            7.0248     3.9569    -2.6431 C.2     
  13 C13            5.9845     3.1169    -2.9133 C.2     
  14 C14            7.9803     5.1163    -0.6660 C.3     
  15 C15            9.2912     5.0593    -1.4500 C.3     
  16 N16            9.0880     5.1625    -2.8907 N.am    
  17 C17            8.0625     4.5337    -3.5135 C.2     
  18 O18            8.0023     4.4503    -4.7254 O.2     
  19 C19            9.9724     5.9284    -3.6466 C.ar    
  20 C20           11.1545     6.3797    -3.0728 C.ar    
  21 N21            9.6801     6.2144    -4.9063 N.ar    
  22 C22           10.4940     6.9395    -5.6589 C.ar    
  23 C23           11.6900     7.4266    -5.1446 C.ar    
  24 C24           12.0284     7.1410    -3.8321 C.ar    
  25 N25           10.1487     7.2159    -6.9767 N.pl3   
  26 C26           11.0908     7.9226    -7.8480 C.3     
  27 C27            8.8427     6.8004    -7.4942 C.3     
  28 H28           -0.8486     1.1463    -0.6228 H       
  29 H29           -0.5661    -1.2787    -0.3024 H       
  30 H30            1.6816    -2.2203     0.0504 H       
  31 H31            3.6463    -0.7364     0.0868 H       
  32 H32            1.1156     2.6307    -0.5825 H       
  33 H33            3.4111     2.9278     0.1487 H       
  34 H34            4.4672     1.5226     0.4288 H       
  35 H35            5.7158     2.7225    -3.8822 H       
  36 H36            7.5964     6.1365    -0.6724 H       
  37 H37            8.1568     4.7995     0.3619 H       
  38 H38            9.9320     5.8789    -1.1250 H       
  39 H39            9.7915     4.1158    -1.2316 H       
  40 H40           11.3895     6.1400    -2.0463 H       
  41 H41           12.3500     8.0171    -5.7627 H       
  42 H42           12.9518     7.5074    -3.4084 H       
  43 H43           11.7269     7.1991    -8.3580 H       
  44 H44           10.5376     8.5037    -8.5858 H       
  45 H45           11.7090     8.5908    -7.2485 H       
  46 H46            8.1164     7.5961    -7.3287 H       
  47 H47            8.9227     6.5980    -8.5623 H       
  48 H48            8.5171     5.8979    -6.9768 H       
@<TRIPOS>BOND
   1    1    2 ar
   2    1    6 ar
   3    1   28 1
   4    2    3 ar
   5    2   29 1
   6    3    4 ar
   7    3   30 1
   8    4    5 ar
   9    4   31 1
  10    5    6 ar
  11    5    7 1
  12    6   32 1
  13    7    8 1
  14    7   33 1
  15    7   34 1
  16    8    9 1
  17    9   10 2
  18    9   13 1
  19   10   11 1
  20   11   12 1
  21   11   14 1
  22   12   13 2
  23   12   17 1
  24   13   35 1
  25   14   15 1
  26   14   36 1
  27   14   37 1
  28   15   16 1
  29   15   38 1
  30   15   39 1
  31   16   17 am
  32   16   19 1
  33   17   18 2
  34   19   20 ar
  35   19   21 ar
  36   20   24 ar
  37   20   40 1
  38   21   22 ar
  39   22   23 ar
  40   22   25 1
  41   23   24 ar
  42   23   41 1
  43   24   42 1
  44   25   26 1
  45   25   27 1
  46   26   43 1
  47   26   44 1
  48   26   45 1
  49   27   46 1
  50   27   47 1
  51   27   48 1

#	End of record

