#	Name: ASD03731684
#	Creating user name:	WinNT
#	Creation time:	15. 06. 2019 20:46

#	Modifying user name:	WinNT
#	Modification time:	15. 06. 2019 20:46

#	Program:	/corina/corina34_cracker 3.40 0067  02.08.2006

@<TRIPOS>MOLECULE
ASD03731684
  36   37    0    0    0
SMALL
NO_CHARGES


@<TRIPOS>ATOM
   1 C1            -0.4036     1.1044    -1.9602 C.2     
   2 C2            -0.2821    -0.2736    -1.4500 C.ar    
   3 C3             0.9017    -0.9938    -1.6484 C.ar    
   4 C4             1.0106    -2.2837    -1.1688 C.ar    
   5 C5            -0.0518    -2.8662    -0.4908 C.ar    
   6 C6            -1.2312    -2.1530    -0.2914 C.ar    
   7 C7            -1.3469    -0.8629    -0.7615 C.ar    
   8 O8             0.5254     1.6169    -2.5544 O.2     
   9 N9            -1.5464     1.7941    -1.7730 N.am    
  10 S10           -1.6829     3.3417    -2.3460 S.o2    
  11 O11           -2.9851     3.7489    -1.9489 O.2     
  12 O12           -0.5261     4.0020    -1.8510 O.2     
  13 C13           -1.5929     3.1663    -4.1493 C.3     
  14 O14            0.0593    -4.1349    -0.0213 O.3     
  15 C15            1.2620    -4.7567    -0.1412 C.ar    
  16 C16            2.2133    -4.6279     0.8608 C.ar    
  17 C17            3.4350    -5.2602     0.7375 C.ar    
  18 C18            3.7108    -6.0225    -0.3853 C.ar    
  19 C19            2.7627    -6.1519    -1.3857 C.ar    
  20 C20            1.5376    -5.5252    -1.2626 C.ar    
  21 C21            4.4686    -5.1202     1.8252 C.3     
  22 F22            4.9065    -6.6401    -0.5046 F       
  23 F23           -2.2618    -2.7252     0.3686 F       
  24 F24            1.9357    -0.4277    -2.3084 F       
  25 H25            1.9233    -2.8405    -1.3215 H       
  26 H26           -2.2603    -0.3092    -0.6021 H       
  27 H27           -2.2888     1.3838    -1.3025 H       
  28 H28           -2.4092     2.5314    -4.4937 H       
  29 H29           -1.6755     4.1486    -4.6144 H       
  30 H30           -0.6400     2.7135    -4.4232 H       
  31 H31            1.9987    -4.0332     1.7363 H       
  32 H32            2.9793    -6.7464    -2.2610 H       
  33 H33            0.7963    -5.6303    -2.0410 H       
  34 H34            4.3356    -5.9165     2.5576 H       
  35 H35            5.4656    -5.1895     1.3902 H       
  36 H36            4.3523    -4.1532     2.3147 H       
@<TRIPOS>BOND
   1    1    2 1
   2    1    8 2
   3    1    9 am
   4    2    3 ar
   5    2    7 ar
   6    3    4 ar
   7    3   24 1
   8    4    5 ar
   9    4   25 1
  10    5    6 ar
  11    5   14 1
  12    6    7 ar
  13    6   23 1
  14    7   26 1
  15    9   10 am
  16    9   27 1
  17   10   11 2
  18   10   12 2
  19   10   13 1
  20   13   28 1
  21   13   29 1
  22   13   30 1
  23   14   15 1
  24   15   16 ar
  25   15   20 ar
  26   16   17 ar
  27   16   31 1
  28   17   18 ar
  29   17   21 1
  30   18   19 ar
  31   18   22 1
  32   19   20 ar
  33   19   32 1
  34   20   33 1
  35   21   34 1
  36   21   35 1
  37   21   36 1

#	End of record

