#	Name: ASD05430243
#	Creating user name:	WinNT
#	Creation time:	15. 06. 2019 21:00

#	Modifying user name:	WinNT
#	Modification time:	15. 06. 2019 21:00

#	Program:	/corina/corina34_cracker 3.40 0067  02.08.2006

@<TRIPOS>MOLECULE
ASD05430243
  75   82    0    0    0
SMALL
NO_CHARGES


@<TRIPOS>ATOM
   1 C1             0.0134     1.2611     0.1852 C.ar    
   2 C2             0.0321    -0.0169    -0.3240 C.ar    
   3 C3             1.2372    -0.5938    -0.7186 C.ar    
   4 C4             2.3968     0.1382    -0.5887 C.ar    
   5 C5             2.3707     1.4347    -0.0837 C.ar    
   6 C6             1.1523     2.0420     0.3130 C.ar    
   7 O7             4.8701     0.1676    -0.0105 O.3     
   8 C8             4.8121     1.5336     0.0260 C.2     
   9 C9             3.6283     2.1874     0.0415 C.2     
  10 C10            6.1042    -0.4284     0.4029 C.3     
  11 C11            6.9387     0.3880     1.3984 C.3     
  12 N12            7.1187     1.7342     0.8471 N.pl3   
  13 C13            6.0925     2.2646     0.0484 C.2     
  14 N14            6.2870     3.3305    -0.6607 N.2     
  15 N15           -1.1630    -0.7396    -0.4454 N.pl3   
  16 C16           -1.4338    -1.9650     0.1062 C.2     
  17 C17           -2.6894    -2.2880    -0.2585 C.2     
  18 N18           -3.1762    -1.2909    -1.0119 N.2     
  19 C19           -2.2733    -0.3553    -1.1269 C.2     
  20 C20           -3.4207    -3.5516     0.1151 C.3     
  21 C21            6.1451    -1.9513     0.5331 C.3     
  22 C22            6.8636    -1.2634    -0.6294 C.3     
  23 C23           -0.2982     3.6927     1.6479 C.3     
  24 Si24          -1.3775     2.3458     0.8628 Si      
  25 C25            8.3029     2.5370     1.1252 C.3     
  26 C26            8.7222     3.2908    -0.1380 C.3     
  27 N27            7.5465     3.9363    -0.7298 N.pl3   
  28 C28            8.0590     3.4892     2.2547 C.ar    
  29 C29            8.9590     3.1961     3.2831 C.ar    
  30 N30            9.7856     2.1360     2.9536 N.pl3   
  31 C31            9.4552     1.6421     1.6086 C.3     
  32 C32            7.1337     4.5121     2.3605 C.ar    
  33 C33            7.1309     5.2467     3.5397 C.ar    
  34 C34            8.9471     3.9417     4.4661 C.ar    
  35 C35            8.0161     4.9659     4.5633 C.ar    
  36 F36            7.9737     5.7097     5.6903 F       
  37 C37            7.6920     5.2300    -1.4016 C.3     
  38 C38            0.9933     3.4495     0.8287 C.3     
  39 C39           -2.4464     3.0282    -0.5019 C.3     
  40 C40           -2.3928     1.4456     2.1393 C.3     
  41 H41            1.2619    -1.5966    -1.1187 H       
  42 H42            3.3391    -0.3001    -0.8825 H       
  43 H43            3.6062     3.2621     0.1458 H       
  44 H44            6.4169     0.4483     2.3535 H       
  45 H45            7.9106    -0.0851     1.5386 H       
  46 H46           -0.7680    -2.5578     0.7158 H       
  47 H47           -2.3877     0.5671    -1.6770 H       
  48 H48           -3.9605    -3.3963     1.0492 H       
  49 H49           -4.1270    -3.8094    -0.6741 H       
  50 H50           -2.7037    -4.3629     0.2403 H       
  51 H51            6.7615    -2.3721     1.3275 H       
  52 H52            5.2314    -2.5006     0.3058 H       
  53 H53            6.4226    -1.3599    -1.6216 H       
  54 H54            7.9527    -1.2315    -0.5998 H       
  55 H55           -0.7051     4.6880     1.4698 H       
  56 H56           -0.1399     3.5115     2.7110 H       
  57 H57            9.4624     4.0484     0.1193 H       
  58 H58            9.1516     2.5901    -0.8540 H       
  59 H59           10.4799     1.7727     3.5253 H       
  60 H60            9.1323     0.6021     1.6561 H       
  61 H61           10.3154     1.7423     0.9468 H       
  62 H62            6.4428     4.7307     1.5597 H       
  63 H63            6.4229     6.0535     3.6588 H       
  64 H64            9.6347     3.7291     5.2713 H       
  65 H65            7.9109     5.0687    -2.4572 H       
  66 H66            6.7654     5.7959    -1.3050 H       
  67 H67            8.5081     5.7881    -0.9425 H       
  68 H68            1.8512     3.6857     1.4582 H       
  69 H69            0.9967     4.1313    -0.0217 H       
  70 H70           -1.8137     3.4572    -1.2790 H       
  71 H71           -3.0498     2.2259    -0.9265 H       
  72 H72           -3.1011     3.8009    -0.0988 H       
  73 H73           -3.1063     2.1361     2.5890 H       
  74 H74           -2.9311     0.6259     1.6634 H       
  75 H75           -1.7352     1.0481     2.9123 H       
@<TRIPOS>BOND
   1    1    2 ar
   2    1    6 ar
   3    1   24 1
   4    2    3 ar
   5    2   15 1
   6    3    4 ar
   7    3   41 1
   8    4    5 ar
   9    4   42 1
  10    5    6 ar
  11    5    9 1
  12    6   38 1
  13    7    8 1
  14    7   10 1
  15    8    9 2
  16    8   13 1
  17    9   43 1
  18   10   11 1
  19   10   21 1
  20   10   22 1
  21   11   12 1
  22   11   44 1
  23   11   45 1
  24   12   13 1
  25   12   25 1
  26   13   14 2
  27   14   27 1
  28   15   16 1
  29   15   19 1
  30   16   17 2
  31   16   46 1
  32   17   18 1
  33   17   20 1
  34   18   19 2
  35   19   47 1
  36   20   48 1
  37   20   49 1
  38   20   50 1
  39   21   22 1
  40   21   51 1
  41   21   52 1
  42   22   53 1
  43   22   54 1
  44   23   24 1
  45   23   38 1
  46   23   55 1
  47   23   56 1
  48   24   39 1
  49   24   40 1
  50   25   26 1
  51   25   28 1
  52   25   31 1
  53   26   27 1
  54   26   57 1
  55   26   58 1
  56   27   37 1
  57   28   29 ar
  58   28   32 ar
  59   29   30 1
  60   29   34 ar
  61   30   31 1
  62   30   59 1
  63   31   60 1
  64   31   61 1
  65   32   33 ar
  66   32   62 1
  67   33   35 ar
  68   33   63 1
  69   34   35 ar
  70   34   64 1
  71   35   36 1
  72   37   65 1
  73   37   66 1
  74   37   67 1
  75   38   68 1
  76   38   69 1
  77   39   70 1
  78   39   71 1
  79   39   72 1
  80   40   73 1
  81   40   74 1
  82   40   75 1

#	End of record

