#	Name: ASD01916148
#	Creating user name:	WinNT
#	Creation time:	15. 06. 2019 20:06

#	Modifying user name:	WinNT
#	Modification time:	15. 06. 2019 20:06

#	Program:	/corina/corina34_cracker 3.40 0067  02.08.2006

@<TRIPOS>MOLECULE
ASD01916148
  44   47    0    0    0
SMALL
NO_CHARGES


@<TRIPOS>ATOM
   1 C1            -1.5205     0.2459     3.3547 C.ar    
   2 C2            -1.3120    -1.0453     2.9099 C.ar    
   3 C3            -0.0192    -1.5234     2.7531 C.ar    
   4 C4             1.0613    -0.7032     3.0435 C.ar    
   5 C5             0.8475     0.5872     3.4880 C.ar    
   6 C6            -0.4419     1.0614     3.6436 C.ar    
   7 O7             0.1884    -2.7934     2.3160 O.3     
   8 C8             1.5458    -3.2182     2.1780 C.3     
   9 C9             1.5790    -4.6424     1.6866 C.2     
  10 C10            0.4623    -5.4395     1.4044 C.2     
  11 N11            2.6573    -5.3461     1.4445 N.2     
  12 N12            2.2619    -6.6116     1.0029 N.pl3   
  13 C13            0.9092    -6.6412     0.9932 C.2     
  14 C14            3.1282    -7.7244     0.6044 C.3     
  15 C15            2.3240    -9.0285     0.6398 C.3     
  16 N16            1.0253    -8.8148    -0.0166 N.am    
  17 C17            0.0931    -7.8457     0.5876 C.3     
  18 C18            0.6971    -9.4825    -1.1404 C.2     
  19 C19           -0.6573    -9.3420    -1.7145 C.ar    
  20 O20            1.5153   -10.2004    -1.6818 O.2     
  21 C21           -1.7788    -9.3879    -0.8847 C.ar    
  22 C22           -3.1964    -9.0792    -2.7905 C.ar    
  23 C23           -2.0901    -9.0264    -3.6189 C.ar    
  24 C24           -0.8210    -9.1569    -3.0898 C.ar    
  25 C25           -3.0403    -9.2562    -1.4270 C.ar    
  26 Cl26           0.5670    -9.0905    -4.1304 Cl      
  27 H27           -2.5267     0.6201     3.4727 H       
  28 H28           -2.1548    -1.6820     2.6848 H       
  29 H29            2.0687    -1.0732     2.9226 H       
  30 H30            1.6883     1.2261     3.7146 H       
  31 H31           -0.6070     2.0705     3.9912 H       
  32 H32            2.0569    -2.5747     1.4618 H       
  33 H33            2.0462    -3.1555     3.1444 H       
  34 H34           -0.5719    -5.1433     1.4996 H       
  35 H35            3.4994    -7.5530    -0.4061 H       
  36 H36            3.9690    -7.7964     1.2944 H       
  37 H37            2.8734    -9.8095     0.1142 H       
  38 H38            2.1634    -9.3292     1.6752 H       
  39 H39           -0.3807    -8.2835     1.4661 H       
  40 H40           -0.6654    -7.5561    -0.1398 H       
  41 H41           -1.6591    -9.5267     0.1796 H       
  42 H42           -4.1867    -8.9767    -3.2092 H       
  43 H43           -2.2191    -8.8881    -4.6822 H       
  44 H44           -3.9085    -9.2916    -0.7856 H       
@<TRIPOS>BOND
   1    1    2 ar
   2    1    6 ar
   3    1   27 1
   4    2    3 ar
   5    2   28 1
   6    3    4 ar
   7    3    7 1
   8    4    5 ar
   9    4   29 1
  10    5    6 ar
  11    5   30 1
  12    6   31 1
  13    7    8 1
  14    8    9 1
  15    8   32 1
  16    8   33 1
  17    9   10 1
  18    9   11 2
  19   10   13 2
  20   10   34 1
  21   11   12 1
  22   12   13 1
  23   12   14 1
  24   13   17 1
  25   14   15 1
  26   14   35 1
  27   14   36 1
  28   15   16 1
  29   15   37 1
  30   15   38 1
  31   16   17 1
  32   16   18 am
  33   17   39 1
  34   17   40 1
  35   18   19 1
  36   18   20 2
  37   19   21 ar
  38   19   24 ar
  39   21   25 ar
  40   21   41 1
  41   22   23 ar
  42   22   25 ar
  43   22   42 1
  44   23   24 ar
  45   23   43 1
  46   24   26 1
  47   25   44 1

#	End of record

