#	Name: ASD01890395
#	Creating user name:	WinNT
#	Creation time:	15. 06. 2019 19:50

#	Modifying user name:	WinNT
#	Modification time:	15. 06. 2019 19:50

#	Program:	/corina/corina34_cracker 3.40 0067  02.08.2006

@<TRIPOS>MOLECULE
ASD01890395
  50   52    0    0    0
SMALL
NO_CHARGES


@<TRIPOS>ATOM
   1 C1            -0.0184     1.5028     0.0103 C.2     
   2 C2             0.0021    -0.0041     0.0020 C.3     
   3 C3             1.4513    -0.4944    -0.0145 C.3     
   4 C4             1.4720    -2.0242    -0.0229 C.3     
   5 C5             2.8952    -2.5079     0.0848 C.2     
   6 O6             1.0197     2.1211     0.0037 O.2     
   7 O7            -1.1898     2.1580     0.0194 O.3     
   8 C8             2.1430     0.0242    -1.2488 C.ar    
   9 C9             3.2572     0.8334    -1.1283 C.ar    
  10 C10            3.8917     1.3091    -2.2605 C.ar    
  11 C11            3.4123     0.9752    -3.5133 C.ar    
  12 C12            2.2987     0.1652    -3.6339 C.ar    
  13 C13            1.6667    -0.3140    -2.5017 C.ar    
  14 O14            3.8036    -1.7078     0.1608 O.2     
  15 C15            4.4962    -4.3898     0.1971 C.ar    
  16 C16            3.1825    -3.9490     0.0977 C.ar    
  17 C17            2.1236    -4.8745     0.0097 C.ar    
  18 C18            2.3652    -6.2090     0.0202 C.ar    
  19 C19            3.6863    -6.6861     0.1195 C.ar    
  20 C20            3.9565    -8.0627     0.1326 C.ar    
  21 C21            5.2589    -8.4992     0.2311 C.ar    
  22 C22            6.3148    -7.5854     0.3187 C.ar    
  23 C23            6.0816    -6.2466     0.3088 C.ar    
  24 C24            4.7625    -5.7652     0.2084 C.ar    
  25 O25            5.5213    -9.8316     0.2438 O.3     
  26 C26            6.8920   -10.2219     0.3479 C.3     
  27 C27           -0.6736    -0.5106     1.2077 C.1     
  28 N28           -1.1951    -0.9015     2.1382 N.1     
  29 C29           -1.1335     3.6089     0.0270 C.3     
  30 H30           -0.5153    -0.3696    -0.8850 H       
  31 H31            1.9686    -0.1289     0.8726 H       
  32 H32            0.8956    -2.4001     0.8225 H       
  33 H33            1.0338    -2.3884    -0.9521 H       
  34 H34            3.6318     1.0943    -0.1495 H       
  35 H35            4.7618     1.9420    -2.1663 H       
  36 H36            3.9076     1.3475    -4.3979 H       
  37 H37            1.9239    -0.0954    -4.6127 H       
  38 H38            0.7988    -0.9499    -2.5959 H       
  39 H39            5.3060    -3.6780     0.2604 H       
  40 H40            1.1074    -4.5169    -0.0668 H       
  41 H41            1.5434    -6.9065    -0.0473 H       
  42 H42            3.1481    -8.7757     0.0661 H       
  43 H43            7.3289    -7.9489     0.3956 H       
  44 H44            6.9067    -5.5532     0.3779 H       
  45 H45            7.4491    -9.8217    -0.4993 H       
  46 H46            7.3114    -9.8319     1.2753 H       
  47 H47            6.9611   -11.3097     0.3470 H       
  48 H48           -0.6017     3.9472     0.9164 H       
  49 H49           -0.6102     3.9569    -0.8636 H       
  50 H50           -2.1463     4.0118     0.0340 H       
@<TRIPOS>BOND
   1    1    2 1
   2    1    6 2
   3    1    7 1
   4    2    3 1
   5    2   27 1
   6    2   30 1
   7    3    4 1
   8    3    8 1
   9    3   31 1
  10    4    5 1
  11    4   32 1
  12    4   33 1
  13    5   14 2
  14    5   16 1
  15    7   29 1
  16    8    9 ar
  17    8   13 ar
  18    9   10 ar
  19    9   34 1
  20   10   11 ar
  21   10   35 1
  22   11   12 ar
  23   11   36 1
  24   12   13 ar
  25   12   37 1
  26   13   38 1
  27   15   16 ar
  28   15   24 ar
  29   15   39 1
  30   16   17 ar
  31   17   18 ar
  32   17   40 1
  33   18   19 ar
  34   18   41 1
  35   19   20 ar
  36   19   24 ar
  37   20   21 ar
  38   20   42 1
  39   21   22 ar
  40   21   25 1
  41   22   23 ar
  42   22   43 1
  43   23   24 ar
  44   23   44 1
  45   25   26 1
  46   26   45 1
  47   26   46 1
  48   26   47 1
  49   27   28 3
  50   29   48 1
  51   29   49 1
  52   29   50 1

#	End of record

