#	Name: ASD01916281
#	Creating user name:	WinNT
#	Creation time:	15. 06. 2019 20:07

#	Modifying user name:	WinNT
#	Modification time:	15. 06. 2019 20:07

#	Program:	/corina/corina34_cracker 3.40 0067  02.08.2006

@<TRIPOS>MOLECULE
ASD01916281
  38   40    0    0    0
SMALL
NO_CHARGES


@<TRIPOS>ATOM
   1 C1            -0.3031     1.4522    -0.4704 C.ar    
   2 C2            -0.3690     0.0725    -0.5474 C.ar    
   3 C3             0.7511    -0.6921    -0.2848 C.ar    
   4 C4             1.9532    -0.0719     0.0592 C.ar    
   5 C5             2.0176     1.3199     0.1364 C.ar    
   6 C6             0.8889     2.0772    -0.1287 C.ar    
   7 O7             0.9480     3.4328    -0.0546 O.3     
   8 C8             0.4415     4.0338     1.0541 C.ar    
   9 C9             0.4778     5.4146     1.1843 C.ar    
  10 N10           -0.0115     6.0032     2.2576 N.ar    
  11 C11           -0.5511     5.3136     3.2432 C.ar    
  12 C12           -0.1257     3.2733     2.0717 C.ar    
  13 Cl13          -1.8637    -0.7002    -0.9747 Cl      
  14 C14            3.1539    -0.8866     0.3414 C.2     
  15 N15            3.0890    -2.2307     0.2667 N.am    
  16 O16            4.1997    -0.3444     0.6409 O.2     
  17 C17            4.2432    -2.9940     0.4284 C.ar    
  18 C18            4.1919    -4.3697     0.2354 C.ar    
  19 C19            6.5160    -4.4574     0.7510 C.ar    
  20 C20            6.4955    -3.0869     0.9215 C.ar    
  21 N21            5.3802    -2.4017     0.7590 N.ar    
  22 C22            5.3460    -5.1159     0.3988 C.ar    
  23 C23            7.7624    -2.3660     1.3038 C.3     
  24 C24           -0.6240     3.9317     3.1866 C.ar    
  25 F25           -1.1780     3.2338     4.2021 F       
  26 H26           -1.1806     2.0455    -0.6811 H       
  27 H27            0.6966    -1.7690    -0.3454 H       
  28 H28            2.9451     1.8051     0.4025 H       
  29 H29            0.9120     6.0139     0.3978 H       
  30 H30           -0.9410     5.8330     4.1061 H       
  31 H31           -0.1728     2.1969     1.9976 H       
  32 H32            2.2386    -2.6668     0.1003 H       
  33 H33            3.2639    -4.8498    -0.0379 H       
  34 H34            7.4338    -5.0103     0.8861 H       
  35 H35            5.3363    -6.1863     0.2559 H       
  36 H36            8.2955    -2.0651     0.4020 H       
  37 H37            7.5143    -1.4819     1.8912 H       
  38 H38            8.3938    -3.0294     1.8948 H       
@<TRIPOS>BOND
   1    1    2 ar
   2    1    6 ar
   3    1   26 1
   4    2    3 ar
   5    2   13 1
   6    3    4 ar
   7    3   27 1
   8    4    5 ar
   9    4   14 1
  10    5    6 ar
  11    5   28 1
  12    6    7 1
  13    7    8 1
  14    8    9 ar
  15    8   12 ar
  16    9   10 ar
  17    9   29 1
  18   10   11 ar
  19   11   24 ar
  20   11   30 1
  21   12   24 ar
  22   12   31 1
  23   14   15 am
  24   14   16 2
  25   15   17 1
  26   15   32 1
  27   17   18 ar
  28   17   21 ar
  29   18   22 ar
  30   18   33 1
  31   19   20 ar
  32   19   22 ar
  33   19   34 1
  34   20   21 ar
  35   20   23 1
  36   22   35 1
  37   23   36 1
  38   23   37 1
  39   23   38 1
  40   24   25 1

#	End of record

