#	Name: ASD00170261
#	Creating user name:	WinNT
#	Creation time:	15. 06. 2019 18:31

#	Modifying user name:	WinNT
#	Modification time:	15. 06. 2019 18:31

#	Program:	/corina/corina34_cracker 3.40 0067  02.08.2006

@<TRIPOS>MOLECULE
ASD00170261
  28   30    0    0    0
SMALL
NO_CHARGES


@<TRIPOS>ATOM
   1 C1            -0.0383     1.3651    -0.1429 C.2     
   2 C2             0.0053     0.0022    -0.0033 C.2     
   3 C3            -1.3085    -0.6097     0.1740 C.ar    
   4 C4            -2.3376     0.3329     0.1634 C.ar    
   5 S5            -1.6878     1.9504    -0.0555 S.3     
   6 C6            -1.6601    -1.9650     0.3468 C.ar    
   7 C7            -2.9728    -2.3016     0.4951 C.ar    
   8 N8            -3.9225    -1.3826     0.4798 N.ar    
   9 C9            -3.6527    -0.1045     0.3230 C.ar    
  10 N10            1.0640     2.1656    -0.3215 N.pl3   
  11 C11            1.2100    -0.7419    -0.0295 C.2     
  12 C12            1.9173    -1.0488     1.2330 C.ar    
  13 O13            1.6639    -1.1291    -1.0916 O.2     
  14 C14            3.0441    -1.8726     1.2223 C.ar    
  15 C15            3.6994    -2.1553     2.4023 C.ar    
  16 C16            3.2414    -1.6236     3.5965 C.ar    
  17 C17            2.1236    -0.8059     3.6133 C.ar    
  18 C18            1.4639    -0.5112     2.4387 C.ar    
  19 Cl19           4.0714    -1.9839     5.0780 Cl      
  20 H20           -0.8965    -2.7287     0.3611 H       
  21 H21           -3.2419    -3.3392     0.6274 H       
  22 H22           -4.4588     0.6142     0.3164 H       
  23 H23            1.9540     1.7820    -0.2791 H       
  24 H24            0.9523     3.1143    -0.4899 H       
  25 H25            3.4019    -2.2880     0.2918 H       
  26 H26            4.5711    -2.7929     2.3954 H       
  27 H27            1.7706    -0.3947     4.5475 H       
  28 H28            0.5924     0.1265     2.4529 H       
@<TRIPOS>BOND
   1    1    2 2
   2    1   10 1
   3    1    5 1
   4    2    3 1
   5    2   11 1
   6    3    4 ar
   7    3    6 ar
   8    4    5 1
   9    4    9 ar
  10    6    7 ar
  11    6   20 1
  12    7    8 ar
  13    7   21 1
  14    8    9 ar
  15    9   22 1
  16   10   23 1
  17   10   24 1
  18   11   12 1
  19   11   13 2
  20   12   14 ar
  21   12   18 ar
  22   14   15 ar
  23   14   25 1
  24   15   16 ar
  25   15   26 1
  26   16   17 ar
  27   16   19 1
  28   17   18 ar
  29   17   27 1
  30   18   28 1

#	End of record

