#	Name: ASD01840513
#	Creating user name:	WinNT
#	Creation time:	15. 06. 2019 19:37

#	Modifying user name:	WinNT
#	Modification time:	15. 06. 2019 19:37

#	Program:	/corina/corina34_cracker 3.40 0067  02.08.2006

@<TRIPOS>MOLECULE
ASD01840513
  38   41    0    0    0
SMALL
NO_CHARGES


@<TRIPOS>ATOM
   1 C1            -0.0184     1.5028     0.0103 C.3     
   2 C2             0.0021    -0.0041     0.0020 C.ar    
   3 C3             0.0056    -0.6789    -1.2072 C.ar    
   4 C4             0.0247    -2.0580    -1.2101 C.ar    
   5 C5             0.0295    -2.8230    -2.5085 C.3     
   6 C6             0.0402    -2.7383     0.0245 C.ar    
   7 C7             0.0356    -1.9923     1.1986 C.ar    
   8 N8             0.0218    -0.6564     1.1415 N.ar    
   9 S9             0.0572    -3.0501     2.6024 S.3     
  10 C10            0.0726    -4.5039     1.6219 C.ar    
  11 C11            0.0925    -5.8535     1.9916 C.ar    
  12 N12            0.1000    -6.7776     1.0489 N.ar    
  13 C13            0.0891    -6.4445    -0.2282 C.ar    
  14 N14            0.0705    -5.1940    -0.6236 N.ar    
  15 C15            0.0616    -4.1872     0.2683 C.ar    
  16 C16            0.1055    -6.2466     3.4464 C.3     
  17 C17           -1.1261    -7.1028     3.7569 C.3     
  18 C18           -1.0637    -7.5625     5.2159 C.3     
  19 O19            0.1489    -8.2864     5.4343 O.3     
  20 C20            1.3342    -7.5218     5.2053 C.3     
  21 C21            1.3682    -7.0604     3.7460 C.3     
  22 H22            1.0042     1.8801     0.0026 H       
  23 H23           -0.5455     1.8639    -0.8728 H       
  24 H24           -0.5286     1.8543     0.9071 H       
  25 H25           -0.0070    -0.1313    -2.1379 H       
  26 H26            1.0582    -2.9932    -2.8261 H       
  27 H27           -0.4704    -3.7813    -2.3674 H       
  28 H28           -0.4958    -2.2480    -3.2710 H       
  29 H29            0.0962    -7.2273    -0.9722 H       
  30 H30            0.0938    -5.3502     4.0665 H       
  31 H31           -2.0290    -6.5128     3.5992 H       
  32 H32           -1.1394    -7.9732     3.1010 H       
  33 H33           -1.0913    -6.6929     5.8725 H       
  34 H34           -1.9158    -8.2074     5.4305 H       
  35 H35            1.3380    -6.6517     5.8618 H       
  36 H36            2.2096    -8.1374     5.4124 H       
  37 H37            1.4052    -7.9300     3.0898 H       
  38 H38            2.2491    -6.4402     3.5804 H       
@<TRIPOS>BOND
   1    1    2 1
   2    1   22 1
   3    1   23 1
   4    1   24 1
   5    2    8 ar
   6    2    3 ar
   7    3    4 ar
   8    3   25 1
   9    4    5 1
  10    4    6 ar
  11    5   26 1
  12    5   27 1
  13    5   28 1
  14    6   15 1
  15    6    7 ar
  16    7    8 ar
  17    7    9 1
  18    9   10 1
  19   10   15 ar
  20   10   11 ar
  21   11   12 ar
  22   11   16 1
  23   12   13 ar
  24   13   14 ar
  25   13   29 1
  26   14   15 ar
  27   16   21 1
  28   16   17 1
  29   16   30 1
  30   17   18 1
  31   17   31 1
  32   17   32 1
  33   18   19 1
  34   18   33 1
  35   18   34 1
  36   19   20 1
  37   20   21 1
  38   20   35 1
  39   20   36 1
  40   21   37 1
  41   21   38 1

#	End of record

