#	Name: ASD03331059
#	Creating user name:	WinNT
#	Creation time:	15. 06. 2019 20:38

#	Modifying user name:	WinNT
#	Modification time:	15. 06. 2019 20:38

#	Program:	/corina/corina34_cracker 3.40 0067  02.08.2006

@<TRIPOS>MOLECULE
ASD03331059
  69   71    0    0    0
SMALL
NO_CHARGES


@<TRIPOS>ATOM
   1 N1            -1.6373     2.3800    -1.6952 N.pl3   
   2 C2            -1.2698     1.1049    -1.3993 C.2     
   3 C3             0.1436     0.6215    -1.2051 C.3     
   4 N4             0.8526     1.5508    -0.3117 N.3     
   5 C5             1.4833     2.6351    -1.0669 C.3     
   6 C6             0.6464     3.0093    -2.2868 C.3     
   7 C7            -0.7258     3.5189    -1.8376 C.3     
   8 C8            -2.9961     2.3953    -1.8194 C.2     
   9 N9            -3.4511     1.1855    -1.5921 N.2     
  10 C10           -2.4108     0.3652    -1.3269 C.2     
  11 C11           -2.4957    -1.0725    -1.0154 C.2     
  12 O12           -1.4824    -1.7076    -0.7938 O.2     
  13 N13           -3.6962    -1.6838    -0.9762 N.am    
  14 C14            1.8394     0.8397     0.5120 C.3     
  15 C15           -5.0444    -3.6817    -1.2587 C.2     
  16 C16           -3.7806    -3.1132    -0.6665 C.3     
  17 C17           -3.7968    -3.3062     0.8512 C.3     
  18 C18           -4.9200    -2.4647     1.4604 C.3     
  19 O19           -6.1193    -3.1994    -0.9708 O.2     
  20 C20           -4.0327    -4.7828     1.1751 C.3     
  21 C21           -2.4538    -2.8641     1.4358 C.3     
  22 N22           -4.9802    -4.7262    -2.1081 N.am    
  23 C23           -6.2125    -5.3447    -2.6030 C.3     
  24 C24           -6.6486    -4.6501    -3.8946 C.3     
  25 C25           -3.6780    -5.2429    -2.5364 C.3     
  26 C26           -3.2869    -6.4323    -1.6569 C.3     
  27 C27           -3.8188     3.5781    -2.1537 C.ar    
  28 C28           -4.8232     3.4836    -3.1208 C.ar    
  29 C29           -5.5884     4.5929    -3.4278 C.ar    
  30 C30           -5.3615     5.7936    -2.7802 C.ar    
  31 C31           -4.3675     5.8931    -1.8215 C.ar    
  32 C32           -3.5995     4.7911    -1.5011 C.ar    
  33 F33           -5.0453     2.3112    -3.7543 F       
  34 Cl34          -4.0904     7.4055    -1.0155 Cl      
  35 H35            0.1305    -0.3733    -0.7598 H       
  36 H36            0.6514     0.5837    -2.1688 H       
  37 H37            1.5866     3.5078    -0.4220 H       
  38 H38            2.4720     2.3147    -1.3955 H       
  39 H39            1.1564     3.7907    -2.8503 H       
  40 H40            0.5174     2.1321    -2.9208 H       
  41 H41           -1.1197     4.2100    -2.5828 H       
  42 H42           -0.6290     4.0302    -0.8799 H       
  43 H43           -4.5044    -1.1773    -1.1529 H       
  44 H44            2.5270     0.2944    -0.1345 H       
  45 H45            2.3975     1.5584     1.1120 H       
  46 H46            1.3258     0.1384     1.1697 H       
  47 H47           -2.9178    -3.6281    -1.0891 H       
  48 H48           -5.8768    -2.7797     1.0438 H       
  49 H49           -4.9315    -2.6022     2.5416 H       
  50 H50           -4.7520    -1.4127     1.2296 H       
  51 H51           -3.1467    -5.3592     0.9089 H       
  52 H52           -4.2316    -4.8937     2.2410 H       
  53 H53           -4.8878    -5.1475     0.6060 H       
  54 H54           -2.2857    -1.8121     1.2051 H       
  55 H55           -2.4653    -3.0016     2.5171 H       
  56 H56           -1.6536    -3.4636     1.0019 H       
  57 H57           -6.0344    -6.4016    -2.8011 H       
  58 H58           -6.9968    -5.2427    -1.8530 H       
  59 H59           -5.8643    -4.7520    -4.6447 H       
  60 H60           -7.5655    -5.1103    -4.2629 H       
  61 H61           -6.8268    -3.5932    -3.6965 H       
  62 H62           -3.7388    -5.5644    -3.5762 H       
  63 H63           -2.9269    -4.4587    -2.4419 H       
  64 H64           -4.0006    -7.2429    -1.8037 H       
  65 H65           -2.2884    -6.7734    -1.9302 H       
  66 H66           -3.2931    -6.1278    -0.6104 H       
  67 H67           -6.3649     4.5220    -4.1752 H       
  68 H68           -5.9621     6.6575    -3.0235 H       
  69 H69           -2.8278     4.8694    -0.7496 H       
@<TRIPOS>BOND
   1    1    2 1
   2    1    7 1
   3    1    8 1
   4    2    3 1
   5    2   10 2
   6    3    4 1
   7    3   35 1
   8    3   36 1
   9    4    5 1
  10    4   14 1
  11    5    6 1
  12    5   37 1
  13    5   38 1
  14    6    7 1
  15    6   39 1
  16    6   40 1
  17    7   41 1
  18    7   42 1
  19    8    9 2
  20    8   27 1
  21    9   10 1
  22   10   11 1
  23   11   12 2
  24   11   13 am
  25   13   16 1
  26   13   43 1
  27   14   44 1
  28   14   45 1
  29   14   46 1
  30   15   19 2
  31   15   22 am
  32   15   16 1
  33   16   17 1
  34   16   47 1
  35   17   18 1
  36   17   20 1
  37   17   21 1
  38   18   48 1
  39   18   49 1
  40   18   50 1
  41   20   51 1
  42   20   52 1
  43   20   53 1
  44   21   54 1
  45   21   55 1
  46   21   56 1
  47   22   23 1
  48   22   25 1
  49   23   24 1
  50   23   57 1
  51   23   58 1
  52   24   59 1
  53   24   60 1
  54   24   61 1
  55   25   26 1
  56   25   62 1
  57   25   63 1
  58   26   64 1
  59   26   65 1
  60   26   66 1
  61   27   28 ar
  62   27   32 ar
  63   28   29 ar
  64   28   33 1
  65   29   30 ar
  66   29   67 1
  67   30   31 ar
  68   30   68 1
  69   31   32 ar
  70   31   34 1
  71   32   69 1

#	End of record

