#	Name: ASD01418014
#	Creating user name:	WinNT
#	Creation time:	15. 06. 2019 19:20

#	Modifying user name:	WinNT
#	Modification time:	15. 06. 2019 19:20

#	Program:	/corina/corina34_cracker 3.40 0067  02.08.2006

@<TRIPOS>MOLECULE
ASD01418014
  72   76    0    0    0
SMALL
NO_CHARGES


@<TRIPOS>ATOM
   1 O1            -0.0173     1.4223     0.0099 O.3     
   2 C2             0.0021    -0.0041     0.0020 C.3     
   3 C3            -0.2467    -0.5480    -1.4117 C.3     
   4 C4             0.7932    -0.0068    -2.3824 C.3     
   5 N5             0.3762     1.3018    -2.9080 N.pl3   
   6 C6             0.7986     2.5116    -2.4073 C.2     
   7 C7             1.6221     2.6568    -1.1922 C.ar    
   8 C8             1.1939     2.0608     0.0017 C.ar    
   9 C9             2.8210     3.3659    -1.2139 C.ar    
  10 C10            3.5866     3.4465    -0.0675 C.ar    
  11 C11            3.1733     2.8266     1.0988 C.ar    
  12 C12            1.9755     2.1327     1.1360 C.ar    
  13 C13            0.3045     3.5205    -3.1752 C.2     
  14 C14           -0.5012     2.9409    -4.1674 C.ar    
  15 C15           -1.2605     3.5077    -5.2043 C.ar    
  16 C16           -1.9586     2.6479    -6.0068 C.ar    
  17 C17           -1.9256     1.2613    -5.8144 C.ar    
  18 C18           -1.1699     0.6750    -4.7909 C.ar    
  19 C19           -0.4525     1.5342    -3.9706 C.ar    
  20 C20           -2.7080     0.3946    -6.7136 C.2     
  21 O21           -2.6915    -0.8110    -6.5619 O.2     
  22 O22           -3.4419     0.9391    -7.7043 O.3     
  23 N23           -0.1700    -2.0147    -1.3872 N.3     
  24 C24            1.0980    -2.4658    -0.7982 C.3     
  25 C25           -1.3168    -2.5900    -0.6718 C.3     
  26 C26           -1.3385    -4.1059    -0.8783 C.3     
  27 N27           -2.4853    -4.6812    -0.1629 N.3     
  28 C28           -3.7533    -4.2301    -0.7519 C.3     
  29 C29           -2.4086    -6.1480    -0.1384 C.3     
  30 C30            0.5735     4.9921    -2.9933 C.3     
  31 C31            1.2376     5.5488    -4.2542 C.3     
  32 C32            1.5107     7.0429    -4.0696 C.3     
  33 C33            0.1907     7.7759    -3.8223 C.3     
  34 C34           -0.4734     7.2192    -2.5614 C.3     
  35 C35           -0.7465     5.7251    -2.7460 C.3     
  36 H36            0.9737    -0.3511     0.3535 H       
  37 H37           -0.7738    -0.3765     0.6708 H       
  38 H38           -1.2400    -0.2459    -1.7436 H       
  39 H39            1.7466     0.1006    -1.8650 H       
  40 H40            0.9108    -0.7061    -3.2102 H       
  41 H41            3.1495     3.8500    -2.1218 H       
  42 H42            4.5154     3.9974    -0.0813 H       
  43 H43            3.7885     2.8840     1.9846 H       
  44 H44            1.6552     1.6505     2.0477 H       
  45 H45           -1.2915     4.5758    -5.3612 H       
  46 H46           -2.5536     3.0506    -6.8131 H       
  47 H47           -1.1462    -0.3952    -4.6475 H       
  48 H48           -3.9383     0.3304    -8.2683 H       
  49 H49            1.1763    -2.0946     0.2236 H       
  50 H50            1.1286    -3.5553    -0.7923 H       
  51 H51            1.9298    -2.0821    -1.3889 H       
  52 H52           -1.2293    -2.3694     0.3920 H       
  53 H53           -2.2399    -2.1576    -1.0578 H       
  54 H54           -1.4260    -4.3265    -1.9421 H       
  55 H55           -0.4154    -4.5384    -0.4923 H       
  56 H56           -3.8003    -4.5415    -1.7954 H       
  57 H57           -4.5858    -4.6708    -0.2034 H       
  58 H58           -3.8146    -3.1434    -0.6939 H       
  59 H59           -1.4923    -6.4555     0.3656 H       
  60 H60           -3.2696    -6.5479     0.3971 H       
  61 H61           -2.4069    -6.5288    -1.1597 H       
  62 H62            1.2354     5.1377    -2.1396 H       
  63 H63            2.1780     5.0266    -4.4304 H       
  64 H64            0.5757     5.4033    -5.1080 H       
  65 H65            2.1726     7.1885    -3.2159 H       
  66 H66            1.9838     7.4395    -4.9679 H       
  67 H67            0.3852     8.8403    -3.6908 H       
  68 H68           -0.4712     7.6303    -4.6761 H       
  69 H69            0.1885     7.3648    -1.7077 H       
  70 H70           -1.4138     7.7414    -2.3853 H       
  71 H71           -1.4084     5.5795    -3.5998 H       
  72 H72           -1.2196     5.3285    -1.8477 H       
@<TRIPOS>BOND
   1    1    2 1
   2    1    8 1
   3    2    3 1
   4    2   36 1
   5    2   37 1
   6    3    4 1
   7    3   23 1
   8    3   38 1
   9    4    5 1
  10    4   39 1
  11    4   40 1
  12    5    6 1
  13    5   19 1
  14    6    7 1
  15    6   13 2
  16    7    8 ar
  17    7    9 ar
  18    8   12 ar
  19    9   10 ar
  20    9   41 1
  21   10   11 ar
  22   10   42 1
  23   11   12 ar
  24   11   43 1
  25   12   44 1
  26   13   14 1
  27   13   30 1
  28   14   15 ar
  29   14   19 ar
  30   15   16 ar
  31   15   45 1
  32   16   17 ar
  33   16   46 1
  34   17   18 ar
  35   17   20 1
  36   18   19 ar
  37   18   47 1
  38   20   21 2
  39   20   22 1
  40   22   48 1
  41   23   24 1
  42   23   25 1
  43   24   49 1
  44   24   50 1
  45   24   51 1
  46   25   26 1
  47   25   52 1
  48   25   53 1
  49   26   27 1
  50   26   54 1
  51   26   55 1
  52   27   28 1
  53   27   29 1
  54   28   56 1
  55   28   57 1
  56   28   58 1
  57   29   59 1
  58   29   60 1
  59   29   61 1
  60   30   31 1
  61   30   35 1
  62   30   62 1
  63   31   32 1
  64   31   63 1
  65   31   64 1
  66   32   33 1
  67   32   65 1
  68   32   66 1
  69   33   34 1
  70   33   67 1
  71   33   68 1
  72   34   35 1
  73   34   69 1
  74   34   70 1
  75   35   71 1
  76   35   72 1

#	End of record

