#	Name: ASD01814659
#	Creating user name:	WinNT
#	Creation time:	15. 06. 2019 19:32

#	Modifying user name:	WinNT
#	Modification time:	15. 06. 2019 19:32

#	Program:	/corina/corina34_cracker 3.40 0067  02.08.2006

@<TRIPOS>MOLECULE
ASD01814659
  61   65    0    0    0
SMALL
NO_CHARGES


@<TRIPOS>ATOM
   1 C1             0.6957     0.8978    -2.2436 C.2     
   2 N2            -0.4065     1.1357    -3.0238 N.pl3   
   3 N3            -1.2329     0.0102    -2.9443 N.2     
   4 C4            -0.6676    -0.8791    -2.1532 C.2     
   5 C5             0.5353    -0.3684    -1.6943 C.2     
   6 C6            -0.8632    -2.2561    -1.5679 C.3     
   7 N7             0.2980    -2.5512    -0.7229 N.am    
   8 C8             1.1858    -1.3862    -0.7929 C.3     
   9 C9            -0.5198     2.3195    -3.6949 C.2     
  10 C10            0.4659     3.2419    -3.5757 C.2     
  11 C11            1.5781     2.9625    -2.7683 C.2     
  12 N12            1.6661     1.8152    -2.1373 N.2     
  13 C13            0.5113    -3.6807    -0.0192 C.2     
  14 C14           -0.5312    -4.7217     0.0377 C.ar    
  15 O15            1.5636    -3.8412     0.5686 O.2     
  16 C16           -0.1858    -6.0754    -0.0997 C.ar    
  17 C17           -1.1774    -7.0467    -0.0437 C.ar    
  18 C18           -2.4943    -6.6802     0.1457 C.ar    
  19 C19           -2.8383    -5.3448     0.2817 C.ar    
  20 C20           -1.8680    -4.3675     0.2346 C.ar    
  21 N21            1.1401    -6.4416    -0.2911 N.3     
  22 C22            0.3679     4.5570    -4.3051 C.3     
  23 C23            2.6795     3.9817    -2.6293 C.3     
  24 C24           -1.7245     2.5964    -4.5568 C.3     
  25 C25            1.6093    -7.2071     0.7833 C.3     
  26 C26            3.1281    -7.4589     0.6961 C.3     
  27 N27            3.3720    -8.5184    -0.2568 N.3     
  28 C28            3.6656    -8.0367    -1.6258 C.3     
  29 C29            2.7584    -6.8690    -2.0449 C.3     
  30 C30            1.3287    -7.0780    -1.6129 C.3     
  31 C31            4.4263    -9.4233     0.2203 C.3     
  32 H32           -1.7722    -2.2761    -0.9666 H       
  33 H33           -0.9333    -2.9915    -2.3693 H       
  34 H34            2.1514    -1.6804    -1.2042 H       
  35 H35            1.3204    -0.9649     0.2033 H       
  36 H36           -0.9174    -8.0897    -0.1488 H       
  37 H37           -3.2617    -7.4389     0.1878 H       
  38 H38           -3.8720    -5.0688     0.4291 H       
  39 H39           -2.1414    -3.3286     0.3454 H       
  40 H40           -0.1390     5.2861    -3.6730 H       
  41 H41            1.3692     4.9161    -4.5428 H       
  42 H42           -0.1973     4.4199    -5.2269 H       
  43 H43            2.4619     4.6392    -1.7877 H       
  44 H44            3.6270     3.4714    -2.4563 H       
  45 H45            2.7461     4.5715    -3.5435 H       
  46 H46           -2.4984     3.0748    -3.9567 H       
  47 H47           -1.4407     3.2561    -5.3767 H       
  48 H48           -2.1058     1.6584    -4.9605 H       
  49 H49            1.3901    -6.6833     1.7137 H       
  50 H50            1.0911    -8.1660     0.7880 H       
  51 H51            3.6308    -6.5493     0.3675 H       
  52 H52            3.5062    -7.7540     1.6750 H       
  53 H53            4.7045    -7.7095    -1.6693 H       
  54 H54            3.5275    -8.8600    -2.3267 H       
  55 H55            3.1335    -5.9499    -1.5947 H       
  56 H56            2.7893    -6.7683    -3.1298 H       
  57 H57            1.1210    -8.1454    -1.5384 H       
  58 H58            0.6563    -6.6208    -2.3387 H       
  59 H59            4.1534    -9.8142     1.2005 H       
  60 H60            4.5410   -10.2495    -0.4813 H       
  61 H61            5.3668    -8.8775     0.2957 H       
@<TRIPOS>BOND
   1    1    5 2
   2    1   12 1
   3    1    2 1
   4    2    3 1
   5    2    9 1
   6    3    4 2
   7    4    6 1
   8    4    5 1
   9    5    8 1
  10    6    7 1
  11    6   32 1
  12    6   33 1
  13    7    8 1
  14    7   13 am
  15    8   34 1
  16    8   35 1
  17    9   10 2
  18    9   24 1
  19   10   11 1
  20   10   22 1
  21   11   12 2
  22   11   23 1
  23   13   14 1
  24   13   15 2
  25   14   16 ar
  26   14   20 ar
  27   16   17 ar
  28   16   21 1
  29   17   18 ar
  30   17   36 1
  31   18   19 ar
  32   18   37 1
  33   19   20 ar
  34   19   38 1
  35   20   39 1
  36   21   25 1
  37   21   30 1
  38   22   40 1
  39   22   41 1
  40   22   42 1
  41   23   43 1
  42   23   44 1
  43   23   45 1
  44   24   46 1
  45   24   47 1
  46   24   48 1
  47   25   26 1
  48   25   49 1
  49   25   50 1
  50   26   27 1
  51   26   51 1
  52   26   52 1
  53   27   28 1
  54   27   31 1
  55   28   29 1
  56   28   53 1
  57   28   54 1
  58   29   30 1
  59   29   55 1
  60   29   56 1
  61   30   57 1
  62   30   58 1
  63   31   59 1
  64   31   60 1
  65   31   61 1

#	End of record

