#	Name: ASD02038120
#	Creating user name:	WinNT
#	Creation time:	15. 06. 2019 20:16

#	Modifying user name:	WinNT
#	Modification time:	15. 06. 2019 20:16

#	Program:	/corina/corina34_cracker 3.40 0067  02.08.2006

@<TRIPOS>MOLECULE
ASD02038120
  48   50    0    0    0
SMALL
NO_CHARGES


@<TRIPOS>ATOM
   1 C1            -0.0769     1.3264     0.4428 C.ar    
   2 C2             1.0995     2.0474     0.5350 C.ar    
   3 C3            -0.0395    -0.0427     0.2527 C.ar    
   4 C4             1.1751    -0.6950     0.1543 C.ar    
   5 C5             2.3590     0.0272     0.2466 C.ar    
   6 C6             2.3168     1.4022     0.4375 C.ar    
   7 N7             3.5890    -0.6288     0.1481 N.3     
   8 C8             7.5172    -2.0011     0.8781 C.3     
   9 C9             7.8183    -2.7208     2.1943 C.3     
  10 C10            9.1060    -3.5339     2.0479 C.3     
  11 O11            7.9789    -1.7579     3.2378 O.3     
  12 O12            9.3252    -4.2970     3.2361 O.3     
  13 C13           10.4358    -5.0809     3.2703 C.ar    
  14 C14           10.7090    -5.8478     4.3932 C.ar    
  15 C15           11.8373    -6.6440     4.4280 C.ar    
  16 C16           12.6966    -6.6769     3.3398 C.ar    
  17 C17           12.4229    -5.9107     2.2165 C.ar    
  18 C18           11.2924    -5.1178     2.1800 C.ar    
  19 O19           13.8078    -7.4600     3.3744 O.3     
  20 C20            3.8053    -1.5179     1.2980 C.3     
  21 C21            5.1225    -2.2752     1.1133 C.3     
  22 N22            6.2242    -1.3115     0.9817 N.3     
  23 C23            6.0079    -0.4224    -0.1682 C.3     
  24 C24            4.6907     0.3348     0.0165 C.3     
  25 Cl25           1.2217    -2.4140    -0.0838 Cl      
  26 H26           -1.0272     1.8332     0.5239 H       
  27 H27            1.0664     3.1167     0.6831 H       
  28 H28           -0.9601    -0.6029     0.1814 H       
  29 H29            3.2349     1.9663     0.5094 H       
  30 H30            8.3021    -1.2727     0.6745 H       
  31 H31            7.4772    -2.7283     0.0672 H       
  32 H32            6.9928    -3.3888     2.4402 H       
  33 H33            9.0159    -4.2069     1.1953 H       
  34 H34            9.9465    -2.8580     1.8901 H       
  35 H35            8.6976    -1.1291     3.0856 H       
  36 H36           10.0399    -5.8221     5.2405 H       
  37 H37           12.0504    -7.2406     5.3026 H       
  38 H38           13.0921    -5.9363     1.3692 H       
  39 H39           11.0792    -4.5212     1.3054 H       
  40 H40           13.6676    -8.3565     3.0402 H       
  41 H41            3.8514    -0.9258     2.2119 H       
  42 H42            2.9830    -2.2301     1.3667 H       
  43 H43            5.2993    -2.9138     1.9787 H       
  44 H44            5.0664    -2.8884     0.2138 H       
  45 H45            6.8302     0.2898    -0.2369 H       
  46 H46            5.9619    -1.0146    -1.0821 H       
  47 H47            4.5139     0.9734    -0.8489 H       
  48 H48            4.7468     0.9480     0.9159 H       
@<TRIPOS>BOND
   1    1    2 ar
   2    1    3 ar
   3    1   26 1
   4    2    6 ar
   5    2   27 1
   6    3    4 ar
   7    3   28 1
   8    4    5 ar
   9    4   25 1
  10    5    6 ar
  11    5    7 1
  12    6   29 1
  13    7   20 1
  14    7   24 1
  15    8    9 1
  16    8   22 1
  17    8   30 1
  18    8   31 1
  19    9   11 1
  20    9   10 1
  21    9   32 1
  22   10   12 1
  23   10   33 1
  24   10   34 1
  25   11   35 1
  26   12   13 1
  27   13   14 ar
  28   13   18 ar
  29   14   15 ar
  30   14   36 1
  31   15   16 ar
  32   15   37 1
  33   16   17 ar
  34   16   19 1
  35   17   18 ar
  36   17   38 1
  37   18   39 1
  38   19   40 1
  39   20   21 1
  40   20   41 1
  41   20   42 1
  42   21   22 1
  43   21   43 1
  44   21   44 1
  45   22   23 1
  46   23   24 1
  47   23   45 1
  48   23   46 1
  49   24   47 1
  50   24   48 1

#	End of record

