#	Name: ASD01231359
#	Creating user name:	WinNT
#	Creation time:	15. 06. 2019 19:15

#	Modifying user name:	WinNT
#	Modification time:	15. 06. 2019 19:15

#	Program:	/corina/corina34_cracker 3.40 0067  02.08.2006

@<TRIPOS>MOLECULE
ASD01231359
  57   60    0    0    0
SMALL
NO_CHARGES


@<TRIPOS>ATOM
   1 C1            -0.0162     1.3436     0.0094 C.2     
   2 N2             0.0021    -0.0041     0.0020 N.am    
   3 O3             1.0277     1.9654     0.0028 O.2     
   4 O4            -1.1912     2.0008     0.0186 O.3     
   5 C5            -1.1349     3.4517     0.0262 C.3     
   6 C6            -2.3702     4.0394    -0.6886 C.3     
   7 C7            -3.3587     4.2502     0.4780 C.3     
   8 C8            -2.4907     4.4317     1.7047 C.ar    
   9 C9            -2.7949     4.9568     2.9497 C.ar    
  10 C10           -1.8261     5.0232     3.9316 C.ar    
  11 C11           -0.5480     4.5643     3.6719 C.ar    
  12 C12           -0.2428     4.0403     2.4312 C.ar    
  13 C13           -1.2130     3.9729     1.4452 C.ar    
  14 C14           -2.1615     5.5958     5.2846 C.3     
  15 C15           -2.6458     4.4933     6.1907 C.ar    
  16 C16           -1.7437     3.7910     6.9681 C.ar    
  17 C17           -2.1878     2.7798     7.7991 C.ar    
  18 C18           -3.5344     2.4708     7.8531 C.ar    
  19 C19           -4.4363     3.1735     7.0766 C.ar    
  20 C20           -3.9925     4.1879     6.2486 C.ar    
  21 C21           -5.9040     2.8364     7.1351 C.3     
  22 F22           -6.1059     1.7875     8.0386 F       
  23 F23           -6.6240     3.9596     7.5562 F       
  24 F24           -6.3446     2.4492     5.8650 F       
  25 C25           -1.2044     2.0137     8.6458 C.3     
  26 O26           -1.0576     2.6628     9.9103 O.3     
  27 C27            1.2806    -0.7192    -0.0140 C.3     
  28 C28            1.0253    -2.2044    -0.0196 C.ar    
  29 C29            0.8968    -2.8792    -1.2192 C.ar    
  30 C30            0.6626    -4.2415    -1.2243 C.ar    
  31 C31            0.5574    -4.9292    -0.0297 C.ar    
  32 C32            0.6868    -4.2546     1.1699 C.ar    
  33 C33            0.9253    -2.8930     1.1749 C.ar    
  34 H34           -0.8313    -0.5005     0.0073 H       
  35 H35           -0.2198     3.7966    -0.4551 H       
  36 H36           -2.1265     4.9883    -1.1662 H       
  37 H37           -2.7718     3.3313    -1.4135 H       
  38 H38           -3.9618     5.1417     0.3062 H       
  39 H39           -3.9991     3.3759     0.5938 H       
  40 H40           -3.7930     5.3158     3.1532 H       
  41 H41            0.2110     4.6158     4.4386 H       
  42 H42            0.7558     3.6820     2.2291 H       
  43 H43           -1.2719     6.0556     5.7153 H       
  44 H44           -2.9433     6.3477     5.1773 H       
  45 H45           -0.6918     4.0324     6.9259 H       
  46 H46           -3.8814     1.6802     8.5019 H       
  47 H47           -4.6978     4.7395     5.6446 H       
  48 H48           -1.5703     0.9984     8.7988 H       
  49 H49           -0.2391     1.9797     8.1406 H       
  50 H50           -0.4378     2.2232    10.5085 H       
  51 H51            1.8400    -0.4434    -0.9079 H       
  52 H52            1.8570    -0.4529     0.8719 H       
  53 H53            0.9790    -2.3419    -2.1525 H       
  54 H54            0.5615    -4.7686    -2.1615 H       
  55 H55            0.3738    -5.9935    -0.0337 H       
  56 H56            0.6043    -4.7918     2.1031 H       
  57 H57            1.0301    -2.3666     2.1121 H       
@<TRIPOS>BOND
   1    1    2 am
   2    1    3 2
   3    1    4 1
   4    2   27 1
   5    2   34 1
   6    4    5 1
   7    5    6 1
   8    5   13 1
   9    5   35 1
  10    6    7 1
  11    6   36 1
  12    6   37 1
  13    7    8 1
  14    7   38 1
  15    7   39 1
  16    8    9 ar
  17    8   13 ar
  18    9   10 ar
  19    9   40 1
  20   10   11 ar
  21   10   14 1
  22   11   12 ar
  23   11   41 1
  24   12   13 ar
  25   12   42 1
  26   14   15 1
  27   14   43 1
  28   14   44 1
  29   15   16 ar
  30   15   20 ar
  31   16   17 ar
  32   16   45 1
  33   17   18 ar
  34   17   25 1
  35   18   19 ar
  36   18   46 1
  37   19   20 ar
  38   19   21 1
  39   20   47 1
  40   21   22 1
  41   21   23 1
  42   21   24 1
  43   25   26 1
  44   25   48 1
  45   25   49 1
  46   26   50 1
  47   27   28 1
  48   27   51 1
  49   27   52 1
  50   28   29 ar
  51   28   33 ar
  52   29   30 ar
  53   29   53 1
  54   30   31 ar
  55   30   54 1
  56   31   32 ar
  57   31   55 1
  58   32   33 ar
  59   32   56 1
  60   33   57 1

#	End of record

