#	Name: ASD01028330
#	Creating user name:	WinNT
#	Creation time:	15. 06. 2019 18:56

#	Modifying user name:	WinNT
#	Modification time:	15. 06. 2019 18:56

#	Program:	/corina/corina34_cracker 3.40 0067  02.08.2006

@<TRIPOS>MOLECULE
ASD01028330
  56   61    0    0    0
SMALL
NO_CHARGES


@<TRIPOS>ATOM
   1 C1            -0.1160     1.2163     0.1431 C.ar    
   2 C2            -0.0760    -0.1990     0.1603 C.ar    
   3 C3             1.1007     1.9336     0.0989 C.ar    
   4 C4             2.2799     1.2102     0.0745 C.ar    
   5 C5             2.2371    -0.1780     0.0937 C.ar    
   6 N6             1.1015    -0.8346     0.1351 N.ar    
   7 O7             1.1122     3.2892     0.0806 O.3     
   8 C8             2.3905     3.9266     0.0358 C.3     
   9 C9             2.2058     5.4222     0.0212 C.2     
  10 N10            2.1391     6.2277     1.1035 N.pl3   
  11 C11            1.9681     7.5021     0.6179 C.2     
  12 N12            1.9401     7.4085    -0.7016 N.2     
  13 N13            2.0867     6.1760    -1.0433 N.2     
  14 N14            2.2070     6.0064     2.4805 N.2     
  15 C15            2.1083     7.0114     3.3231 C.2     
  16 C16            1.9322     8.3313     2.8551 C.2     
  17 C17            1.8636     8.5776     1.5205 C.2     
  18 C18            2.1825     6.7548     4.7815 C.ar    
  19 C19            2.0791     7.8121     5.6838 C.ar    
  20 C20            2.1506     7.5710     7.0386 C.ar    
  21 C21            2.3261     6.2743     7.5156 C.ar    
  22 C22            2.4254     5.2161     6.6171 C.ar    
  23 C23            2.3501     5.4548     5.2553 C.ar    
  24 C24           -1.2823    -0.9166     0.2042 C.ar    
  25 C25           -2.4781    -0.2359     0.2297 C.ar    
  26 C26           -2.5059     1.1620     0.2123 C.ar    
  27 O27           -3.6449    -0.9301     0.2718 O.3     
  28 C28           -1.3513     1.8807     0.1756 C.ar    
  29 C29           -4.8530    -0.1673     0.2966 C.3     
  30 N30            2.4042     6.0777     8.8962 N.3     
  31 O31            2.5854     3.9339     7.0471 O.3     
  32 C32            1.5235     7.0109     9.6115 C.3     
  33 C33            2.1175     4.6893     9.2747 C.3     
  34 C34            2.9794     3.7585     8.4119 C.3     
  35 H35            3.2298     1.7229     0.0403 H       
  36 H36            3.1638    -0.7323     0.0743 H       
  37 H37            2.9700     3.6406     0.9135 H       
  38 H38            2.9194     3.6170    -0.8656 H       
  39 H39            1.8524     9.1467     3.5588 H       
  40 H40            1.7288     9.5856     1.1568 H       
  41 H41            1.9434     8.8203     5.3211 H       
  42 H42            2.0703     8.3927     7.7348 H       
  43 H43            2.4299     4.6333     4.5587 H       
  44 H44           -1.2718    -1.9965     0.2176 H       
  45 H45           -3.4549     1.6773     0.2328 H       
  46 H46           -1.3858     2.9601     0.1625 H       
  47 H47           -4.8608     0.4724     1.1791 H       
  48 H48           -4.9115     0.4498    -0.6000 H       
  49 H49           -5.7083    -0.8423     0.3295 H       
  50 H50            0.5130     6.9373     9.2094 H       
  51 H51            1.5118     6.7591    10.6719 H       
  52 H52            1.8921     8.0287     9.4837 H       
  53 H53            2.3584     4.5398    10.3272 H       
  54 H54            1.0627     4.4739     9.1040 H       
  55 H55            2.8183     2.7231     8.7121 H       
  56 H56            4.0318     4.0174     8.5281 H       
@<TRIPOS>BOND
   1    1    2 ar
   2    1    3 ar
   3    1   28 ar
   4    2   24 ar
   5    2    6 ar
   6    3    4 ar
   7    3    7 1
   8    4    5 ar
   9    4   35 1
  10    5    6 ar
  11    5   36 1
  12    7    8 1
  13    8    9 1
  14    8   37 1
  15    8   38 1
  16    9   10 1
  17    9   13 2
  18   10   11 1
  19   10   14 1
  20   11   12 2
  21   11   17 1
  22   12   13 1
  23   14   15 2
  24   15   16 1
  25   15   18 1
  26   16   17 2
  27   16   39 1
  28   17   40 1
  29   18   19 ar
  30   18   23 ar
  31   19   20 ar
  32   19   41 1
  33   20   21 ar
  34   20   42 1
  35   21   22 ar
  36   21   30 1
  37   22   23 ar
  38   22   31 1
  39   23   43 1
  40   24   25 ar
  41   24   44 1
  42   25   26 ar
  43   25   27 1
  44   26   28 ar
  45   26   45 1
  46   27   29 1
  47   28   46 1
  48   29   47 1
  49   29   48 1
  50   29   49 1
  51   30   32 1
  52   30   33 1
  53   31   34 1
  54   32   50 1
  55   32   51 1
  56   32   52 1
  57   33   34 1
  58   33   53 1
  59   33   54 1
  60   34   55 1
  61   34   56 1

#	End of record

