#	Name: ASD01238019
#	Creating user name:	WinNT
#	Creation time:	15. 06. 2019 19:15

#	Modifying user name:	WinNT
#	Modification time:	15. 06. 2019 19:15

#	Program:	/corina/corina34_cracker 3.40 0067  02.08.2006

@<TRIPOS>MOLECULE
ASD01238019
  56   59    0    0    0
SMALL
NO_CHARGES


@<TRIPOS>ATOM
   1 S1            -0.0931     1.8734    -0.7976 S.o2    
   2 N2            -0.2252     0.2110    -0.8485 N.am    
   3 C3             0.8642    -0.5000    -1.5482 C.3     
   4 N4             2.1305    -0.1722    -0.8980 N.pl3   
   5 C5             2.5311     1.1305    -0.6136 C.ar    
   6 C6             1.6258     2.1797    -0.5223 C.ar    
   7 C7             3.8859     1.3872    -0.4101 C.ar    
   8 C8             4.3137     2.6645    -0.1132 C.ar    
   9 C9             3.4025     3.6998    -0.0150 C.ar    
  10 C10            2.0566     3.4544    -0.2213 C.ar    
  11 O11           -0.3906     2.3488    -2.1032 O.2     
  12 O12           -0.7788     2.3040     0.3702 O.2     
  13 S13            3.9541     5.3278     0.3726 S.o2    
  14 O14            2.8034     6.1607     0.3354 O.2     
  15 O15            4.7894     5.2069     1.5158 O.2     
  16 N16            4.9305     5.8233    -0.8698 N.am    
  17 C17            4.3573     6.3832    -2.1032 C.3     
  18 C18            5.0514     7.7166    -2.4008 C.3     
  19 N19            6.5058     7.5124    -2.4287 N.3     
  20 C20            7.0077     7.0748    -1.1193 C.3     
  21 C21            6.3941     5.7208    -0.7666 C.3     
  22 C22            7.1993     8.7264    -2.8794 C.3     
  23 C23            5.7805     2.9326     0.1055 C.3     
  24 C24            0.9090    -0.0571    -3.0120 C.3     
  25 C25            2.0411    -0.7923    -3.7507 C.3     
  26 C26            1.3758    -1.6008    -4.8836 C.3     
  27 C27            0.0411    -0.8598    -5.1458 C.3     
  28 C28           -0.4047    -0.4445    -3.7218 C.3     
  29 H29           -0.9707    -0.2592    -0.4435 H       
  30 H30            0.6929    -1.5751    -1.4941 H       
  31 H31            2.7228    -0.8997    -0.6513 H       
  32 H32            4.6031     0.5831    -0.4848 H       
  33 H33            1.3431     4.2617    -0.1469 H       
  34 H34            4.5218     5.6922    -2.9299 H       
  35 H35            3.2885     6.5489    -1.9679 H       
  36 H36            4.7182     8.0920    -3.3684 H       
  37 H37            4.8003     8.4387    -1.6240 H       
  38 H38            8.0933     6.9848    -1.1574 H       
  39 H39            6.7293     7.8059    -0.3602 H       
  40 H40            6.6712     5.4488     0.2519 H       
  41 H41            6.7581     4.9649    -1.4624 H       
  42 H42            6.9746     9.5473    -2.1983 H       
  43 H43            8.2745     8.5477    -2.8907 H       
  44 H44            6.8634     8.9852    -3.8835 H       
  45 H45            6.2612     3.1270    -0.8532 H       
  46 H46            5.8983     3.8009     0.7538 H       
  47 H47            6.2427     2.0638     0.5742 H       
  48 H48            1.0626     1.0204    -3.0712 H       
  49 H49            2.7436    -0.0715    -4.1692 H       
  50 H50            2.5585    -1.4646    -3.0663 H       
  51 H51            1.9999    -1.5902    -5.7772 H       
  52 H52            1.1867    -2.6247    -4.5613 H       
  53 H53            0.2030     0.0180    -5.7713 H       
  54 H54           -0.6897    -1.5293    -5.5995 H       
  55 H55           -0.8813    -1.2817    -3.2119 H       
  56 H56           -1.0800     0.4099    -3.7675 H       
@<TRIPOS>BOND
   1    1    2 am
   2    1    6 1
   3    1   11 2
   4    1   12 2
   5    2    3 1
   6    2   29 1
   7    3    4 1
   8    3   24 1
   9    3   30 1
  10    4    5 1
  11    4   31 1
  12    5    6 ar
  13    5    7 ar
  14    6   10 ar
  15    7    8 ar
  16    7   32 1
  17    8    9 ar
  18    8   23 1
  19    9   10 ar
  20    9   13 1
  21   10   33 1
  22   13   14 2
  23   13   15 2
  24   13   16 am
  25   16   17 1
  26   16   21 1
  27   17   18 1
  28   17   34 1
  29   17   35 1
  30   18   19 1
  31   18   36 1
  32   18   37 1
  33   19   20 1
  34   19   22 1
  35   20   21 1
  36   20   38 1
  37   20   39 1
  38   21   40 1
  39   21   41 1
  40   22   42 1
  41   22   43 1
  42   22   44 1
  43   23   45 1
  44   23   46 1
  45   23   47 1
  46   24   25 1
  47   24   28 1
  48   24   48 1
  49   25   26 1
  50   25   49 1
  51   25   50 1
  52   26   27 1
  53   26   51 1
  54   26   52 1
  55   27   28 1
  56   27   53 1
  57   27   54 1
  58   28   55 1
  59   28   56 1

#	End of record

