#	Name: ASD01916051
#	Creating user name:	WinNT
#	Creation time:	15. 06. 2019 20:06

#	Modifying user name:	WinNT
#	Modification time:	15. 06. 2019 20:06

#	Program:	/corina/corina34_cracker 3.40 0067  02.08.2006

@<TRIPOS>MOLECULE
ASD01916051
  42   44    0    0    0
SMALL
NO_CHARGES


@<TRIPOS>ATOM
   1 C1            -0.0169     1.3974     0.0097 C.ar    
   2 C2             0.0021    -0.0041     0.0020 C.ar    
   3 C3            -1.2070    -0.6758     0.0095 C.ar    
   4 C4            -2.3852     0.0496     0.0241 C.ar    
   5 C5            -3.7040    -0.6796     0.0323 C.3     
   6 C6             1.2059     2.1425     0.0021 C.1     
   7 C7             2.2084     2.7534    -0.0042 C.1     
   8 C8             3.4313     3.4985    -0.0119 C.ar    
   9 C9             3.4123     4.8995    -0.0042 C.ar    
  10 N10            5.7881     3.5268    -0.0275 N.ar    
  11 C11            4.6217     5.5715    -0.0117 C.ar    
  12 N12           -2.3736     1.3687     0.0316 N.ar    
  13 C13           -1.2496     2.0547     0.0192 C.ar    
  14 C14            4.6643     2.8410    -0.0213 C.ar    
  15 C15            5.7996     4.8463    -0.0263 C.ar    
  16 C16           -4.1297    -1.0442    -1.4088 C.3     
  17 C17           -3.5658    -2.0160     0.7276 C.2     
  18 N18           -4.1791    -2.9748     0.0125 N.am    
  19 C19           -4.7922    -2.4243    -1.2019 C.3     
  20 C20           -4.2295    -4.3877     0.3964 C.3     
  21 O21           -2.9854    -2.1962     1.7772 O.2     
  22 C22           -6.3012    -2.2633    -1.0070 C.3     
  23 C23           -4.5060    -3.3337    -2.3985 C.3     
  24 H24            0.9365    -0.5454    -0.0098 H       
  25 H25           -1.2312    -1.7555     0.0035 H       
  26 H26           -4.4709    -0.0737     0.5149 H       
  27 H27            2.4778     5.4409     0.0069 H       
  28 H28            4.6460     6.6512    -0.0064 H       
  29 H29           -1.2809     3.1342     0.0262 H       
  30 H30            4.6957     1.7614    -0.0232 H       
  31 H31            6.7447     5.3689    -0.0316 H       
  32 H32           -4.8469    -0.3217    -1.7983 H       
  33 H33           -3.2620    -1.1223    -2.0639 H       
  34 H34           -3.6986    -4.5276     1.3381 H       
  35 H35           -5.2685    -4.6949     0.5160 H       
  36 H36           -3.7590    -4.9920    -0.3792 H       
  37 H37           -6.4898    -1.6064    -0.1579 H       
  38 H38           -6.7395    -1.8300    -1.9060 H       
  39 H39           -6.7493    -3.2389    -0.8182 H       
  40 H40           -4.9410    -4.3171    -2.2198 H       
  41 H41           -4.9445    -2.9003    -3.2974 H       
  42 H42           -3.4285    -3.4317    -2.5309 H       
@<TRIPOS>BOND
   1    1    2 ar
   2    1    6 1
   3    1   13 ar
   4    2    3 ar
   5    2   24 1
   6    3    4 ar
   7    3   25 1
   8    4   12 ar
   9    4    5 1
  10    5   16 1
  11    5   17 1
  12    5   26 1
  13    6    7 3
  14    7    8 1
  15    8    9 ar
  16    8   14 ar
  17    9   11 ar
  18    9   27 1
  19   10   15 ar
  20   10   14 ar
  21   11   15 ar
  22   11   28 1
  23   12   13 ar
  24   13   29 1
  25   14   30 1
  26   15   31 1
  27   16   19 1
  28   16   32 1
  29   16   33 1
  30   17   18 am
  31   17   21 2
  32   18   19 1
  33   18   20 1
  34   19   22 1
  35   19   23 1
  36   20   34 1
  37   20   35 1
  38   20   36 1
  39   22   37 1
  40   22   38 1
  41   22   39 1
  42   23   40 1
  43   23   41 1
  44   23   42 1

#	End of record

