#	Name: ASD04590766
#	Creating user name:	WinNT
#	Creation time:	15. 06. 2019 20:51

#	Modifying user name:	WinNT
#	Modification time:	15. 06. 2019 20:51

#	Program:	/corina/corina34_cracker 3.40 0067  02.08.2006

@<TRIPOS>MOLECULE
ASD04590766
  68   73    0    0    0
SMALL
NO_CHARGES


@<TRIPOS>ATOM
   1 N1            -2.3775    -2.7051     0.0257 N.ar    
   2 C2            -1.2111    -2.0731     0.0052 C.ar    
   3 N3            -0.0569    -2.7194    -0.0183 N.ar    
   4 C4            -0.0253    -4.0488    -0.0221 C.ar    
   5 C5            -1.2479    -4.7498    -0.0006 C.ar    
   6 C6            -2.4363    -4.0267     0.0237 C.ar    
   7 N7             0.9986    -4.9631    -0.0433 N.pl3   
   8 C8             0.4957    -6.2526    -0.0366 C.ar    
   9 C9            -0.9085    -6.1784    -0.0100 C.ar    
  10 C10            1.0922    -7.5068    -0.0496 C.ar    
  11 N11            0.3561    -8.5993    -0.0377 N.ar    
  12 C12           -0.9646    -8.5641    -0.0128 C.ar    
  13 C13           -1.6427    -7.3638     0.0016 C.ar    
  14 C14            2.4231    -4.6219    -0.0701 C.3     
  15 N15           -1.2014    -0.6877     0.0079 N.pl3   
  16 C16           -2.3987     0.0169    -0.0810 C.ar    
  17 N17           -3.5333    -0.6388    -0.2693 N.ar    
  18 C18           -4.6895    -0.0094    -0.3592 C.ar    
  19 C19           -4.7566     1.3659    -0.2591 C.ar    
  20 C20           -3.5890     2.0911    -0.0613 C.ar    
  21 C21           -2.3929     1.4031     0.0345 C.ar    
  22 S22           -6.3079     2.1925    -0.3816 S.o     
  23 N23           -6.0217     3.6361     0.3776 N.am    
  24 C24            2.7431    -3.7936    -1.3268 C.3     
  25 C25            3.2808    -2.4344    -0.8336 C.3     
  26 C26            3.8171    -2.7316     0.5888 C.3     
  27 C27            2.7775    -3.7371     1.1429 C.3     
  28 C28           -6.1454     3.7518     1.8371 C.3     
  29 C29           -7.0968     4.9079     2.1612 C.3     
  30 C30           -6.6013     6.1801     1.4696 C.3     
  31 C31           -6.5957     5.9696    -0.0463 C.3     
  32 C32           -5.6333     4.8240    -0.3948 C.3     
  33 O33           -6.3673     2.5590    -1.7533 O.2     
  34 N34           -7.4928     7.2984     1.8051 N.3     
  35 C35           -6.9825     8.5616     1.2555 C.3     
  36 C36           -8.8621     7.0375     1.3414 C.3     
  37 H37           -3.3891    -4.5349     0.0405 H       
  38 H38            2.1690    -7.5871    -0.0700 H       
  39 H39           -1.5212    -9.4895    -0.0040 H       
  40 H40           -2.7223    -7.3420     0.0221 H       
  41 H41            3.0247    -5.5308    -0.0587 H       
  42 H42           -0.3603    -0.2087     0.0717 H       
  43 H43           -5.5950    -0.5774    -0.5133 H       
  44 H44           -3.6148     3.1677     0.0202 H       
  45 H45           -1.4659     1.9356     0.1882 H       
  46 H46            3.5007    -4.3000    -1.9248 H       
  47 H47            1.8386    -3.6455    -1.9167 H       
  48 H48            4.0863    -2.0856    -1.4798 H       
  49 H49            2.4777    -1.6986    -0.7924 H       
  50 H50            4.8068    -3.1860     0.5414 H       
  51 H51            3.8361    -1.8239     1.1920 H       
  52 H52            1.8930    -3.2118     1.5033 H       
  53 H53            3.2156    -4.3390     1.9391 H       
  54 H54           -6.5462     2.8236     2.2445 H       
  55 H55           -5.1662     3.9514     2.2721 H       
  56 H56           -8.0979     4.6662     1.8043 H       
  57 H57           -7.1227     5.0664     3.2393 H       
  58 H58           -5.5905     6.4074     1.8083 H       
  59 H59           -7.6016     5.7178    -0.3823 H       
  60 H60           -6.2651     6.8837    -0.5393 H       
  61 H61           -4.6135     5.1138    -0.1415 H       
  62 H62           -5.6987     4.6032    -1.4602 H       
  63 H63           -6.9126     8.4838     0.1705 H       
  64 H64           -7.6614     9.3728     1.5185 H       
  65 H65           -5.9951     8.7654     1.6696 H       
  66 H66           -9.2410     6.1334     1.8180 H       
  67 H67           -9.5010     7.8811     1.6026 H       
  68 H68           -8.8602     6.9045     0.2595 H       
@<TRIPOS>BOND
   1    1    2 ar
   2    1    6 ar
   3    2    3 ar
   4    2   15 1
   5    3    4 ar
   6    4    5 ar
   7    4    7 1
   8    5    6 ar
   9    5    9 1
  10    6   37 1
  11    7    8 1
  12    7   14 1
  13    8    9 ar
  14    8   10 ar
  15    9   13 ar
  16   10   11 ar
  17   10   38 1
  18   11   12 ar
  19   12   13 ar
  20   12   39 1
  21   13   40 1
  22   14   24 1
  23   14   27 1
  24   14   41 1
  25   15   16 1
  26   15   42 1
  27   16   17 ar
  28   16   21 ar
  29   17   18 ar
  30   18   19 ar
  31   18   43 1
  32   19   20 ar
  33   19   22 1
  34   20   21 ar
  35   20   44 1
  36   21   45 1
  37   22   33 2
  38   22   23 am
  39   23   28 1
  40   23   32 1
  41   24   25 1
  42   24   46 1
  43   24   47 1
  44   25   26 1
  45   25   48 1
  46   25   49 1
  47   26   27 1
  48   26   50 1
  49   26   51 1
  50   27   52 1
  51   27   53 1
  52   28   29 1
  53   28   54 1
  54   28   55 1
  55   29   30 1
  56   29   56 1
  57   29   57 1
  58   30   31 1
  59   30   34 1
  60   30   58 1
  61   31   32 1
  62   31   59 1
  63   31   60 1
  64   32   61 1
  65   32   62 1
  66   34   35 1
  67   34   36 1
  68   35   63 1
  69   35   64 1
  70   35   65 1
  71   36   66 1
  72   36   67 1
  73   36   68 1

#	End of record

