#	Name: ASD01913490
#	Creating user name:	WinNT
#	Creation time:	15. 06. 2019 20:01

#	Modifying user name:	WinNT
#	Modification time:	15. 06. 2019 20:01

#	Program:	/corina/corina34_cracker 3.40 0067  02.08.2006

@<TRIPOS>MOLECULE
ASD01913490
  33   35    0    0    0
SMALL
NO_CHARGES


@<TRIPOS>ATOM
   1 C1            -0.3482    -0.7035    -2.1278 C.ar    
   2 C2            -0.7955    -0.0355    -0.9924 C.ar    
   3 C3            -0.7658     1.3554    -0.9913 C.ar    
   4 N4            -0.3164     1.9887    -2.0622 N.ar    
   5 C5             0.0990     1.3198    -3.1190 C.ar    
   6 N6             0.0865     0.0026    -3.1585 N.ar    
   7 C7            -1.2346    -2.0815     0.0316 C.ar    
   8 C8            -0.0415    -2.7771     0.1687 C.ar    
   9 N9            -0.0179    -4.0944     0.1211 N.ar    
  10 C10           -1.1142    -4.8037    -0.0570 C.ar    
  11 C11           -2.3480    -4.1815    -0.2029 C.ar    
  12 C12           -2.4144    -2.7923    -0.1580 C.ar    
  13 N13           -3.5072    -4.9411    -0.3925 N.am    
  14 C14           -4.6722    -4.5405     0.1541 C.2     
  15 O15           -1.2503    -0.7239     0.0876 O.3     
  16 C16           -5.8658    -5.3967     0.0529 C.2     
  17 O17           -4.7376    -3.4716     0.7310 O.2     
  18 C18           -7.0653    -5.0579     0.5772 C.2     
  19 S19           -8.1841    -6.3078     0.2481 S.3     
  20 C20           -6.9869    -7.2100    -0.5700 C.2     
  21 N21           -5.8664    -6.5780    -0.5704 N.2     
  22 C22           -7.2130    -8.5567    -1.2073 C.3     
  23 F23           -6.9551    -9.5645    -0.2718 F       
  24 F24           -8.5400    -8.6509    -1.6403 F       
  25 F25           -6.3539    -8.7050    -2.3014 F       
  26 H26           -0.3515    -1.7828    -2.1654 H       
  27 H27           -1.1049     1.9100    -0.1288 H       
  28 H28            0.4601     1.8669    -3.9773 H       
  29 H29            0.8793    -2.2324     0.3159 H       
  30 H30           -1.0529    -5.8815    -0.0902 H       
  31 H31           -3.3584    -2.2793    -0.2679 H       
  32 H32           -3.4726    -5.7561    -0.9173 H       
  33 H33           -7.2811    -4.1471     1.1160 H       
@<TRIPOS>BOND
   1    1    2 ar
   2    1    6 ar
   3    1   26 1
   4    2    3 ar
   5    2   15 1
   6    3    4 ar
   7    3   27 1
   8    4    5 ar
   9    5    6 ar
  10    5   28 1
  11    7    8 ar
  12    7   12 ar
  13    7   15 1
  14    8    9 ar
  15    8   29 1
  16    9   10 ar
  17   10   11 ar
  18   10   30 1
  19   11   12 ar
  20   11   13 1
  21   12   31 1
  22   13   14 am
  23   13   32 1
  24   14   16 1
  25   14   17 2
  26   16   18 2
  27   16   21 1
  28   18   19 1
  29   18   33 1
  30   19   20 1
  31   20   21 2
  32   20   22 1
  33   22   23 1
  34   22   24 1
  35   22   25 1

#	End of record

