#	Name: ASD01901148
#	Creating user name:	WinNT
#	Creation time:	15. 06. 2019 19:53

#	Modifying user name:	WinNT
#	Modification time:	15. 06. 2019 19:53

#	Program:	/corina/corina34_cracker 3.40 0067  02.08.2006

@<TRIPOS>MOLECULE
ASD01901148
  49   52    0    0    0
SMALL
NO_CHARGES


@<TRIPOS>ATOM
   1 C1            -0.0166     1.3750     0.0096 C.ar    
   2 C2             0.0021    -0.0041     0.0020 C.ar    
   3 C3             1.2078    -0.6830    -0.0131 C.ar    
   4 C4             2.4027     0.0149    -0.0208 C.ar    
   5 C5             2.3997     1.3941    -0.0129 C.ar    
   6 C6             1.1860     2.0866     0.0019 C.ar    
   7 C7             1.1748     3.5185     0.0093 C.1     
   8 C8             1.1655     4.6925     0.0153 C.1     
   9 C9             1.1543     6.1244     0.0226 C.ar    
  10 C10            2.3583     6.8345     0.0149 C.ar    
  11 C11            2.3436     8.2144     0.0215 C.ar    
  12 C12            1.1325     8.8988     0.0363 C.ar    
  13 C13           -0.0678     8.1953     0.0444 C.ar    
  14 C14           -0.0608     6.8154     0.0316 C.ar    
  15 N15            1.1215    10.3012     0.0434 N.am    
  16 C16            1.1053    10.9700    -1.1211 C.2     
  17 C17            0.9894    12.4629    -1.1668 C.3     
  18 C18            1.5846    13.1002     0.1031 C.3     
  19 N19            1.2820    12.2863     1.2762 N.am    
  20 C20            1.1216    10.9580     1.2143 C.2     
  21 O21            1.1870    10.3508    -2.1602 O.2     
  22 F22            3.5068     8.9015     0.0141 F       
  23 O23            0.9776    10.3299     2.2448 O.2     
  24 F24           -1.2416     8.8640     0.0592 F       
  25 C25           -0.4967    12.8814    -1.1186 C.3     
  26 C26           -0.4705    14.3135    -0.5452 C.3     
  27 C27            0.8478    14.4505     0.2363 C.3     
  28 C28            1.1421    12.9501     2.5747 C.3     
  29 H29            1.4670    12.8541    -2.0651 H       
  30 C30            3.0942    13.3009    -0.0443 C.3     
  31 H31           -0.9584     1.9035     0.0169 H       
  32 H32           -0.9266    -0.5554     0.0083 H       
  33 H33            1.2163    -1.7630    -0.0187 H       
  34 H34            3.3399    -0.5217    -0.0326 H       
  35 H35            3.3330     1.9375    -0.0185 H       
  36 H36            3.2989     6.3039     0.0042 H       
  37 H37           -0.9929     6.2700     0.0331 H       
  38 H38           -0.9259    12.8797    -2.1206 H       
  39 H39           -1.0585    12.2178    -0.4613 H       
  40 H40           -0.5009    15.0410    -1.3563 H       
  41 H41           -1.3182    14.4635     0.1234 H       
  42 H42            0.6394    14.6599     1.2855 H       
  43 H43            1.4534    15.2497    -0.1909 H       
  44 H44            0.1021    13.2400     2.7243 H       
  45 H45            1.4463    12.2661     3.3670 H       
  46 H46            1.7739    13.8380     2.5988 H       
  47 H47            3.2925    13.9568    -0.8920 H       
  48 H48            3.4913    13.7522     0.8649 H       
  49 H49            3.5743    12.3366    -0.2110 H       
@<TRIPOS>BOND
   1    1    2 ar
   2    1    6 ar
   3    1   31 1
   4    2    3 ar
   5    2   32 1
   6    3    4 ar
   7    3   33 1
   8    4    5 ar
   9    4   34 1
  10    5    6 ar
  11    5   35 1
  12    6    7 1
  13    7    8 3
  14    8    9 1
  15    9   10 ar
  16    9   14 ar
  17   10   11 ar
  18   10   36 1
  19   11   12 ar
  20   11   22 1
  21   12   13 ar
  22   12   15 1
  23   13   14 ar
  24   13   24 1
  25   14   37 1
  26   15   16 am
  27   15   20 am
  28   16   17 1
  29   16   21 2
  30   17   25 1
  31   17   18 1
  32   17   29 1
  33   18   19 1
  34   18   27 1
  35   18   30 1
  36   19   20 am
  37   19   28 1
  38   20   23 2
  39   25   26 1
  40   25   38 1
  41   25   39 1
  42   26   27 1
  43   26   40 1
  44   26   41 1
  45   27   42 1
  46   27   43 1
  47   28   44 1
  48   28   45 1
  49   28   46 1
  50   30   47 1
  51   30   48 1
  52   30   49 1

#	End of record

