#	Name: ASD01910042
#	Creating user name:	WinNT
#	Creation time:	15. 06. 2019 19:55

#	Modifying user name:	WinNT
#	Modification time:	15. 06. 2019 19:55

#	Program:	/corina/corina34_cracker 3.40 0067  02.08.2006

@<TRIPOS>MOLECULE
ASD01910042
  47   50    0    0    0
SMALL
NO_CHARGES


@<TRIPOS>ATOM
   1 C1            -0.0167     1.3769     0.0096 C.ar    
   2 C2             0.0021    -0.0041     0.0020 C.ar    
   3 C3             1.2081    -0.6806    -0.0127 C.ar    
   4 C4             2.3987     0.0227    -0.0198 C.ar    
   5 C5             2.3866     1.4038    -0.0127 C.ar    
   6 C6             1.1772     2.0861     0.0020 C.ar    
   7 N7             1.1616     3.4868     0.0088 N.pl3   
   8 C8             0.2442     4.2803    -0.6108 C.2     
   9 C9             0.5823     5.5730    -0.3627 C.2     
  10 C10            1.7430     5.5692     0.4336 C.2     
  11 N11            2.0832     4.3173     0.6588 N.2     
  12 N12           -0.8447     3.8450    -1.3637 N.am    
  13 C13           -1.6784     4.7433    -1.9245 C.2     
  14 C14           -2.8333     4.2817    -2.7231 C.ar    
  15 C15           -3.6988     5.2094    -3.3053 C.ar    
  16 C16           -4.7749     4.7718    -4.0494 C.ar    
  17 C17           -4.9972     3.4167    -4.2193 C.ar    
  18 C18           -4.1434     2.4919    -3.6446 C.ar    
  19 C19           -3.0601     2.9161    -2.9033 C.ar    
  20 C20            2.4565     6.7689     0.9374 C.ar    
  21 C21            3.5993     6.6243     1.7197 C.ar    
  22 C22            4.2609     7.7482     2.1872 C.ar    
  23 C23            3.7842     9.0140     1.8759 C.ar    
  24 C24            2.6496     9.1580     1.0992 C.ar    
  25 C25            1.9879     8.0437     0.6242 C.ar    
  26 O26           -1.4806     5.9332    -1.7735 O.2     
  27 O27            5.3766     7.6112     2.9510 O.3     
  28 C28            6.0079     8.8125     3.3986 C.3     
  29 H29           -0.9589     1.9047     0.0170 H       
  30 H30           -0.9261    -0.5562     0.0079 H       
  31 H31            1.2201    -1.7605    -0.0182 H       
  32 H32            3.3389    -0.5085    -0.0306 H       
  33 H33            3.3168     1.9525    -0.0179 H       
  34 H34            0.0548     6.4474    -0.7144 H       
  35 H35           -1.0025     2.8956    -1.4843 H       
  36 H36           -3.5266     6.2673    -3.1731 H       
  37 H37           -5.4454     5.4884    -4.5001 H       
  38 H38           -5.8410     3.0794    -4.8028 H       
  39 H39           -4.3230     1.4356    -3.7805 H       
  40 H40           -2.3944     2.1932    -2.4552 H       
  41 H41            3.9687     5.6387     1.9617 H       
  42 H42            4.3009     9.8890     2.2418 H       
  43 H43            2.2824    10.1451     0.8600 H       
  44 H44            1.1020     8.1594     0.0174 H       
  45 H45            5.3072     9.3874     4.0041 H       
  46 H46            6.8840     8.5615     3.9966 H       
  47 H47            6.3141     9.4050     2.5364 H       
@<TRIPOS>BOND
   1    1    2 ar
   2    1    6 ar
   3    1   29 1
   4    2    3 ar
   5    2   30 1
   6    3    4 ar
   7    3   31 1
   8    4    5 ar
   9    4   32 1
  10    5    6 ar
  11    5   33 1
  12    6    7 1
  13    7    8 1
  14    7   11 1
  15    8    9 2
  16    8   12 1
  17    9   10 1
  18    9   34 1
  19   10   11 2
  20   10   20 1
  21   12   13 am
  22   12   35 1
  23   13   14 1
  24   13   26 2
  25   14   15 ar
  26   14   19 ar
  27   15   16 ar
  28   15   36 1
  29   16   17 ar
  30   16   37 1
  31   17   18 ar
  32   17   38 1
  33   18   19 ar
  34   18   39 1
  35   19   40 1
  36   20   21 ar
  37   20   25 ar
  38   21   22 ar
  39   21   41 1
  40   22   23 ar
  41   22   27 1
  42   23   24 ar
  43   23   42 1
  44   24   25 ar
  45   24   43 1
  46   25   44 1
  47   27   28 1
  48   28   45 1
  49   28   46 1
  50   28   47 1

#	End of record

