#	Name: ASD01914204
#	Creating user name:	WinNT
#	Creation time:	15. 06. 2019 20:03

#	Modifying user name:	WinNT
#	Modification time:	15. 06. 2019 20:03

#	Program:	/corina/corina34_cracker 3.40 0067  02.08.2006

@<TRIPOS>MOLECULE
ASD01914204
  39   40    0    0    0
SMALL
NO_CHARGES


@<TRIPOS>ATOM
   1 C1            -0.0228     1.4745     0.0049 C.2     
   2 C2             0.0079    -0.0036     0.0006 C.ar    
   3 C3             1.0005    -0.6822    -0.7087 C.ar    
   4 C4             1.0236    -2.0613    -0.7082 C.ar    
   5 C5             0.0655    -2.7722    -0.0071 C.ar    
   6 C6            -0.9208    -2.1060     0.6978 C.ar    
   7 C7            -0.9520    -0.7266     0.7103 C.ar    
   8 O8             1.0170     2.1040    -0.0100 O.2     
   9 N9            -1.2036     2.1240     0.0198 N.am    
  10 C10           -1.2353     3.5834     0.1439 C.3     
  11 C11           -1.1967     4.2147    -1.2493 C.3     
  12 C12           -1.2286     5.6810    -1.1246 C.1     
  13 C13           -1.2541     6.8505    -1.0252 C.1     
  14 C14           -1.2851     8.2770    -0.9039 C.ar    
  15 C15           -1.2584     9.0702    -2.0516 C.ar    
  16 C16           -1.2890    10.4469    -1.9178 C.ar    
  17 C17           -1.3453    10.9877    -0.6406 C.ar    
  18 C18           -1.3691    10.1430     0.4538 C.ar    
  19 N19           -1.3446     8.8349     0.2998 N.ar    
  20 C20            2.0944    -2.7955    -1.4733 C.3     
  21 C21           -2.4554     1.3706    -0.0881 C.3     
  22 H22            1.7484    -0.1285    -1.2568 H       
  23 H23            0.0877    -3.8520    -0.0105 H       
  24 H24           -1.6657    -2.6667     1.2430 H       
  25 H25           -1.7201    -0.2075     1.2644 H       
  26 H26           -2.1502     3.8849     0.6541 H       
  27 H27           -0.3717     3.9181     0.7185 H       
  28 H28           -0.2819     3.9132    -1.7595 H       
  29 H29           -2.0604     3.8800    -1.8239 H       
  30 H30           -1.2142     8.6159    -3.0305 H       
  31 H31           -1.2691    11.0866    -2.7877 H       
  32 H32           -1.3699    12.0586    -0.5029 H       
  33 H33           -1.4125    10.5613     1.4486 H       
  34 H34            2.9547    -2.9622    -0.8251 H       
  35 H35            1.7047    -3.7549    -1.8137 H       
  36 H36            2.3983    -2.2006    -2.3346 H       
  37 H37           -2.7569     1.0236     0.9002 H       
  38 H38           -3.2326     2.0145    -0.4999 H       
  39 H39           -2.3080     0.5133    -0.7449 H       
@<TRIPOS>BOND
   1    1    2 1
   2    1    8 2
   3    1    9 am
   4    2    3 ar
   5    2    7 ar
   6    3    4 ar
   7    3   22 1
   8    4    5 ar
   9    4   20 1
  10    5    6 ar
  11    5   23 1
  12    6    7 ar
  13    6   24 1
  14    7   25 1
  15    9   10 1
  16    9   21 1
  17   10   11 1
  18   10   26 1
  19   10   27 1
  20   11   12 1
  21   11   28 1
  22   11   29 1
  23   12   13 3
  24   13   14 1
  25   14   15 ar
  26   14   19 ar
  27   15   16 ar
  28   15   30 1
  29   16   17 ar
  30   16   31 1
  31   17   18 ar
  32   17   32 1
  33   18   19 ar
  34   18   33 1
  35   20   34 1
  36   20   35 1
  37   20   36 1
  38   21   37 1
  39   21   38 1
  40   21   39 1

#	End of record

