#	Name: ASD01150157
#	Creating user name:	WinNT
#	Creation time:	15. 06. 2019 19:03

#	Modifying user name:	WinNT
#	Modification time:	15. 06. 2019 19:03

#	Program:	/corina/corina34_cracker 3.40 0067  02.08.2006

@<TRIPOS>MOLECULE
ASD01150157
  60   63    0    0    0
SMALL
NO_CHARGES


@<TRIPOS>ATOM
   1 N1            -0.0166     1.3763     0.0096 N.pl3   
   2 C2             0.0021    -0.0041     0.0020 C.2     
   3 C3            -1.3262    -0.4109     0.0125 C.2     
   4 N4            -2.0781     0.6927     0.0256 N.2     
   5 C5            -1.3102     1.7524     0.0299 C.2     
   6 C6             1.0206    -0.9813    -0.0125 C.2     
   7 N7             0.6807    -2.2871    -0.0159 N.am    
   8 C8            -0.6087    -2.6667    -0.0061 C.2     
   9 N9            -1.6103    -1.7670     0.0083 N.am    
  10 O10            2.1925    -0.6496    -0.0223 O.2     
  11 C11           -3.0026    -2.2226     0.0187 C.3     
  12 O12           -0.8774    -3.8526    -0.0100 O.2     
  13 C13            1.7328    -3.3064    -0.0310 C.3     
  14 C14            2.1070    -3.6631     1.3845 C.ar    
  15 C15            1.4447    -4.6870     2.0363 C.ar    
  16 C16            1.7858    -5.0159     3.3340 C.ar    
  17 C17            2.7939    -4.3179     3.9831 C.ar    
  18 C18            3.4569    -3.2910     3.3269 C.ar    
  19 C19            3.1158    -2.9697     2.0273 C.ar    
  20 O20            3.1310    -4.6393     5.2598 O.3     
  21 C21           -1.7991     3.1779     0.0446 C.3     
  22 C22           -1.9566     3.6481     1.4920 C.3     
  23 C23            1.1490     2.2638     0.0032 C.3     
  24 C24           -3.4739    -2.3894     1.4647 C.3     
  25 C25           -4.9279    -2.8653     1.4755 C.3     
  26 C26            4.1780    -3.8784     5.8654 C.3     
  27 C27            4.4113    -4.3735     7.2695 C.ar    
  28 C28            5.3250    -5.3841     7.5033 C.ar    
  29 C29            5.5388    -5.8383     8.7912 C.ar    
  30 C30            4.8393    -5.2815     9.8455 C.ar    
  31 C31            3.9263    -4.2702     9.6119 C.ar    
  32 C32            3.7156    -3.8131     8.3245 C.ar    
  33 H33           -3.6294    -1.4868    -0.4852 H       
  34 H34           -3.0759    -3.1785    -0.4999 H       
  35 H35            1.3696    -4.1958    -0.5459 H       
  36 H36            2.6081    -2.9174    -0.5512 H       
  37 H37            0.6598    -5.2298     1.5307 H       
  38 H38            1.2680    -5.8154     3.8428 H       
  39 H39            4.2420    -2.7462     3.8301 H       
  40 H40            3.6316    -2.1704     1.5160 H       
  41 H41           -1.0779     3.8146    -0.4679 H       
  42 H42           -2.7616     3.2371    -0.4635 H       
  43 H43           -2.3101     4.6791     1.5026 H       
  44 H44           -2.6777     3.0114     2.0044 H       
  45 H45           -0.9941     3.5888     2.0001 H       
  46 H46            1.4282     2.4894    -1.0259 H       
  47 H47            0.9039     3.1892     0.5244 H       
  48 H48            1.9820     1.7730     0.5065 H       
  49 H49           -2.8470    -3.1252     1.9685 H       
  50 H50           -3.4005    -1.4335     1.9833 H       
  51 H51           -5.2637    -2.9841     2.5057 H       
  52 H52           -5.5548    -2.1295     0.9717 H       
  53 H53           -5.0013    -3.8212     0.9569 H       
  54 H54            5.0928    -3.9916     5.2836 H       
  55 H55            3.8933    -2.8266     5.8936 H       
  56 H56            5.8715    -5.8191     6.6795 H       
  57 H57            6.2522    -6.6283     8.9737 H       
  58 H58            5.0059    -5.6368    10.8517 H       
  59 H59            3.3796    -3.8354    10.4356 H       
  60 H60            3.0023    -3.0230     8.1420 H       
@<TRIPOS>BOND
   1    1    2 1
   2    1   23 1
   3    1    5 1
   4    2    3 2
   5    2    6 1
   6    3    4 1
   7    3    9 1
   8    4    5 2
   9    5   21 1
  10    6    7 am
  11    6   10 2
  12    7    8 am
  13    7   13 1
  14    8    9 am
  15    8   12 2
  16    9   11 1
  17   11   24 1
  18   11   33 1
  19   11   34 1
  20   13   14 1
  21   13   35 1
  22   13   36 1
  23   14   15 ar
  24   14   19 ar
  25   15   16 ar
  26   15   37 1
  27   16   17 ar
  28   16   38 1
  29   17   18 ar
  30   17   20 1
  31   18   19 ar
  32   18   39 1
  33   19   40 1
  34   20   26 1
  35   21   22 1
  36   21   41 1
  37   21   42 1
  38   22   43 1
  39   22   44 1
  40   22   45 1
  41   23   46 1
  42   23   47 1
  43   23   48 1
  44   24   25 1
  45   24   49 1
  46   24   50 1
  47   25   51 1
  48   25   52 1
  49   25   53 1
  50   26   27 1
  51   26   54 1
  52   26   55 1
  53   27   28 ar
  54   27   32 ar
  55   28   29 ar
  56   28   56 1
  57   29   30 ar
  58   29   57 1
  59   30   31 ar
  60   30   58 1
  61   31   32 ar
  62   31   59 1
  63   32   60 1

#	End of record

