#	Name: ASD01811593
#	Creating user name:	WinNT
#	Creation time:	15. 06. 2019 19:27

#	Modifying user name:	WinNT
#	Modification time:	15. 06. 2019 19:27

#	Program:	/corina/corina34_cracker 3.40 0067  02.08.2006

@<TRIPOS>MOLECULE
ASD01811593
  66   70    0    0    0
SMALL
NO_CHARGES


@<TRIPOS>ATOM
   1 C1            -0.1290     1.5441    -0.2507 C.ar    
   2 C2             0.1029     0.1770    -0.0862 C.ar    
   3 C3            -0.9481    -0.6774     0.1818 C.ar    
   4 C4            -2.2345    -0.1871     0.2889 C.ar    
   5 C5            -2.4803     1.1779     0.1265 C.ar    
   6 C6            -1.4230     2.0462    -0.1388 C.ar    
   7 C7            -3.8583     1.7015     0.2415 C.2     
   8 O8            -4.5515     1.3855     1.1886 O.2     
   9 N9            -4.3457     2.5292    -0.7039 N.am    
  10 C10           -5.6659     3.1538    -0.5436 C.3     
  11 C11           -6.5081     2.8527    -1.7874 C.3     
  12 C12           -5.7465     3.3042    -3.0357 C.3     
  13 C13           -4.4324     2.5272    -3.1425 C.3     
  14 C14           -3.5643     2.8290    -1.9115 C.3     
  15 C15           -6.5864     3.0406    -4.2589 C.ar    
  16 C16           -6.2560     3.6373    -5.4627 C.ar    
  17 F17           -5.4725     4.6731    -2.9449 F       
  18 C18           -7.6810     2.1986    -4.1743 C.ar    
  19 C19           -8.4539     1.9526    -5.2901 C.ar    
  20 C20           -8.1294     2.5556    -6.5069 C.ar    
  21 C21           -7.0202     3.4001    -6.5864 C.ar    
  22 C22           -8.9272     2.3048    -7.6694 C.1     
  23 N23           -9.5601     2.1058    -8.5915 N.1     
  24 C24            0.9986     2.4581    -0.5373 C.2     
  25 N25            2.2766     2.1514    -0.5238 N.2     
  26 N26            2.9748     3.1891    -0.8206 N.2     
  27 C27            2.1897     4.2099    -1.0388 C.2     
  28 N28            0.9087     3.7820    -0.8724 N.pl3   
  29 C29            2.6228     5.6042    -1.4122 C.3     
  30 O30            1.4709     6.4362    -1.5639 O.3     
  31 C31            1.7723     7.7869    -1.9197 C.3     
  32 C32           -3.3756    -1.1271     0.5810 C.3     
  33 C33            1.5035    -0.3672    -0.2018 C.3     
  34 C34            2.0678    -0.9026     1.1247 C.3     
  35 C35            2.6788    -2.0543     0.3092 C.3     
  36 C36            1.5614    -1.8140    -0.7197 C.3     
  37 H37           -0.7632    -1.7340     0.3078 H       
  38 H38           -1.6076     3.1027    -0.2652 H       
  39 H39           -6.1586     2.7456     0.3388 H       
  40 H40           -5.5492     4.2319    -0.4336 H       
  41 H41           -6.7002     1.7814    -1.8461 H       
  42 H42           -7.4546     3.3896    -1.7246 H       
  43 H43           -4.6440     1.4589    -3.1884 H       
  44 H44           -3.9015     2.8324    -4.0442 H       
  45 H45           -3.2772     3.8805    -1.9158 H       
  46 H46           -2.6714     2.2041    -1.9320 H       
  47 H47           -5.3981     4.2906    -5.5227 H       
  48 H48           -7.9307     1.7325    -3.2325 H       
  49 H49           -9.3078     1.2948    -5.2227 H       
  50 H50           -6.7638     3.8700    -7.5244 H       
  51 H51            0.0992     4.3081    -0.9664 H       
  52 H52            3.2622     6.0084    -0.6275 H       
  53 H53            3.1752     5.5738    -2.3514 H       
  54 H54            2.3941     8.2365    -1.1455 H       
  55 H55            2.3071     7.8018    -2.8694 H       
  56 H56            0.8457     8.3528    -2.0157 H       
  57 H57           -3.4676    -1.2631     1.6586 H       
  58 H58           -4.3016    -0.7079     0.1874 H       
  59 H59           -3.1830    -2.0903     0.1084 H       
  60 H60            2.1797     0.3115    -0.7217 H       
  61 H61            2.8107    -0.2474     1.5794 H       
  62 H62            1.2995    -1.2250     1.8276 H       
  63 H63            3.6769    -1.8380    -0.0717 H       
  64 H64            2.6147    -3.0227     0.8053 H       
  65 H65            0.6547    -2.3855    -0.5211 H       
  66 H66            1.8956    -1.8944    -1.7541 H       
@<TRIPOS>BOND
   1    1    2 ar
   2    1   24 1
   3    1    6 ar
   4    2    3 ar
   5    2   33 1
   6    3    4 ar
   7    3   37 1
   8    4    5 ar
   9    4   32 1
  10    5    6 ar
  11    5    7 1
  12    6   38 1
  13    7    8 2
  14    7    9 am
  15    9   10 1
  16    9   14 1
  17   10   11 1
  18   10   39 1
  19   10   40 1
  20   11   12 1
  21   11   41 1
  22   11   42 1
  23   12   13 1
  24   12   15 1
  25   12   17 1
  26   13   14 1
  27   13   43 1
  28   13   44 1
  29   14   45 1
  30   14   46 1
  31   15   16 ar
  32   15   18 ar
  33   16   21 ar
  34   16   47 1
  35   18   19 ar
  36   18   48 1
  37   19   20 ar
  38   19   49 1
  39   20   21 ar
  40   20   22 1
  41   21   50 1
  42   22   23 3
  43   24   25 2
  44   24   28 1
  45   25   26 1
  46   26   27 2
  47   27   28 1
  48   27   29 1
  49   28   51 1
  50   29   30 1
  51   29   52 1
  52   29   53 1
  53   30   31 1
  54   31   54 1
  55   31   55 1
  56   31   56 1
  57   32   57 1
  58   32   58 1
  59   32   59 1
  60   33   34 1
  61   33   36 1
  62   33   60 1
  63   34   35 1
  64   34   61 1
  65   34   62 1
  66   35   36 1
  67   35   63 1
  68   35   64 1
  69   36   65 1
  70   36   66 1

#	End of record

