#	Name: ASD01900991
#	Creating user name:	WinNT
#	Creation time:	15. 06. 2019 19:52

#	Modifying user name:	WinNT
#	Modification time:	15. 06. 2019 19:52

#	Program:	/corina/corina34_cracker 3.40 0067  02.08.2006

@<TRIPOS>MOLECULE
ASD01900991
  49   53    0    0    0
SMALL
NO_CHARGES


@<TRIPOS>ATOM
   1 C1             0.0892     1.4916    -1.2678 C.ar    
   2 C2             0.0333     0.1140    -1.2592 C.ar    
   3 C3             1.0235    -0.6267    -0.6330 C.ar    
   4 C4             2.0776     0.0051    -0.0020 C.ar    
   5 C5             2.1468     1.3885     0.0014 C.ar    
   6 C6             1.1517     2.1436    -0.6423 C.ar    
   7 N7             3.1841     2.0599     0.6433 N.pl3   
   8 C8             3.5336     3.4036     0.1767 C.3     
   9 N9             2.3686     4.2094    -0.1813 N.am    
  10 C10            1.2462     3.6140    -0.6385 C.2     
  11 C11            2.4160     5.6028    -0.0497 C.ar    
  12 C12            1.9710     6.2057     1.1194 C.ar    
  13 C13            2.0180     7.5797     1.2485 C.ar    
  14 C14            2.5096     8.3578     0.2106 C.ar    
  15 C15            2.9544     7.7562    -0.9577 C.ar    
  16 C16            2.9133     6.3820    -1.0860 C.ar    
  17 O17            0.3185     4.2875    -1.0447 O.2     
  18 O18            2.5552     9.7107     0.3382 O.3     
  19 C19            4.5249     4.1302     1.0962 C.3     
  20 C20            3.0733    10.4498    -0.7697 C.3     
  21 N21            5.1946     4.5736    -0.1472 N.3     
  22 C22            4.6420     3.4145    -0.8844 C.3     
  23 C23            6.6548     4.4715    -0.0239 C.3     
  24 C24            7.2896     4.6922    -1.3727 C.2     
  25 C25            7.6710     5.8741    -1.8584 C.2     
  26 C26            8.2318     5.8316    -3.1238 C.2     
  27 C27            8.3053     4.6135    -3.6651 C.2     
  28 S28            7.6472     3.4293    -2.5435 S.3     
  29 Cl29           8.9575     4.2527    -5.2329 Cl      
  30 H30           -0.6837     2.0629    -1.7603 H       
  31 H31           -0.7886    -0.3919    -1.7439 H       
  32 H32            0.9704    -1.7053    -0.6381 H       
  33 H33            2.8445    -0.5774     0.4869 H       
  34 H34            3.6625     1.6487     1.3802 H       
  35 H35            1.5879     5.6001     1.9274 H       
  36 H36            1.6716     8.0487     2.1576 H       
  37 H37            3.3370     8.3627    -1.7653 H       
  38 H38            3.2637     5.9135    -1.9938 H       
  39 H39            4.0784     4.9430     1.6690 H       
  40 H40            5.1303     3.4602     1.7067 H       
  41 H41            3.0538    11.5145    -0.5372 H       
  42 H42            4.0996    10.1393    -0.9655 H       
  43 H43            2.4616    10.2592    -1.6515 H       
  44 H44            5.2821     2.5326    -0.8604 H       
  45 H45            4.2889     3.6585    -1.8863 H       
  46 H46            7.0142     5.2270     0.6748 H       
  47 H47            6.9199     3.4805     0.3446 H       
  48 H48            7.5512     6.7948    -1.3067 H       
  49 H49            8.5826     6.7165    -3.6340 H       
@<TRIPOS>BOND
   1    1    2 ar
   2    1    6 ar
   3    1   30 1
   4    2    3 ar
   5    2   31 1
   6    3    4 ar
   7    3   32 1
   8    4    5 ar
   9    4   33 1
  10    5    7 1
  11    5    6 ar
  12    6   10 1
  13    7    8 1
  14    7   34 1
  15    8    9 1
  16    8   19 1
  17    8   22 1
  18    9   10 am
  19    9   11 1
  20   10   17 2
  21   11   12 ar
  22   11   16 ar
  23   12   13 ar
  24   12   35 1
  25   13   14 ar
  26   13   36 1
  27   14   15 ar
  28   14   18 1
  29   15   16 ar
  30   15   37 1
  31   16   38 1
  32   18   20 1
  33   19   21 1
  34   19   39 1
  35   19   40 1
  36   20   41 1
  37   20   42 1
  38   20   43 1
  39   21   23 1
  40   21   22 1
  41   22   44 1
  42   22   45 1
  43   23   24 1
  44   23   46 1
  45   23   47 1
  46   24   25 2
  47   24   28 1
  48   25   26 1
  49   25   48 1
  50   26   27 2
  51   26   49 1
  52   27   28 1
  53   27   29 1

#	End of record

