#	Name: ASD01882778
#	Creating user name:	WinNT
#	Creation time:	15. 06. 2019 19:45

#	Modifying user name:	WinNT
#	Modification time:	15. 06. 2019 19:45

#	Program:	/corina/corina34_cracker 3.40 0067  02.08.2006

@<TRIPOS>MOLECULE
ASD01882778
  34   35    0    0    0
SMALL
NO_CHARGES


@<TRIPOS>ATOM
   1 N1            -0.0165     1.3692     0.0096 N.pl3   
   2 O2             1.1412    -0.7243    -0.0127 O.3     
   3 C3             0.0021    -0.0041     0.0020 C.2     
   4 N4            -1.0753    -0.7270     0.0089 N.2     
   5 C5            -0.6823    -2.1496     0.0076 C.3     
   6 C6             0.8153    -2.0697     0.3922 C.3     
   7 C7             1.6390    -3.0940    -0.3909 C.3     
   8 O8             3.0178    -2.9666    -0.0377 O.3     
   9 C9             3.8921    -3.8101    -0.6487 C.ar    
  10 C10            5.2452    -3.7401    -0.3518 C.ar    
  11 C11            6.1349    -4.5999    -0.9743 C.ar    
  12 C12            5.6691    -5.5323    -1.8965 C.ar    
  13 C13            4.3173    -5.5989    -2.1901 C.ar    
  14 C14            3.4297    -4.7434    -1.5639 C.ar    
  15 O15            6.5414    -6.3777    -2.5096 O.3     
  16 C16            5.9935    -7.3090    -3.4449 C.3     
  17 O17            7.4620    -4.5327    -0.6850 O.3     
  18 C18            7.8688    -3.5512     0.2706 C.3     
  19 H19            0.8168     1.8655     0.0043 H       
  20 H20           -0.8631     1.8427     0.0162 H       
  21 H21           -1.2463    -2.7101     0.7532 H       
  22 H22           -0.8071    -2.5872    -0.9829 H       
  23 H23            0.9511    -2.1991     1.4659 H       
  24 H24            1.2935    -4.0992    -0.1495 H       
  25 H25            1.5198    -2.9156    -1.4596 H       
  26 H26            5.6047    -3.0156     0.3638 H       
  27 H27            3.9556    -6.3225    -2.9058 H       
  28 H28            2.3753    -4.7997    -1.7908 H       
  29 H29            6.7943    -7.9211    -3.8597 H       
  30 H30            5.2712    -7.9497    -2.9390 H       
  31 H31            5.4970    -6.7664    -4.2494 H       
  32 H32            8.9487    -3.6044     0.4088 H       
  33 H33            7.5970    -2.5590    -0.0894 H       
  34 H34            7.3711    -3.7417     1.2215 H       
@<TRIPOS>BOND
   1    1    3 1
   2    1   19 1
   3    1   20 1
   4    2    3 1
   5    2    6 1
   6    3    4 2
   7    4    5 1
   8    5    6 1
   9    5   21 1
  10    5   22 1
  11    6    7 1
  12    6   23 1
  13    7    8 1
  14    7   24 1
  15    7   25 1
  16    8    9 1
  17    9   10 ar
  18    9   14 ar
  19   10   11 ar
  20   10   26 1
  21   11   12 ar
  22   11   17 1
  23   12   13 ar
  24   12   15 1
  25   13   14 ar
  26   13   27 1
  27   14   28 1
  28   15   16 1
  29   16   29 1
  30   16   30 1
  31   16   31 1
  32   17   18 1
  33   18   32 1
  34   18   33 1
  35   18   34 1

#	End of record

