#	Name: ASD00170758
#	Creating user name:	WinNT
#	Creation time:	15. 06. 2019 18:32

#	Modifying user name:	WinNT
#	Modification time:	15. 06. 2019 18:32

#	Program:	/corina/corina34_cracker 3.40 0067  02.08.2006

@<TRIPOS>MOLECULE
ASD00170758
  45   47    0    0    0
SMALL
NO_CHARGES


@<TRIPOS>ATOM
   1 C1            -0.0169     1.2078     0.0003 C.2     
   2 O2             0.6388     0.9997    -1.0046 O.2     
   3 C3             0.4747     0.7391     1.3147 C.ar    
   4 C4             1.6304    -0.0396     1.3937 C.ar    
   5 C5             2.0837    -0.4730     2.6222 C.ar    
   6 C6             1.3954    -0.1373     3.7748 C.ar    
   7 C7             0.2490     0.6338     3.7034 C.ar    
   8 C8            -0.2118     1.0785     2.4812 C.ar    
   9 C9             3.3310    -1.3142     2.7094 C.3     
  10 F10            4.4460    -0.4815     2.8529 F       
  11 F11            3.2414    -2.1681     3.8140 F       
  12 F12            3.4636    -2.0740     1.5422 F       
  13 C13           -1.3571     3.2721    -0.0187 C.2     
  14 C14           -1.2492     1.9046    -0.0887 C.2     
  15 C15           -2.5356     1.2484    -0.2639 C.2     
  16 C16           -3.5545     2.1121    -0.3203 C.2     
  17 S17           -2.9824     3.7627    -0.1615 S.3     
  18 C18           -4.9990     1.7206    -0.4973 C.3     
  19 C19           -2.6991    -0.2209    -0.3692 C.ar    
  20 C20           -3.3947    -0.9201     0.6164 C.ar    
  21 C21           -3.5437    -2.2881     0.5130 C.ar    
  22 C22           -3.0042    -2.9658    -0.5655 C.ar    
  23 C23           -2.3127    -2.2776    -1.5463 C.ar    
  24 C24           -2.1629    -0.9087    -1.4571 C.ar    
  25 C25           -1.7275    -3.0233    -2.7178 C.3     
  26 F26           -2.0124    -4.3872    -2.5917 F       
  27 F27           -2.2857    -2.5382    -3.9053 F       
  28 F28           -0.3412    -2.8370    -2.7439 F       
  29 C29           -4.2952    -3.0453     1.5774 C.3     
  30 F30           -5.6508    -3.1066     1.2370 F       
  31 F31           -3.7806    -4.3422     1.6784 F       
  32 F32           -4.1520    -2.3898     2.8051 F       
  33 N33           -0.2924     4.1329     0.1506 N.pl3   
  34 H34            2.1683    -0.3026     0.4948 H       
  35 H35            1.7544    -0.4791     4.7343 H       
  36 H36           -0.2838     0.8921     4.6066 H       
  37 H37           -1.1043     1.6842     2.4271 H       
  38 H38           -5.4556     1.5650     0.4801 H       
  39 H39           -5.5288     2.5147    -1.0235 H       
  40 H40           -5.0573     0.7991    -1.0765 H       
  41 H41           -3.8157    -0.3921     1.4593 H       
  42 H42           -3.1230    -4.0365    -0.6420 H       
  43 H43           -1.6270    -0.3717    -2.2258 H       
  44 H44            0.5977     3.7792     0.3042 H       
  45 H45           -0.4338     5.0920     0.1160 H       
@<TRIPOS>BOND
   1    1    2 2
   2    1    3 1
   3    1   14 1
   4    3    4 ar
   5    3    8 ar
   6    4    5 ar
   7    4   34 1
   8    5    6 ar
   9    5    9 1
  10    6    7 ar
  11    6   35 1
  12    7    8 ar
  13    7   36 1
  14    8   37 1
  15    9   10 1
  16    9   11 1
  17    9   12 1
  18   13   14 2
  19   13   17 1
  20   13   33 1
  21   14   15 1
  22   15   16 2
  23   15   19 1
  24   16   17 1
  25   16   18 1
  26   18   38 1
  27   18   39 1
  28   18   40 1
  29   19   20 ar
  30   19   24 ar
  31   20   21 ar
  32   20   41 1
  33   21   22 ar
  34   21   29 1
  35   22   23 ar
  36   22   42 1
  37   23   24 ar
  38   23   25 1
  39   24   43 1
  40   25   26 1
  41   25   27 1
  42   25   28 1
  43   29   30 1
  44   29   31 1
  45   29   32 1
  46   33   44 1
  47   33   45 1

#	End of record

