#	Name: ASD04882116
#	Creating user name:	WinNT
#	Creation time:	15. 06. 2019 20:54

#	Modifying user name:	WinNT
#	Modification time:	15. 06. 2019 20:54

#	Program:	/corina/corina34_cracker 3.40 0067  02.08.2006

@<TRIPOS>MOLECULE
ASD04882116
  80   84    0    0    0
SMALL
NO_CHARGES


@<TRIPOS>ATOM
   1 C1            -3.1010     3.0728    -1.2708 C.ar    
   2 C2            -3.2656     1.6872    -1.3000 C.ar    
   3 C3            -4.6091     1.1033    -1.4972 C.2     
   4 O4            -4.7374    -0.0996    -1.6178 O.2     
   5 N5            -5.6920     1.9044    -1.5435 N.am    
   6 C6            -6.9511     1.3641    -1.8356 C.ar    
   7 C7            -8.1042     1.9506    -1.3054 C.ar    
   8 C8            -9.3540     1.4156    -1.5942 C.ar    
   9 C9            -9.4613     0.3058    -2.4033 C.ar    
  10 C10           -8.3129    -0.2853    -2.9365 C.ar    
  11 C11           -7.0549     0.2546    -2.6525 C.ar    
  12 N12           -8.0003     3.0719    -0.4864 N.3     
  13 C13           -7.3414     2.7371     0.7838 C.3     
  14 C14           -7.1754     4.0083     1.6198 C.3     
  15 N15           -8.4944     4.6113     1.8570 N.3     
  16 C16           -9.1533     4.9461     0.5867 C.3     
  17 C17           -9.3193     3.6749    -0.2493 C.3     
  18 C18           -8.3902     5.7361     2.6785 C.ar    
  19 C19           -8.0114     5.5948     4.0077 C.ar    
  20 C20           -8.1832     7.9644     4.3058 C.ar    
  21 C21           -8.6594     6.9990     2.1669 C.ar    
  22 C22           -7.9089     6.7089     4.8169 C.ar    
  23 C23           -8.5549     8.1092     2.9819 C.ar    
  24 C24           -7.7133     4.2271     4.5658 C.3     
  25 C25           -8.4281    -1.4741    -3.8025 C.2     
  26 N26           -9.6416    -1.9907    -4.0799 N.am    
  27 O27           -7.4282    -1.9878    -4.2661 O.2     
  28 C28           -9.7561    -3.1712    -4.9398 C.3     
  29 C29          -11.2306    -3.5495    -5.0931 C.3     
  30 C30          -11.3501    -4.7824    -5.9912 C.3     
  31 N31          -12.7620    -5.1447    -6.1380 N.am    
  32 C32          -13.5687    -4.6759    -7.1056 C.2     
  33 C33          -14.9591    -5.2507    -6.9477 C.3     
  34 C34          -14.9782    -5.8060    -5.5047 C.3     
  35 C35          -13.4757    -6.0709    -5.2511 C.3     
  36 O36          -13.2311    -3.9040    -7.9781 O.2     
  37 C37           -2.1557     0.8551    -1.1424 C.ar    
  38 C38           -0.9048     1.4065    -0.9592 C.ar    
  39 C39           -0.7485     2.7812    -0.9308 C.ar    
  40 C40           -1.8441     3.6114    -1.0867 C.ar    
  41 C41           -2.3241    -0.6422    -1.1721 C.3     
  42 H42           -3.9548     3.7221    -1.3965 H       
  43 H43           -5.5994     2.8551    -1.3746 H       
  44 H44          -10.2430     1.8707    -1.1832 H       
  45 H45          -10.4339    -0.1080    -2.6253 H       
  46 H46           -6.1659    -0.1975    -3.0668 H       
  47 H47           -7.9513     2.0187     1.3315 H       
  48 H48           -6.3617     2.3039     0.5822 H       
  49 H49           -6.7131     3.7578     2.5746 H       
  50 H50           -6.5430     4.7161     1.0838 H       
  51 H51          -10.1330     5.3793     0.7884 H       
  52 H52           -8.5434     5.6645     0.0390 H       
  53 H53           -9.7816     3.9254    -1.2041 H       
  54 H54           -9.9516     2.9671     0.2867 H       
  55 H55           -8.1026     8.8342     4.9410 H       
  56 H56           -8.9497     7.1128     1.1329 H       
  57 H57           -7.6145     6.5997     5.8503 H       
  58 H58           -8.7684     9.0911     2.5859 H       
  59 H59           -6.6573     3.9984     4.4223 H       
  60 H60           -7.9474     4.2100     5.6302 H       
  61 H61           -8.3196     3.4835     4.0485 H       
  62 H62          -10.4393    -1.5809    -3.7100 H       
  63 H63           -9.3342    -2.9489    -5.9200 H       
  64 H64           -9.2125    -4.0022    -4.4903 H       
  65 H65          -11.6524    -3.7718    -4.1129 H       
  66 H66          -11.7741    -2.7185    -5.5426 H       
  67 H67          -10.9283    -4.5601    -6.9714 H       
  68 H68          -10.8066    -5.6135    -5.5417 H       
  69 H69          -15.7104    -4.4699    -7.0660 H       
  70 H70          -15.1244    -6.0526    -7.6673 H       
  71 H71          -15.3711    -5.0663    -4.8072 H       
  72 H72          -15.5495    -6.7327    -5.4509 H       
  73 H73          -13.2242    -7.1017    -5.5010 H       
  74 H74          -13.2277    -5.8631    -4.2102 H       
  75 H75           -0.0453     0.7639    -0.8372 H       
  76 H76            0.2331     3.2078    -0.7863 H       
  77 H77           -1.7153     4.6834    -1.0636 H       
  78 H78           -2.3542    -0.9840    -2.2066 H       
  79 H79           -1.4857    -1.1123    -0.6583 H       
  80 H80           -3.2544    -0.9131    -0.6727 H       
@<TRIPOS>BOND
   1    1    2 ar
   2    1   40 ar
   3    1   42 1
   4    2    3 1
   5    2   37 ar
   6    3    4 2
   7    3    5 am
   8    5    6 1
   9    5   43 1
  10    6    7 ar
  11    6   11 ar
  12    7    8 ar
  13    7   12 1
  14    8    9 ar
  15    8   44 1
  16    9   10 ar
  17    9   45 1
  18   10   11 ar
  19   10   25 1
  20   11   46 1
  21   12   13 1
  22   12   17 1
  23   13   14 1
  24   13   47 1
  25   13   48 1
  26   14   15 1
  27   14   49 1
  28   14   50 1
  29   15   16 1
  30   15   18 1
  31   16   17 1
  32   16   51 1
  33   16   52 1
  34   17   53 1
  35   17   54 1
  36   18   19 ar
  37   18   21 ar
  38   19   22 ar
  39   19   24 1
  40   20   22 ar
  41   20   23 ar
  42   20   55 1
  43   21   23 ar
  44   21   56 1
  45   22   57 1
  46   23   58 1
  47   24   59 1
  48   24   60 1
  49   24   61 1
  50   25   26 am
  51   25   27 2
  52   26   28 1
  53   26   62 1
  54   28   29 1
  55   28   63 1
  56   28   64 1
  57   29   30 1
  58   29   65 1
  59   29   66 1
  60   30   31 1
  61   30   67 1
  62   30   68 1
  63   31   32 am
  64   31   35 1
  65   32   33 1
  66   32   36 2
  67   33   34 1
  68   33   69 1
  69   33   70 1
  70   34   35 1
  71   34   71 1
  72   34   72 1
  73   35   73 1
  74   35   74 1
  75   37   38 ar
  76   37   41 1
  77   38   39 ar
  78   38   75 1
  79   39   40 ar
  80   39   76 1
  81   40   77 1
  82   41   78 1
  83   41   79 1
  84   41   80 1

#	End of record

