#	Name: ASD01900731
#	Creating user name:	WinNT
#	Creation time:	15. 06. 2019 19:52

#	Modifying user name:	WinNT
#	Modification time:	15. 06. 2019 19:52

#	Program:	/corina/corina34_cracker 3.40 0067  02.08.2006

@<TRIPOS>MOLECULE
ASD01900731
  58   62    0    0    0
SMALL
NO_CHARGES


@<TRIPOS>ATOM
   1 C1            -0.1835     2.2149    -0.7055 C.ar    
   2 C2            -0.3084     0.8314    -0.6816 C.ar    
   3 C3            -1.5469     0.2349    -0.8027 C.ar    
   4 C4            -2.6846     1.0172    -0.9500 C.ar    
   5 C5            -2.5561     2.4124    -0.9777 C.ar    
   6 O6            -3.9028     0.4429    -1.0579 O.3     
   7 C7            -4.9729     1.1310    -1.4927 C.2     
   8 C8            -4.9964     2.4865    -1.5586 C.2     
   9 C9            -3.7881     3.2239    -1.1499 C.2     
  10 C10           -6.1686     0.3832    -1.9152 C.2     
  11 N11           -7.2636     1.0484    -2.3585 N.2     
  12 C12           -8.3382     0.4272    -2.7403 C.2     
  13 N13           -8.4220    -0.9378    -2.7151 N.pl3   
  14 C14           -7.3389    -1.6773    -2.2733 C.2     
  15 C15           -6.1741    -1.0007    -1.8657 C.2     
  16 C16           -1.3095     3.0097    -0.8479 C.ar    
  17 C17           -9.4162    -1.8036    -3.0563 C.2     
  18 C18           -8.9904    -3.0724    -2.8417 C.2     
  19 C19           -7.6836    -3.0138    -2.3483 C.2     
  20 O20            1.0429     2.7890    -0.5836 O.3     
  21 C21            2.1591     1.9094    -0.4341 C.3     
  22 C22            3.4437     2.7315    -0.3124 C.3     
  23 N23            3.3939     3.5390     0.9137 N.3     
  24 C24            3.6464     2.7100     2.1012 C.3     
  25 C25            4.3460     4.6573     0.8471 C.3     
  26 C26            4.2189     5.5049     2.1157 C.3     
  27 O27            4.4367     4.6759     3.2606 O.3     
  28 C28            3.5264     3.5771     3.3572 C.3     
  29 C29            5.2622     6.6237     2.0892 C.3     
  30 C30            3.8666     2.7388     4.5911 C.3     
  31 N31           -3.7998     4.5204    -0.9496 N.2     
  32 O32           -2.6574     5.1647    -0.4159 O.3     
  33 H33            0.5724     0.2168    -0.5675 H       
  34 H34           -1.6314    -0.8416    -0.7832 H       
  35 H35           -5.8765     3.0102    -1.9016 H       
  36 H36           -9.1852     1.0016    -3.0853 H       
  37 H37           -5.3101    -1.5462    -1.5157 H       
  38 H38           -1.2171     4.0856    -0.8667 H       
  39 H39          -10.3878    -1.5242    -3.4363 H       
  40 H40           -9.5610    -3.9717    -3.0207 H       
  41 H41           -7.0614    -3.8538    -2.0768 H       
  42 H42            2.0279     1.3052     0.4636 H       
  43 H43            2.2265     1.2568    -1.3046 H       
  44 H44            4.3018     2.0607    -0.2711 H       
  45 H45            3.5376     3.3888    -1.1768 H       
  46 H46            2.9144     1.9035     2.1444 H       
  47 H47            4.6501     2.2887     2.0442 H       
  48 H48            5.3608     4.2672     0.7701 H       
  49 H49            4.1246     5.2723    -0.0252 H       
  50 H50            3.2202     5.9387     2.1651 H       
  51 H51            2.5076     3.9549     3.4427 H       
  52 H52            5.0981     7.2528     1.2143 H       
  53 H53            5.1713     7.2267     2.9926 H       
  54 H54            6.2605     6.1886     2.0418 H       
  55 H55            3.7848     3.3577     5.4846 H       
  56 H56            3.1726     1.9015     4.6642 H       
  57 H57            4.8850     2.3600     4.5035 H       
  58 H58           -2.7606     6.1196    -0.3041 H       
@<TRIPOS>BOND
   1    1    2 ar
   2    1   20 1
   3    1   16 ar
   4    2    3 ar
   5    2   33 1
   6    3    4 ar
   7    3   34 1
   8    4    5 ar
   9    4    6 1
  10    5   16 ar
  11    5    9 1
  12    6    7 1
  13    7    8 2
  14    7   10 1
  15    8    9 1
  16    8   35 1
  17    9   31 2
  18   10   11 1
  19   10   15 2
  20   11   12 2
  21   12   13 1
  22   12   36 1
  23   13   14 1
  24   13   17 1
  25   14   15 1
  26   14   19 2
  27   15   37 1
  28   16   38 1
  29   17   18 2
  30   17   39 1
  31   18   19 1
  32   18   40 1
  33   19   41 1
  34   20   21 1
  35   21   22 1
  36   21   42 1
  37   21   43 1
  38   22   23 1
  39   22   44 1
  40   22   45 1
  41   23   24 1
  42   23   25 1
  43   24   28 1
  44   24   46 1
  45   24   47 1
  46   25   26 1
  47   25   48 1
  48   25   49 1
  49   26   27 1
  50   26   29 1
  51   26   50 1
  52   27   28 1
  53   28   30 1
  54   28   51 1
  55   29   52 1
  56   29   53 1
  57   29   54 1
  58   30   55 1
  59   30   56 1
  60   30   57 1
  61   31   32 1
  62   32   58 1

#	End of record

