#	Name: ASD03090040
#	Creating user name:	WinNT
#	Creation time:	15. 06. 2019 20:28

#	Modifying user name:	WinNT
#	Modification time:	15. 06. 2019 20:28

#	Program:	/corina/corina34_cracker 3.40 0067  02.08.2006

@<TRIPOS>MOLECULE
ASD03090040
  44   46    0    0    0
SMALL
NO_CHARGES


@<TRIPOS>ATOM
   1 N1            -0.0638     1.3582     0.1318 N.am    
   2 C2            -0.2614     0.2187     0.8238 C.2     
   3 O3             0.6179    -0.2167     1.5421 O.2     
   4 N4            -1.4336    -0.4383     0.7197 N.am    
   5 S5            -3.0640    -2.5623     1.4097 S.3     
   6 C6            -1.6375    -1.6141     1.4338 C.2     
   7 N7            -0.7776    -2.1758     2.2290 N.2     
   8 N8            -1.1222    -3.2462     2.8027 N.2     
   9 C9            -2.3116    -3.6868     2.5415 C.2     
  10 C10           -2.9405    -4.9354     3.1043 C.3     
  11 F11           -2.0824    -5.5031     4.0522 F       
  12 F12           -4.1579    -4.6110     3.7124 F       
  13 F13           -3.1648    -5.8511     2.0707 F       
  14 C14            1.1288     2.0802     0.2945 C.ar    
  15 C15            1.1390     3.4628     0.1092 C.ar    
  16 C16            2.3192     4.1724     0.2714 C.ar    
  17 C17            3.4854     3.5062     0.6171 C.ar    
  18 C18            3.4725     2.1316     0.8007 C.ar    
  19 C19            2.2965     1.4213     0.6450 C.ar    
  20 N20           -0.0390     4.1320    -0.2400 N.pl3   
  21 C21           -0.7310     6.2006    -1.2866 C.ar    
  22 C22           -0.0672     5.5286    -0.2674 C.ar    
  23 C23            0.5694     6.2681     0.7267 C.ar    
  24 C24            0.5130     7.6505     0.6563 C.ar    
  25 C25           -0.1673     8.2463    -0.3892 C.ar    
  26 N26           -0.7599     7.5178    -1.3152 N.ar    
  27 O27            4.6430     4.2016     0.7757 O.3     
  28 C28            5.8064     3.4522     1.1321 C.3     
  29 C29            7.0015     4.3982     1.2650 C.3     
  30 H30           -0.7440     1.6773    -0.4817 H       
  31 H31           -2.1350    -0.0910     0.1467 H       
  32 H32            2.3304     5.2428     0.1282 H       
  33 H33            4.3822     1.6154     1.0699 H       
  34 H34            2.2887     0.3515     0.7931 H       
  35 H35           -0.8362     3.6264    -0.4631 H       
  36 H36           -1.2244     5.6379    -2.0653 H       
  37 H37            1.0935     5.7760     1.5326 H       
  38 H38            0.9948     8.2558     1.4099 H       
  39 H39           -0.2144     9.3237    -0.4484 H       
  40 H40            5.6358     2.9466     2.0826 H       
  41 H41            6.0129     2.7122     0.3589 H       
  42 H42            7.1721     4.9038     0.3145 H       
  43 H43            6.7950     5.1382     2.0382 H       
  44 H44            7.8889     3.8265     1.5368 H       
@<TRIPOS>BOND
   1    1    2 am
   2    1   14 1
   3    1   30 1
   4    2    3 2
   5    2    4 am
   6    4    6 1
   7    4   31 1
   8    5    6 1
   9    5    9 1
  10    6    7 2
  11    7    8 1
  12    8    9 2
  13    9   10 1
  14   10   11 1
  15   10   12 1
  16   10   13 1
  17   14   15 ar
  18   14   19 ar
  19   15   16 ar
  20   15   20 1
  21   16   17 ar
  22   16   32 1
  23   17   18 ar
  24   17   27 1
  25   18   19 ar
  26   18   33 1
  27   19   34 1
  28   20   22 1
  29   20   35 1
  30   21   22 ar
  31   21   26 ar
  32   21   36 1
  33   22   23 ar
  34   23   24 ar
  35   23   37 1
  36   24   25 ar
  37   24   38 1
  38   25   26 ar
  39   25   39 1
  40   27   28 1
  41   28   29 1
  42   28   40 1
  43   28   41 1
  44   29   42 1
  45   29   43 1
  46   29   44 1

#	End of record

