#	Name: ASD02508268
#	Creating user name:	WinNT
#	Creation time:	15. 06. 2019 20:24

#	Modifying user name:	WinNT
#	Modification time:	15. 06. 2019 20:24

#	Program:	/corina/corina34_cracker 3.40 0067  02.08.2006

@<TRIPOS>MOLECULE
ASD02508268
  54   58    0    0    0
SMALL
NO_CHARGES


@<TRIPOS>ATOM
   1 C1            -0.0168     1.3903     0.0097 C.ar    
   2 C2             0.0021    -0.0041     0.0020 C.ar    
   3 C3            -1.1877    -0.7149     0.0100 C.ar    
   4 C4            -2.3923    -0.0392     0.0255 C.ar    
   5 C5            -2.4133     1.3466     0.0331 C.ar    
   6 C6            -1.2294     2.0616     0.0299 C.ar    
   7 S7            -3.9059    -0.9413     0.0350 S.o2    
   8 N8            -4.6552    -0.6261     1.4778 N.am    
   9 C9            -5.5858     0.5041     1.6061 C.3     
  10 O10            1.2719     1.8106    -0.0004 O.3     
  11 C11            2.0846     0.7424    -0.0139 C.2     
  12 N12            1.3449    -0.3843    -0.0128 N.am    
  13 O13           -4.7225    -0.3655    -0.9754 O.2     
  14 O14           -3.5527    -2.3175     0.0585 O.2     
  15 O15            3.2998     0.7847    -0.0256 O.2     
  16 C16            1.8568    -1.7569    -0.0255 C.3     
  17 C17           -6.9278    -0.0229     2.1289 C.3     
  18 N18           -6.6746    -0.8688     3.3037 N.am    
  19 C19           -5.7441    -1.9991     3.1754 C.3     
  20 C20           -4.4064    -1.4754     2.6511 C.3     
  21 S21           -7.4240    -0.5537     4.7465 S.o2    
  22 C22           -8.9379    -1.4552     4.7557 C.ar    
  23 C23           -8.9705    -2.7440     5.2547 C.ar    
  24 F24           -3.5949     2.0016     0.0483 F       
  25 C25          -10.0919    -0.8706     4.2692 C.ar    
  26 C26          -11.2819    -1.5741     4.2761 C.ar    
  27 C27          -11.3208    -2.8684     4.7721 C.ar    
  28 C28          -10.1605    -3.4557     5.2632 C.ar    
  29 O29          -12.5013    -3.5458     4.7799 O.3     
  30 C30          -12.4268    -4.9669     4.9374 C.3     
  31 C31          -11.4537    -5.2734     6.0838 C.3     
  32 O32          -10.1748    -4.7276     5.7475 O.3     
  33 O33           -6.6077    -1.1299     5.7569 O.2     
  34 O34           -7.7767     0.8227     4.7232 O.2     
  35 H35           -1.1729    -1.7948     0.0037 H       
  36 H36           -1.2497     3.1414     0.0359 H       
  37 H37           -5.1808     1.2335     2.3077 H       
  38 H38           -5.7306     0.9712     0.6319 H       
  39 H39            2.9466    -1.7382    -0.0366 H       
  40 H40            1.5115    -2.2817     0.8652 H       
  41 H41            1.4932    -2.2721    -0.9146 H       
  42 H42           -7.5647     0.8152     2.4120 H       
  43 H43           -7.4170    -0.6116     1.3529 H       
  44 H44           -5.5993    -2.4661     4.1496 H       
  45 H45           -6.1490    -2.7284     2.4738 H       
  46 H46           -3.7705    -2.3144     2.3684 H       
  47 H47           -3.9155    -0.8858     3.4253 H       
  48 H48           -8.0682    -3.1970     5.6380 H       
  49 H49          -10.0641     0.1378     3.8834 H       
  50 H50          -12.1822    -1.1150     3.8952 H       
  51 H51          -13.4137    -5.3624     5.1775 H       
  52 H52          -12.0629    -5.4203     4.0154 H       
  53 H53          -11.8145    -4.8151     7.0047 H       
  54 H54          -11.3708    -6.3520     6.2173 H       
@<TRIPOS>BOND
   1    1    2 ar
   2    1   10 1
   3    1    6 ar
   4    2    3 ar
   5    2   12 1
   6    3    4 ar
   7    3   35 1
   8    4    5 ar
   9    4    7 1
  10    5    6 ar
  11    5   24 1
  12    6   36 1
  13    7    8 am
  14    7   13 2
  15    7   14 2
  16    8    9 1
  17    8   20 1
  18    9   17 1
  19    9   37 1
  20    9   38 1
  21   10   11 1
  22   11   12 am
  23   11   15 2
  24   12   16 1
  25   16   39 1
  26   16   40 1
  27   16   41 1
  28   17   18 1
  29   17   42 1
  30   17   43 1
  31   18   19 1
  32   18   21 am
  33   19   20 1
  34   19   44 1
  35   19   45 1
  36   20   46 1
  37   20   47 1
  38   21   22 1
  39   21   33 2
  40   21   34 2
  41   22   23 ar
  42   22   25 ar
  43   23   28 ar
  44   23   48 1
  45   25   26 ar
  46   25   49 1
  47   26   27 ar
  48   26   50 1
  49   27   28 ar
  50   27   29 1
  51   28   32 1
  52   29   30 1
  53   30   31 1
  54   30   51 1
  55   30   52 1
  56   31   32 1
  57   31   53 1
  58   31   54 1

#	End of record

