#	Name: ASD01811288
#	Creating user name:	WinNT
#	Creation time:	15. 06. 2019 19:26

#	Modifying user name:	WinNT
#	Modification time:	15. 06. 2019 19:26

#	Program:	/corina/corina34_cracker 3.40 0067  02.08.2006

@<TRIPOS>MOLECULE
ASD01811288
  57   61    0    0    0
SMALL
NO_CHARGES


@<TRIPOS>ATOM
   1 C1             7.0308     8.9352    -0.3600 C.1     
   2 C2             5.6368     8.6188    -0.2752 C.ar    
   3 C3             5.2242     7.2882    -0.1805 C.ar    
   4 C4             3.8797     6.9904    -0.0992 C.ar    
   5 C5             2.9408     8.0067    -0.1118 C.ar    
   6 C6             3.3427     9.3273    -0.2060 C.ar    
   7 C7             4.6842     9.6397    -0.2811 C.ar    
   8 N8             8.1367     9.1863    -0.4273 N.1     
   9 N9            -1.2763     8.3286     0.0701 N.am    
  10 C10           -0.6077     7.9647     1.3268 C.3     
  11 C11            0.8754     8.3337     1.2211 C.3     
  12 C12            1.4738     7.6736    -0.0232 C.3     
  13 C13            0.7569     8.1916    -1.2722 C.3     
  14 C14           -0.7275     7.8210    -1.1948 C.3     
  15 C15           -2.3754     9.1085     0.0778 C.2     
  16 C16           -2.9953     9.4997     1.3620 C.ar    
  17 C17           -3.4570    10.8014     1.5465 C.ar    
  18 C18           -4.0404    11.1615     2.7597 C.ar    
  19 C19           -4.1586    10.2164     3.7821 C.ar    
  20 C20           -3.6986     8.9288     3.5924 C.ar    
  21 C21           -3.1246     8.5638     2.3905 C.ar    
  22 O22           -2.8570     9.4904    -0.9708 O.2     
  23 O23           -4.4819    13.5461     2.0693 O.3     
  24 C24           -4.5324    12.5396     2.9646 C.2     
  25 N25           -5.0997    13.0093     4.0533 N.2     
  26 N26           -5.4007    14.2478     3.8775 N.2     
  27 C27           -5.0378    14.6177     2.6706 C.2     
  28 C28           -5.9409    18.2371     2.2183 C.ar    
  29 C29           -5.8030    16.9981     2.8088 C.ar    
  30 C30           -5.2075    15.9615     2.0799 C.ar    
  31 C31           -4.7768    16.2340     0.7757 C.ar    
  32 C32           -4.9547    17.5027     0.2643 C.ar    
  33 N33           -5.5210    18.4510     0.9860 N.ar    
  34 C34           -4.7892    10.6038     5.0948 C.3     
  35 H35            5.9559     6.4939    -0.1712 H       
  36 H36            3.5591     5.9617    -0.0259 H       
  37 H37            2.6046    10.1157    -0.2157 H       
  38 H38            4.9968    10.6712    -0.3497 H       
  39 H39           -1.0620     8.5105     2.1537 H       
  40 H40           -0.7063     6.8925     1.4960 H       
  41 H41            0.9762     9.4162     1.1428 H       
  42 H42            1.4019     7.9821     2.1084 H       
  43 H43            1.3502     6.5928     0.0442 H       
  44 H44            0.8589     9.2754    -1.3270 H       
  45 H45            1.1992     7.7387    -2.1596 H       
  46 H46           -0.8358     6.7370    -1.2312 H       
  47 H47           -1.2608     8.2719    -2.0316 H       
  48 H48           -3.3628    11.5279     0.7531 H       
  49 H49           -3.7917     8.2023     4.3861 H       
  50 H50           -2.7709     7.5535     2.2471 H       
  51 H51           -6.4030    19.0419     2.7707 H       
  52 H52           -6.1487    16.8303     3.8181 H       
  53 H53           -4.3121    15.4627     0.1794 H       
  54 H54           -4.6256    17.7229    -0.7405 H       
  55 H55           -5.8629    10.4216     5.0499 H       
  56 H56           -4.3529    10.0088     5.8971 H       
  57 H57           -4.6079    11.6614     5.2869 H       
@<TRIPOS>BOND
   1    1    2 1
   2    1    8 3
   3    2    3 ar
   4    2    7 ar
   5    3    4 ar
   6    3   35 1
   7    4    5 ar
   8    4   36 1
   9    5    6 ar
  10    5   12 1
  11    6    7 ar
  12    6   37 1
  13    7   38 1
  14    9   10 1
  15    9   14 1
  16    9   15 am
  17   10   11 1
  18   10   39 1
  19   10   40 1
  20   11   12 1
  21   11   41 1
  22   11   42 1
  23   12   13 1
  24   12   43 1
  25   13   14 1
  26   13   44 1
  27   13   45 1
  28   14   46 1
  29   14   47 1
  30   15   16 1
  31   15   22 2
  32   16   17 ar
  33   16   21 ar
  34   17   18 ar
  35   17   48 1
  36   18   19 ar
  37   18   24 1
  38   19   20 ar
  39   19   34 1
  40   20   21 ar
  41   20   49 1
  42   21   50 1
  43   23   24 1
  44   23   27 1
  45   24   25 2
  46   25   26 1
  47   26   27 2
  48   27   30 1
  49   28   29 ar
  50   28   33 ar
  51   28   51 1
  52   29   30 ar
  53   29   52 1
  54   30   31 ar
  55   31   32 ar
  56   31   53 1
  57   32   33 ar
  58   32   54 1
  59   34   55 1
  60   34   56 1
  61   34   57 1

#	End of record

