#	Name: ASD07930608
#	Creating user name:	WinNT
#	Creation time:	15. 06. 2019 21:12

#	Modifying user name:	WinNT
#	Modification time:	15. 06. 2019 21:12

#	Program:	/corina/corina34_cracker 3.40 0067  02.08.2006

@<TRIPOS>MOLECULE
ASD07930608
  43   44    0    0    0
SMALL
NO_CHARGES


@<TRIPOS>ATOM
   1 C1             1.3746     0.7535    -1.5407 C.3     
   2 N2             2.3152    -2.0776    -1.4355 N.2     
   3 N3             0.0367    -2.5802    -1.3042 N.pl3   
   4 C4            -0.8987    -2.7415    -0.1861 C.3     
   5 C5            -1.5426    -1.3855     0.1346 C.3     
   6 S6            -0.2140    -0.1891     0.4773 S.o2    
   7 N7             0.8066    -0.3912    -0.8242 N.am    
   8 C8             1.0916    -1.6973    -1.1963 C.2     
   9 C9            -0.1431    -3.2516     1.0426 C.3     
  10 C10           -1.9706    -3.7305    -0.5653 C.ar    
  11 C11           -1.6898    -4.7434    -1.4636 C.ar    
  12 C12           -2.6801    -5.6556    -1.8121 C.ar    
  13 C13           -3.9471    -5.5464    -1.2573 C.ar    
  14 C14           -4.2229    -4.5324    -0.3600 C.ar    
  15 C15           -3.2350    -3.6280    -0.0096 C.ar    
  16 O16           -0.6912     1.1437     0.3539 O.2     
  17 O17            0.5545    -0.5969     1.6009 O.2     
  18 F18           -3.5076    -2.6380     0.8683 F       
  19 N19           -2.3987    -6.6831    -2.7227 N.am    
  20 C20           -3.3960    -7.2440    -3.4351 C.2     
  21 O21           -4.5204    -6.7951    -3.3619 O.2     
  22 C22           -3.1140    -8.4288    -4.3227 C.3     
  23 F23           -0.4552    -4.8466    -2.0024 F       
  24 O24           -4.3214    -8.8390    -4.9674 O.3     
  25 C25           -4.1635    -9.9620    -5.8369 C.3     
  26 H26            2.3238     1.0334    -1.0839 H       
  27 H27            1.5389     0.4840    -2.5840 H       
  28 H28            0.6836     1.5948    -1.4873 H       
  29 H29            3.0448    -1.4435    -1.3544 H       
  30 H30           -0.0837    -3.0963    -2.1166 H       
  31 H31           -2.1307    -1.0471    -0.7185 H       
  32 H32           -2.1853    -1.4817     1.0097 H       
  33 H33            0.6924    -2.5855     1.2578 H       
  34 H34           -0.8171    -3.2773     1.8989 H       
  35 H35            0.2337    -4.2554     0.8466 H       
  36 H36           -4.7176    -6.2536    -1.5269 H       
  37 H37           -5.2092    -4.4478     0.0717 H       
  38 H38           -1.4863    -6.9907    -2.8402 H       
  39 H39           -2.3762    -8.1513    -5.0756 H       
  40 H40           -2.7267    -9.2502    -3.7200 H       
  41 H41           -3.4475    -9.7163    -6.6213 H       
  42 H42           -3.7979   -10.8153    -5.2656 H       
  43 H43           -5.1244   -10.2110    -6.2871 H       
@<TRIPOS>BOND
   1    1    7 1
   2    1   26 1
   3    1   27 1
   4    1   28 1
   5    2    8 2
   6    2   29 1
   7    3    4 1
   8    3    8 1
   9    3   30 1
  10    4    5 1
  11    4    9 1
  12    4   10 1
  13    5    6 1
  14    5   31 1
  15    5   32 1
  16    6    7 am
  17    6   16 2
  18    6   17 2
  19    7    8 1
  20    9   33 1
  21    9   34 1
  22    9   35 1
  23   10   11 ar
  24   10   15 ar
  25   11   12 ar
  26   11   23 1
  27   12   13 ar
  28   12   19 1
  29   13   14 ar
  30   13   36 1
  31   14   15 ar
  32   14   37 1
  33   15   18 1
  34   19   20 am
  35   19   38 1
  36   20   21 2
  37   20   22 1
  38   22   24 1
  39   22   39 1
  40   22   40 1
  41   24   25 1
  42   25   41 1
  43   25   42 1
  44   25   43 1

#	End of record

