#	Name: ASD05062002
#	Creating user name:	WinNT
#	Creation time:	15. 06. 2019 20:56

#	Modifying user name:	WinNT
#	Modification time:	15. 06. 2019 20:56

#	Program:	/corina/corina34_cracker 3.40 0067  02.08.2006

@<TRIPOS>MOLECULE
ASD05062002
  72   73    0    0    0
SMALL
NO_CHARGES


@<TRIPOS>ATOM
   1 C1            -0.4099     1.4921    -0.0964 C.2     
   2 C2            -1.7913     2.0945    -0.0953 C.3     
   3 C3            -2.0256     2.8352    -1.4134 C.3     
   4 C4            -3.4473     3.3325    -1.4643 C.2     
   5 O5            -0.2743     0.2916    -0.0773 O.2     
   6 O6             0.6698     2.2891    -0.1241 O.3     
   7 O7            -4.2111     2.8950    -2.2920 O.2     
   8 O8            -3.8650     4.2615    -0.5901 O.3     
   9 O9            -1.7927     1.9459    -2.5075 O.3     
  10 C10           -1.3439     2.4926    -3.6565 C.2     
  11 C11           -1.0915     1.6685    -4.7827 C.2     
  12 C12           -0.6422     2.2158    -5.9329 C.2     
  13 O13           -1.1558     3.6924    -3.7263 O.2     
  14 C14           -0.3806     1.3617    -7.1002 C.ar    
  15 C15            0.0850     1.9268    -8.2931 C.ar    
  16 C16            0.3290     1.1191    -9.3865 C.ar    
  17 C17            0.1114    -0.2560    -9.3006 C.ar    
  18 C18           -0.3508    -0.8171    -8.1177 C.ar    
  19 C19           -0.5908    -0.0195    -7.0203 C.ar    
  20 O20            0.3521    -1.0483   -10.3773 O.3     
  21 C21            1.6277    -1.4039   -10.5995 C.2     
  22 O22            2.5104    -0.9485    -9.9116 O.2     
  23 C23            1.9582    -2.3712   -11.7068 C.3     
  24 O24            0.7809     1.6645   -10.5472 O.3     
  25 C25           -0.1271     1.8854   -11.5110 C.2     
  26 O26           -1.2994     1.6902   -11.2927 O.2     
  27 C27            0.3156     2.3768   -12.8651 C.3     
  28 O28           -2.7633     1.0569     0.0474 O.3     
  29 C29           -3.1285     0.7282     1.3040 C.2     
  30 C30           -4.0887    -0.2931     1.5193 C.2     
  31 C31           -4.4542    -0.6221     2.7772 C.2     
  32 O32           -2.6341     1.3078     2.2523 O.2     
  33 C33           -5.4495    -1.6806     3.0003 C.ar    
  34 C34           -5.8297    -2.0231     4.3030 C.ar    
  35 C35           -6.7653    -3.0186     4.5062 C.ar    
  36 C36           -7.3288    -3.6798     3.4150 C.ar    
  37 C37           -6.9517    -3.3408     2.1225 C.ar    
  38 C38           -6.0238    -2.3447     1.9106 C.ar    
  39 O39           -8.2487    -4.6584     3.6175 O.3     
  40 C40           -9.5105    -4.2683     3.8598 C.2     
  41 O41           -9.8035    -3.0978     3.7970 O.2     
  42 C42          -10.5610    -5.2903     4.2101 C.3     
  43 O43           -7.1368    -3.3544     5.7704 O.3     
  44 C44           -6.4937    -4.3854     6.3411 C.2     
  45 O45           -5.5665    -4.9094     5.7705 O.2     
  46 C46           -6.9283    -4.8891     7.6933 C.3     
  47 H47           -1.8819     2.7941     0.7356 H       
  48 H48           -1.3420     3.6815    -1.4812 H       
  49 H49            1.5347     1.8566    -0.1277 H       
  50 H50           -4.7854     4.5493    -0.6617 H       
  51 H51           -1.2585     0.6033    -4.7207 H       
  52 H52           -0.4752     3.2811    -5.9949 H       
  53 H53            0.2527     2.9917    -8.3585 H       
  54 H54           -0.5184    -1.8823    -8.0564 H       
  55 H55           -0.9455    -0.4596    -6.1000 H       
  56 H56            2.1429    -1.8192   -12.6283 H       
  57 H57            2.8490    -2.9395   -11.4389 H       
  58 H58            1.1219    -3.0547   -11.8539 H       
  59 H59            0.5247     1.5238   -13.5106 H       
  60 H60           -0.4749     2.9826   -13.3081 H       
  61 H61            1.2172     2.9795   -12.7559 H       
  62 H62           -4.5277    -0.8077     0.6773 H       
  63 H63           -4.0153    -0.1075     3.6191 H       
  64 H64           -5.3924    -1.5106     5.1471 H       
  65 H65           -7.3904    -3.8561     1.2808 H       
  66 H66           -5.7362    -2.0797     0.9038 H       
  67 H67          -10.5889    -5.4268     5.2912 H       
  68 H68          -11.5345    -4.9447     3.8623 H       
  69 H69          -10.3195    -6.2388     3.7302 H       
  70 H70           -7.7726    -4.2975     8.0473 H       
  71 H71           -7.2254    -5.9347     7.6132 H       
  72 H72           -6.1011    -4.7993     8.3975 H       
@<TRIPOS>BOND
   1    1    5 2
   2    1    6 1
   3    1    2 1
   4    2    3 1
   5    2   28 1
   6    2   47 1
   7    3    4 1
   8    3    9 1
   9    3   48 1
  10    4    7 2
  11    4    8 1
  12    6   49 1
  13    8   50 1
  14    9   10 1
  15   10   11 1
  16   10   13 2
  17   11   12 2
  18   11   51 1
  19   12   14 1
  20   12   52 1
  21   14   15 ar
  22   14   19 ar
  23   15   16 ar
  24   15   53 1
  25   16   17 ar
  26   16   24 1
  27   17   18 ar
  28   17   20 1
  29   18   19 ar
  30   18   54 1
  31   19   55 1
  32   20   21 1
  33   21   22 2
  34   21   23 1
  35   23   56 1
  36   23   57 1
  37   23   58 1
  38   24   25 1
  39   25   26 2
  40   25   27 1
  41   27   59 1
  42   27   60 1
  43   27   61 1
  44   28   29 1
  45   29   30 1
  46   29   32 2
  47   30   31 2
  48   30   62 1
  49   31   33 1
  50   31   63 1
  51   33   34 ar
  52   33   38 ar
  53   34   35 ar
  54   34   64 1
  55   35   36 ar
  56   35   43 1
  57   36   37 ar
  58   36   39 1
  59   37   38 ar
  60   37   65 1
  61   38   66 1
  62   39   40 1
  63   40   41 2
  64   40   42 1
  65   42   67 1
  66   42   68 1
  67   42   69 1
  68   43   44 1
  69   44   45 2
  70   44   46 1
  71   46   70 1
  72   46   71 1
  73   46   72 1

#	End of record

