#	Name: ASD01900696
#	Creating user name:	WinNT
#	Creation time:	15. 06. 2019 19:52

#	Modifying user name:	WinNT
#	Modification time:	15. 06. 2019 19:52

#	Program:	/corina/corina34_cracker 3.40 0067  02.08.2006

@<TRIPOS>MOLECULE
ASD01900696
  35   38    0    0    0
SMALL
NO_CHARGES


@<TRIPOS>ATOM
   1 C1            -0.0183     1.4025     0.1323 C.ar    
   2 C2            -0.0081     0.0176     0.1212 C.ar    
   3 C3             1.1829    -0.6778     0.0624 C.ar    
   4 C4             2.3875     0.0113     0.0134 C.ar    
   5 C5             2.3724     1.4127     0.0292 C.ar    
   6 O6             3.5588    -0.6564    -0.0561 O.3     
   7 C7             4.7335    -0.0514     0.1904 C.2     
   8 C8             4.8726     1.2949     0.2212 C.2     
   9 C9             3.6750     2.1246    -0.0105 C.2     
  10 C10            5.9228    -0.8910     0.4387 C.ar    
  11 N11            7.0977    -0.3110     0.6852 N.ar    
  12 C12            8.1916    -1.0029     0.9136 C.ar    
  13 C13            8.1647    -2.3938     0.9067 C.ar    
  14 C14            6.9410    -3.0483     0.6499 C.ar    
  15 C15            5.8015    -2.2760     0.4179 C.ar    
  16 C16            1.1700     2.1048     0.0863 C.ar    
  17 N17            9.1102    -3.3716     1.1038 N.pl3   
  18 C18            8.5369    -4.6061     0.9827 C.2     
  19 C19            7.2268    -4.4795     0.7085 C.2     
  20 C20           10.5240    -3.1266     1.3996 C.3     
  21 N21            3.7559     3.4130    -0.2383 N.2     
  22 O22            2.5973     4.1420    -0.6004 O.3     
  23 H23           -0.9575     1.9343     0.1723 H       
  24 H24           -0.9417    -0.5239     0.1594 H       
  25 H25            1.1778    -1.7578     0.0549 H       
  26 H26            5.8340     1.7491     0.4105 H       
  27 H27            9.1202    -0.4868     1.1081 H       
  28 H28            4.8487    -2.7438     0.2182 H       
  29 H29            1.1641     3.1847     0.0952 H       
  30 H30            9.0592    -5.5452     1.0912 H       
  31 H31            6.5204    -5.2829     0.5604 H       
  32 H32           10.6642    -3.0665     2.4789 H       
  33 H33           11.1256    -3.9429     1.0000 H       
  34 H34           10.8340    -2.1881     0.9401 H       
  35 H35            2.7558     5.0845    -0.7478 H       
@<TRIPOS>BOND
   1    1    2 ar
   2    1   16 ar
   3    1   23 1
   4    2    3 ar
   5    2   24 1
   6    3    4 ar
   7    3   25 1
   8    4    5 ar
   9    4    6 1
  10    5   16 ar
  11    5    9 1
  12    6    7 1
  13    7    8 2
  14    7   10 1
  15    8    9 1
  16    8   26 1
  17    9   21 2
  18   10   11 ar
  19   10   15 ar
  20   11   12 ar
  21   12   13 ar
  22   12   27 1
  23   13   14 ar
  24   13   17 1
  25   14   15 ar
  26   14   19 1
  27   15   28 1
  28   16   29 1
  29   17   18 1
  30   17   20 1
  31   18   19 2
  32   18   30 1
  33   19   31 1
  34   20   32 1
  35   20   33 1
  36   20   34 1
  37   21   22 1
  38   22   35 1

#	End of record

