#	Name: ASD01884251
#	Creating user name:	WinNT
#	Creation time:	15. 06. 2019 19:47

#	Modifying user name:	WinNT
#	Modification time:	15. 06. 2019 19:47

#	Program:	/corina/corina34_cracker 3.40 0067  02.08.2006

@<TRIPOS>MOLECULE
ASD01884251
  28   30    0    0    0
SMALL
NO_CHARGES


@<TRIPOS>ATOM
   1 C1            -0.0167     1.3806     0.0096 C.ar    
   2 C2             0.0021    -0.0041     0.0020 C.ar    
   3 C3            -1.1694    -0.7248     0.0098 C.ar    
   4 C4            -2.4121    -0.0739     0.0252 C.ar    
   5 C5            -2.4098     1.3217     0.0327 C.ar    
   6 C6            -1.2299     2.0433     0.0306 C.ar    
   7 N7            -3.6725    -0.6448     0.0342 N.am    
   8 C8            -4.7399     0.1594     0.0487 C.2     
   9 S9            -4.1086     1.8146     0.0516 S.3     
  10 Br10           1.6030     2.3565    -0.0006 Br      
  11 O11           -5.9095    -0.1774     0.0573 O.2     
  12 C12           -3.8337    -2.1009     0.0274 C.3     
  13 C13           -4.5945    -2.5357     1.2816 C.3     
  14 C14           -4.8655    -4.0308     1.4608 C.3     
  15 C15           -3.8226    -3.3322     2.3355 C.3     
  16 C16           -4.6188    -2.5214    -1.2167 C.3     
  17 H17            0.9483    -0.5245    -0.0106 H       
  18 H18           -1.1321    -1.8041     0.0036 H       
  19 H19           -1.2563     3.1229     0.0365 H       
  20 H20           -2.8523    -2.5750     0.0152 H       
  21 H21           -5.3563    -1.8403     1.6340 H       
  22 H22           -5.8055    -4.3190     1.9314 H       
  23 H23           -4.5018    -4.7047     0.6851 H       
  24 H24           -2.7728    -3.5465     2.1353 H       
  25 H25           -4.0764    -3.1608     3.3816 H       
  26 H26           -4.7387    -3.6047    -1.2217 H       
  27 H27           -5.6002    -2.0473    -1.2044 H       
  28 H28           -4.0767    -2.2116    -2.1102 H       
@<TRIPOS>BOND
   1    1    2 ar
   2    1   10 1
   3    1    6 ar
   4    2    3 ar
   5    2   17 1
   6    3    4 ar
   7    3   18 1
   8    4    5 ar
   9    4    7 1
  10    5    6 ar
  11    5    9 1
  12    6   19 1
  13    7    8 am
  14    7   12 1
  15    8    9 1
  16    8   11 2
  17   12   13 1
  18   12   16 1
  19   12   20 1
  20   13   14 1
  21   13   15 1
  22   13   21 1
  23   14   15 1
  24   14   22 1
  25   14   23 1
  26   15   24 1
  27   15   25 1
  28   16   26 1
  29   16   27 1
  30   16   28 1

#	End of record

