#	Name: ASD06390002
#	Creating user name:	WinNT
#	Creation time:	15. 06. 2019 21:06

#	Modifying user name:	WinNT
#	Modification time:	15. 06. 2019 21:06

#	Program:	/corina/corina34_cracker 3.40 0067  02.08.2006

@<TRIPOS>MOLECULE
ASD06390002
  56   58    0    0    0
SMALL
NO_CHARGES


@<TRIPOS>ATOM
   1 Cl1            0.0021    -0.0041     0.0020 Cl      
   2 C2            -0.0224     1.7987     0.0119 C.3     
   3 C3             1.3914     2.3204     0.0012 C.2     
   4 O4             2.3238     1.5449    -0.0118 O.2     
   5 N5             1.6197     3.6486     0.0062 N.am    
   6 C6             2.9941     4.1557    -0.0042 C.3     
   7 C7             2.9734     5.6856     0.0042 C.3     
   8 O8             2.4093     6.1475     1.2332 O.3     
   9 P9             2.2321     7.7087     1.5846 P.3     
  10 O10            1.4570     8.3710     0.5118 O.2     
  11 O11            1.4490     7.8584     2.9833 O.3     
  12 P12            0.6197     9.0504     3.6787 P.3     
  13 O13           -0.2850     9.6680     2.6835 O.2     
  14 O14           -0.2483     8.4594     4.8992 O.3     
  15 C15           -1.1723     9.2487     5.6510 C.3     
  16 C16           -1.8236     8.3816     6.7302 C.3     
  17 O17           -0.8385     7.9852     7.6991 O.3     
  18 C18           -1.5051     7.9271     8.9785 C.3     
  19 C19           -2.4408     9.1626     8.9551 C.3     
  20 C20           -2.8993     9.1942     7.4768 C.3     
  21 O21           -4.1800     8.5759     7.3370 O.3     
  22 O22           -3.5546     8.9755     9.8305 O.3     
  23 N23           -0.5351     8.0353    10.0710 N.pl3   
  24 C24            0.7034     8.6040     9.9974 C.2     
  25 N25            1.2940     8.5257    11.1539 N.2     
  26 C26            0.4733     7.9045    12.0357 C.2     
  27 C27           -0.7075     7.5898    11.3534 C.2     
  28 N28           -1.6990     6.9641    11.9983 N.2     
  29 C29           -1.5851     6.6377    13.2664 C.2     
  30 N30           -2.6284     5.9964    13.8856 N.pl3   
  31 N31           -0.4605     6.9173    13.9841 N.am    
  32 C32            0.5809     7.5516    13.4013 C.2     
  33 O33            1.5911     7.8061    14.0347 O.2     
  34 O34            1.6427    10.1616     4.2364 O.3     
  35 O35            3.6814     8.3996     1.7044 O.3     
  36 H36           -0.5496     2.1598    -0.8711 H       
  37 H37           -0.5326     2.1503     0.9087 H       
  38 H38            0.8740     4.2689     0.0166 H       
  39 H39            3.5213     3.7946     0.8789 H       
  40 H40            3.5043     3.8042    -0.9010 H       
  41 H41            3.9912     6.0633    -0.0931 H       
  42 H42            2.3710     6.0454    -0.8300 H       
  43 H43           -0.6434    10.0778     6.1211 H       
  44 H44           -1.9419     9.6395     4.9854 H       
  45 H45           -2.2723     7.4986     6.2752 H       
  46 H46           -2.0847     7.0084     9.0680 H       
  47 H47           -1.8938    10.0697     9.2122 H       
  48 H48           -2.9273    10.2195     7.1079 H       
  49 H49           -4.8843     9.0132     7.8347 H       
  50 H50           -4.1690     9.7219     9.8505 H       
  51 H51            1.1295     9.0516     9.1117 H       
  52 H52           -3.4351     5.7904    13.3880 H       
  53 H53           -2.5592     5.7492    14.8210 H       
  54 H54           -0.4088     6.6630    14.9187 H       
  55 H55            2.2669     9.8265     4.8945 H       
  56 H56            4.2450     8.0150     2.3896 H       
@<TRIPOS>BOND
   1    1    2 1
   2    2    3 1
   3    2   36 1
   4    2   37 1
   5    3    4 2
   6    3    5 am
   7    5    6 1
   8    5   38 1
   9    6    7 1
  10    6   39 1
  11    6   40 1
  12    7    8 1
  13    7   41 1
  14    7   42 1
  15    8    9 1
  16    9   10 2
  17    9   11 1
  18    9   35 1
  19   11   12 1
  20   12   13 2
  21   12   14 1
  22   12   34 1
  23   14   15 1
  24   15   16 1
  25   15   43 1
  26   15   44 1
  27   16   17 1
  28   16   20 1
  29   16   45 1
  30   17   18 1
  31   18   19 1
  32   18   23 1
  33   18   46 1
  34   19   20 1
  35   19   22 1
  36   19   47 1
  37   20   21 1
  38   20   48 1
  39   21   49 1
  40   22   50 1
  41   23   24 1
  42   23   27 1
  43   24   25 2
  44   24   51 1
  45   25   26 1
  46   26   27 2
  47   26   32 1
  48   27   28 1
  49   28   29 2
  50   29   30 1
  51   29   31 1
  52   30   52 1
  53   30   53 1
  54   31   32 am
  55   31   54 1
  56   32   33 2
  57   34   55 1
  58   35   56 1

#	End of record

