#	Name: ASD02038005
#	Creating user name:	WinNT
#	Creation time:	15. 06. 2019 20:16

#	Modifying user name:	WinNT
#	Modification time:	15. 06. 2019 20:16

#	Program:	/corina/corina34_cracker 3.40 0067  02.08.2006

@<TRIPOS>MOLECULE
ASD02038005
  54   57    0    0    0
SMALL
NO_CHARGES


@<TRIPOS>ATOM
   1 C1            -0.0167     1.3782     0.0096 C.ar    
   2 C2             0.0021    -0.0041     0.0020 C.ar    
   3 C3            -1.2928    -0.7750     0.0098 C.3     
   4 C4            -3.3249    -1.9517    -3.0248 C.3     
   5 N5            -2.8783    -1.7008    -1.6478 N.am    
   6 C6            -1.7375    -1.0243    -1.4083 C.2     
   7 C7            -4.7634    -1.4471    -3.1763 C.3     
   8 C8            -5.6422    -2.0935    -2.1030 C.3     
   9 C9            -5.1336    -1.6936    -0.7160 C.3     
  10 C10           -3.6993    -2.2010    -0.5367 C.3     
  11 C11           -7.0866    -1.6184    -2.2727 C.3     
  12 O12           -7.9273    -2.3094    -1.3464 O.3     
  13 C13           -9.2516    -2.0018    -1.3665 C.ar    
  14 C14          -10.1238    -2.6355    -0.4936 C.ar    
  15 C15           -9.7289    -1.0501    -2.2561 C.ar    
  16 C16          -11.0734    -0.7362    -2.2766 C.ar    
  17 C17          -11.9479    -1.3740    -1.4069 C.ar    
  18 C18          -11.4685    -2.3229    -0.5138 C.ar    
  19 N19          -13.3121    -1.0587    -1.4250 N.am    
  20 C20          -14.0977    -1.3704    -0.3780 C.2     
  21 C21          -13.5258    -2.0455     0.8394 C.3     
  22 C22          -12.4199    -3.0140     0.4281 C.3     
  23 O23           -1.0688    -0.6162    -2.3342 O.2     
  24 O24          -15.2804    -1.1039    -0.4156 O.2     
  25 C25            1.2082    -0.6795    -0.0132 C.ar    
  26 C26            2.3961     0.0270    -0.0208 C.ar    
  27 C27            2.3780     1.4104    -0.0132 C.ar    
  28 C28            1.1706     2.0858     0.0021 C.ar    
  29 Cl29           3.8696     2.2984    -0.0221 Cl      
  30 H30           -0.9593     1.9053     0.0170 H       
  31 H31           -1.1451    -1.7283     0.5172 H       
  32 H32           -2.0555    -0.1989     0.5338 H       
  33 H33           -2.6763    -1.4210    -3.7218 H       
  34 H34           -3.2892    -3.0213    -3.2314 H       
  35 H35           -4.7832    -0.3637    -3.0588 H       
  36 H36           -5.1402    -1.7134    -4.1639 H       
  37 H37           -5.6023    -3.1779    -2.2056 H       
  38 H38           -5.1499    -0.6078    -0.6217 H       
  39 H39           -5.7739    -2.1353     0.0475 H       
  40 H40           -3.6941    -3.2909    -0.5403 H       
  41 H41           -3.2977    -1.8347     0.4081 H       
  42 H42           -7.1412    -0.5464    -2.0831 H       
  43 H43           -7.4199    -1.8250    -3.2898 H       
  44 H44           -9.7511    -3.3734     0.2014 H       
  45 H45           -9.0486    -0.5543    -2.9326 H       
  46 H46          -11.4446     0.0053    -2.9685 H       
  47 H47          -13.6932    -0.6124    -2.1972 H       
  48 H48          -13.1126    -1.2924     1.5105 H       
  49 H49          -14.3153    -2.5931     1.3542 H       
  50 H50          -12.8602    -3.8770    -0.0712 H       
  51 H51          -11.8786    -3.3447     1.3146 H       
  52 H52            1.2222    -1.7594    -0.0187 H       
  53 H53            3.3383    -0.5008    -0.0323 H       
  54 H54            1.1558     3.1656     0.0077 H       
@<TRIPOS>BOND
   1    1    2 ar
   2    1   28 ar
   3    1   30 1
   4    2   25 ar
   5    2    3 1
   6    3    6 1
   7    3   31 1
   8    3   32 1
   9    4    5 1
  10    4    7 1
  11    4   33 1
  12    4   34 1
  13    5    6 am
  14    5   10 1
  15    6   23 2
  16    7    8 1
  17    7   35 1
  18    7   36 1
  19    8    9 1
  20    8   11 1
  21    8   37 1
  22    9   10 1
  23    9   38 1
  24    9   39 1
  25   10   40 1
  26   10   41 1
  27   11   12 1
  28   11   42 1
  29   11   43 1
  30   12   13 1
  31   13   14 ar
  32   13   15 ar
  33   14   18 ar
  34   14   44 1
  35   15   16 ar
  36   15   45 1
  37   16   17 ar
  38   16   46 1
  39   17   18 ar
  40   17   19 1
  41   18   22 1
  42   19   20 am
  43   19   47 1
  44   20   21 1
  45   20   24 2
  46   21   22 1
  47   21   48 1
  48   21   49 1
  49   22   50 1
  50   22   51 1
  51   25   26 ar
  52   25   52 1
  53   26   27 ar
  54   26   53 1
  55   27   28 ar
  56   27   29 1
  57   28   54 1

#	End of record

