#	Name: ASD01918570
#	Creating user name:	WinNT
#	Creation time:	15. 06. 2019 20:11

#	Modifying user name:	WinNT
#	Modification time:	15. 06. 2019 20:11

#	Program:	/corina/corina34_cracker 3.40 0067  02.08.2006

@<TRIPOS>MOLECULE
ASD01918570
  41   44    0    0    0
SMALL
NO_CHARGES


@<TRIPOS>ATOM
   1 F1            -0.1800     0.0012     0.0187 F       
   2 C2            -0.0833     1.3487     0.0216 C.ar    
   3 C3             1.1627     1.9638     0.0005 C.ar    
   4 C4             1.2161     3.3466     0.0038 C.ar    
   5 C5             0.0291     4.0695     0.0279 C.ar    
   6 N6             0.0696     5.4631     0.0315 N.am    
   7 C7            -1.0745     6.1707    -0.0500 C.2     
   8 O8            -2.1332     5.5974    -0.2213 O.2     
   9 C9            -1.0425     7.6395     0.0685 C.ar    
  10 C10            0.1620     8.3011     0.2582 C.ar    
  11 C11            0.2017     9.6850     0.3705 C.ar    
  12 C12           -0.9378    10.4296     0.2976 C.ar    
  13 C13           -2.1792     9.8004     0.1061 C.ar    
  14 C14           -3.3711    10.5450     0.0272 C.ar    
  15 C15           -4.5434     9.8678    -0.1601 C.ar    
  16 C16           -4.5337     8.4801    -0.2668 C.ar    
  17 N17           -3.4193     7.7905    -0.1925 N.ar    
  18 C18           -2.2423     8.3913    -0.0162 C.ar    
  19 C19            1.5258    10.3744     0.5766 C.3     
  20 F20            2.5404     9.6267    -0.0305 F       
  21 F21            1.4812    11.6505     0.0049 F       
  22 C22            1.8051    10.4947     2.0526 C.ar    
  23 C23            1.3797    11.6034     2.7674 C.ar    
  24 N24            1.6432    11.6744     4.0622 N.ar    
  25 C25            2.3007    10.7082     4.6715 C.ar    
  26 N26            2.7205     9.6396     4.0242 N.ar    
  27 C27            2.4886     9.4967     2.7292 C.ar    
  28 N28           -1.1394     3.4480     0.0471 N.ar    
  29 C29           -1.2236     2.1315     0.0397 C.ar    
  30 H30            2.0686     1.3761    -0.0177 H       
  31 H31            2.1675     3.8575    -0.0119 H       
  32 H32            0.9213     5.9233     0.0926 H       
  33 H33            1.0790     7.7338     0.3196 H       
  34 H34           -0.8863    11.5046     0.3876 H       
  35 H35           -3.3596    11.6216     0.1125 H       
  36 H36           -5.4760    10.4086    -0.2247 H       
  37 H37           -5.4671     7.9572    -0.4142 H       
  38 H38            0.8407    12.3987     2.2741 H       
  39 H39            2.5012    10.7946     5.7292 H       
  40 H40            2.8310     8.6163     2.2058 H       
  41 H41           -2.1947     1.6591     0.0520 H       
@<TRIPOS>BOND
   1    1    2 1
   2    2   29 ar
   3    2    3 ar
   4    3    4 ar
   5    3   30 1
   6    4    5 ar
   7    4   31 1
   8    5    6 1
   9    5   28 ar
  10    6    7 am
  11    6   32 1
  12    7    8 2
  13    7    9 1
  14    9   18 ar
  15    9   10 ar
  16   10   11 ar
  17   10   33 1
  18   11   12 ar
  19   11   19 1
  20   12   13 ar
  21   12   34 1
  22   13   18 ar
  23   13   14 ar
  24   14   15 ar
  25   14   35 1
  26   15   16 ar
  27   15   36 1
  28   16   17 ar
  29   16   37 1
  30   17   18 ar
  31   19   20 1
  32   19   21 1
  33   19   22 1
  34   22   27 ar
  35   22   23 ar
  36   23   24 ar
  37   23   38 1
  38   24   25 ar
  39   25   26 ar
  40   25   39 1
  41   26   27 ar
  42   27   40 1
  43   28   29 ar
  44   29   41 1

#	End of record

