#	Name: ASD02198570
#	Creating user name:	WinNT
#	Creation time:	15. 06. 2019 20:19

#	Modifying user name:	WinNT
#	Modification time:	15. 06. 2019 20:19

#	Program:	/corina/corina34_cracker 3.40 0067  02.08.2006

@<TRIPOS>MOLECULE
ASD02198570
  50   54    0    0    0
SMALL
NO_CHARGES


@<TRIPOS>ATOM
   1 C1             0.0071     1.5097     0.1336 C.2     
   2 C2             0.0746     0.1697    -0.0946 C.2     
   3 N3            -1.0518    -0.5605    -0.2649 N.pl3   
   4 N4            -2.2298    -0.0571    -0.2246 N.2     
   5 C5            -2.4375     1.2258    -0.0113 C.2     
   6 C6            -1.2792     2.1065     0.1923 C.2     
   7 C7            -0.9240    -1.9342    -0.4970 C.ar    
   8 C8            -1.3836    -3.8648    -1.8493 C.ar    
   9 C9            -0.6716    -4.6550    -0.9558 C.ar    
  10 C10           -0.0910    -4.0825     0.1688 C.ar    
  11 C11           -0.2171    -2.7273     0.3977 C.ar    
  12 C12           -3.8107     1.7687     0.0275 C.2     
  13 N13           -4.3736     2.4810     1.0489 N.pl3   
  14 N14           -5.6850     2.7997     0.6748 N.2     
  15 C15           -5.9143     2.3074    -0.5164 C.2     
  16 C16           -4.7631     1.6575    -0.9616 C.2     
  17 C17           -3.7509     2.8292     2.2543 C.ar    
  18 C18           -2.9584     1.9038     2.9207 C.ar    
  19 O19           -1.4173     3.3044     0.3943 O.2     
  20 C20           -3.9201     4.1023     2.7825 C.ar    
  21 C21           -3.3047     4.4425     3.9713 C.ar    
  22 C22           -2.5208     3.5169     4.6354 C.ar    
  23 C23           -2.3458     2.2501     4.1091 C.ar    
  24 C24           -1.5103    -2.5079    -1.6218 C.ar    
  25 F25           -2.2029    -1.7386    -2.4899 F       
  26 O26            1.1344     2.2510     0.3053 O.3     
  27 C27            2.3828     1.5592     0.2348 C.3     
  28 N28           -0.5434    -6.0292    -1.1863 N.am    
  29 C29           -0.9853    -6.8406    -2.1546 C.2     
  30 C30           -0.3628    -8.0606    -1.5434 C.3     
  31 C31            0.1261    -7.1031    -0.4638 C.3     
  32 O32           -1.6449    -6.6571    -3.1557 O.2     
  33 H33            1.0380    -0.3162    -0.1407 H       
  34 H34           -1.8349    -4.3103    -2.7236 H       
  35 H35            0.4620    -4.6979     0.8630 H       
  36 H36            0.2344    -2.2833     1.2726 H       
  37 H37           -6.8405     2.3936    -1.0653 H       
  38 H38           -4.6425     1.1520    -1.9084 H       
  39 H39           -2.8216     0.9142     2.5103 H       
  40 H40           -4.5319     4.8257     2.2641 H       
  41 H41           -3.4356     5.4325     4.3824 H       
  42 H42           -2.0407     3.7853     5.5648 H       
  43 H43           -1.7333     1.5293     4.6303 H       
  44 H44            2.4167     0.7913     1.0076 H       
  45 H45            2.4851     1.0932    -0.7452 H       
  46 H46            3.1987     2.2655     0.3883 H       
  47 H47           -1.0852    -8.7976    -1.1923 H       
  48 H48            0.4385    -8.4954    -2.1409 H       
  49 H49            1.2108    -7.0000    -0.4338 H       
  50 H50           -0.3067    -7.2977     0.5175 H       
@<TRIPOS>BOND
   1    1    2 2
   2    1   26 1
   3    1    6 1
   4    2    3 1
   5    2   33 1
   6    3    4 1
   7    3    7 1
   8    4    5 2
   9    5    6 1
  10    5   12 1
  11    6   19 2
  12    7   24 ar
  13    7   11 ar
  14    8    9 ar
  15    8   24 ar
  16    8   34 1
  17    9   10 ar
  18    9   28 1
  19   10   11 ar
  20   10   35 1
  21   11   36 1
  22   12   13 1
  23   12   16 2
  24   13   14 1
  25   13   17 1
  26   14   15 2
  27   15   16 1
  28   15   37 1
  29   16   38 1
  30   17   20 ar
  31   17   18 ar
  32   18   23 ar
  33   18   39 1
  34   20   21 ar
  35   20   40 1
  36   21   22 ar
  37   21   41 1
  38   22   23 ar
  39   22   42 1
  40   23   43 1
  41   24   25 1
  42   26   27 1
  43   27   44 1
  44   27   45 1
  45   27   46 1
  46   28   29 am
  47   28   31 1
  48   29   30 1
  49   29   32 2
  50   30   31 1
  51   30   47 1
  52   30   48 1
  53   31   49 1
  54   31   50 1

#	End of record

