#	Name: ASD05490252
#	Creating user name:	WinNT
#	Creation time:	15. 06. 2019 21:01

#	Modifying user name:	WinNT
#	Modification time:	15. 06. 2019 21:01

#	Program:	/corina/corina34_cracker 3.40 0067  02.08.2006

@<TRIPOS>MOLECULE
ASD05490252
  62   65    0    0    0
SMALL
NO_CHARGES


@<TRIPOS>ATOM
   1 N1            -0.0141     1.3235    -0.0016 N.ar    
   2 C2             0.0026    -0.0006    -0.0084 C.ar    
   3 C3             1.1990    -0.7004    -0.0177 C.ar    
   4 C4             2.3953     0.0106    -0.0206 C.ar    
   5 C5             2.3404     1.4047    -0.0168 C.ar    
   6 C6             1.1046     2.0380    -0.0054 C.ar    
   7 N7             3.6186    -0.6479    -0.0229 N.3     
   8 C8             3.4706    -2.0318    -0.4926 C.3     
   9 C9             4.7908    -2.7480    -0.3696 C.ar    
  10 C10            5.1045    -3.4217     0.7972 C.ar    
  11 C11            6.3146    -4.0818     0.9182 C.ar    
  12 C12            7.2166    -4.0718    -0.1254 C.ar    
  13 C13            6.9063    -3.3939    -1.3055 C.ar    
  14 C14            5.6818    -2.7350    -1.4231 C.ar    
  15 N15            1.0387     3.4288     0.0014 N.pl3   
  16 O16           -1.1706    -0.6834    -0.0058 O.3     
  17 C17           -2.3717     0.0907     0.0044 C.3     
  18 N18            3.5364     2.1439    -0.0281 N.am    
  19 C19            4.6273     0.0692    -0.8098 C.3     
  20 C20            4.6763     1.5173    -0.3971 C.2     
  21 O21            5.7309     2.1170    -0.3962 O.2     
  22 C22            7.8684    -3.3786    -2.4278 C.2     
  23 C23           -3.5818    -0.8455     0.0059 C.3     
  24 O24           -3.6038    -1.5936     1.2233 O.3     
  25 C25           -4.7008    -2.5035     1.3266 C.3     
  26 C26            9.0715    -3.9865    -2.4299 C.2     
  27 S27            7.6173    -2.5708    -3.9699 S.3     
  28 C28            9.1920    -3.1055    -4.5418 C.2     
  29 C29            9.7940    -3.8309    -3.5949 C.2     
  30 C30            9.7725    -2.7969    -5.8978 C.3     
  31 N31            9.3847    -3.8485    -6.8473 N.3     
  32 C32            9.7274    -3.4672    -8.2240 C.3     
  33 C33            9.9985    -5.1340    -6.4888 C.3     
  34 H34            1.2028    -1.7804    -0.0223 H       
  35 H35            2.7222    -2.5430     0.1130 H       
  36 H36            3.1542    -2.0297    -1.5357 H       
  37 H37            4.4019    -3.4322     1.6173 H       
  38 H38            6.5536    -4.6056     1.8320 H       
  39 H39            8.1609    -4.5871    -0.0295 H       
  40 H40            5.4357    -2.2086    -2.3336 H       
  41 H41            1.8548     3.9530    -0.0018 H       
  42 H42            0.1767     3.8734     0.0093 H       
  43 H43           -2.3941     0.7149     0.8977 H       
  44 H44           -2.4034     0.7240    -0.8822 H       
  45 H45            3.5435     3.0810     0.2224 H       
  46 H46            5.6039    -0.3863    -0.6459 H       
  47 H47            4.3736     0.0036    -1.8678 H       
  48 H48           -4.4961    -0.2577    -0.0759 H       
  49 H49           -3.5129    -1.5298    -0.8398 H       
  50 H50           -4.6458    -3.0323     2.2781 H       
  51 H51           -5.6383    -1.9501     1.2722 H       
  52 H52           -4.6551    -3.2221     0.5084 H       
  53 H53            9.4408    -4.5505    -1.5862 H       
  54 H54           10.7749    -4.2621    -3.7307 H       
  55 H55            9.3933    -1.8358    -6.2452 H       
  56 H56           10.8594    -2.7544    -5.8266 H       
  57 H57           10.8030    -3.3074    -8.2996 H       
  58 H58            9.4295    -4.2633    -8.9063 H       
  59 H59            9.2041    -2.5481    -8.4875 H       
  60 H60            9.6722    -5.4266    -5.4907 H       
  61 H61            9.6948    -5.8948    -7.2079 H       
  62 H62           11.0838    -5.0346    -6.5016 H       
@<TRIPOS>BOND
   1    1    2 ar
   2    1    6 ar
   3    2    3 ar
   4    2   16 1
   5    3    4 ar
   6    3   34 1
   7    4    5 ar
   8    4    7 1
   9    5    6 ar
  10    5   18 1
  11    6   15 1
  12    7    8 1
  13    7   19 1
  14    8    9 1
  15    8   35 1
  16    8   36 1
  17    9   10 ar
  18    9   14 ar
  19   10   11 ar
  20   10   37 1
  21   11   12 ar
  22   11   38 1
  23   12   13 ar
  24   12   39 1
  25   13   14 ar
  26   13   22 1
  27   14   40 1
  28   15   41 1
  29   15   42 1
  30   16   17 1
  31   17   23 1
  32   17   43 1
  33   17   44 1
  34   18   20 am
  35   18   45 1
  36   19   20 1
  37   19   46 1
  38   19   47 1
  39   20   21 2
  40   22   27 1
  41   22   26 2
  42   23   24 1
  43   23   48 1
  44   23   49 1
  45   24   25 1
  46   25   50 1
  47   25   51 1
  48   25   52 1
  49   26   29 1
  50   26   53 1
  51   27   28 1
  52   28   29 2
  53   28   30 1
  54   29   54 1
  55   30   31 1
  56   30   55 1
  57   30   56 1
  58   31   32 1
  59   31   33 1
  60   32   57 1
  61   32   58 1
  62   32   59 1
  63   33   60 1
  64   33   61 1
  65   33   62 1

#	End of record

