#	Name: ASD01913532
#	Creating user name:	WinNT
#	Creation time:	15. 06. 2019 20:01

#	Modifying user name:	WinNT
#	Modification time:	15. 06. 2019 20:01

#	Program:	/corina/corina34_cracker 3.40 0067  02.08.2006

@<TRIPOS>MOLECULE
ASD01913532
  35   37    0    0    0
SMALL
NO_CHARGES


@<TRIPOS>ATOM
   1 C1             0.6093     0.4685     1.3085 C.ar    
   2 C2             0.1824    -0.0465     0.0886 C.ar    
   3 C3             0.9862     0.1183    -1.0305 C.ar    
   4 N4             2.1384     0.7525    -0.9436 N.ar    
   5 C5             2.5718     1.2523     0.1973 C.ar    
   6 C6             1.8269     1.1284     1.3549 C.ar    
   7 C7            -0.9786    -2.0548    -0.1108 C.ar    
   8 C8             0.2298    -2.7454    -0.1337 C.ar    
   9 C9             0.2191    -4.1250    -0.2362 C.ar    
  10 N10           -0.9141    -4.7896    -0.3125 N.ar    
  11 C11           -2.0901    -4.1721    -0.2942 C.ar    
  12 C12           -2.1608    -2.7868    -0.1927 C.ar    
  13 C13           -3.3375    -4.9661    -0.3828 C.2     
  14 N14           -3.2761    -6.3089    -0.4814 N.am    
  15 O15           -1.0044    -0.7018    -0.0056 O.3     
  16 C16           -4.4511    -7.0664    -0.4544 C.ar    
  17 C17           -5.6127    -6.5700    -1.0318 C.ar    
  18 C18           -6.7714    -7.3209    -1.0038 C.ar    
  19 C19           -6.7761    -8.5656    -0.4014 C.ar    
  20 C20           -5.6213    -9.0628     0.1745 C.ar    
  21 C21           -4.4578    -8.3194     0.1449 C.ar    
  22 O22           -4.4163    -4.4068    -0.3666 O.2     
  23 H23            0.0044     0.3604     2.1967 H       
  24 H24            0.6645    -0.2775    -1.9825 H       
  25 H25            3.5217     1.7653     0.2274 H       
  26 H26            2.1896     1.5408     2.2848 H       
  27 H27            1.1657    -2.2099    -0.0724 H       
  28 H28            1.1545    -4.6645    -0.2543 H       
  29 H29           -3.1177    -2.2862    -0.1781 H       
  30 H30           -2.4167    -6.7498    -0.5710 H       
  31 H31           -5.6099    -5.5976    -1.5019 H       
  32 H32           -7.6749    -6.9355    -1.4527 H       
  33 H33           -7.6837    -9.1506    -0.3802 H       
  34 H34           -5.6284   -10.0352     0.6445 H       
  35 H35           -3.5562    -8.7083     0.5948 H       
@<TRIPOS>BOND
   1    1    2 ar
   2    1    6 ar
   3    1   23 1
   4    2    3 ar
   5    2   15 1
   6    3    4 ar
   7    3   24 1
   8    4    5 ar
   9    5    6 ar
  10    5   25 1
  11    6   26 1
  12    7    8 ar
  13    7   12 ar
  14    7   15 1
  15    8    9 ar
  16    8   27 1
  17    9   10 ar
  18    9   28 1
  19   10   11 ar
  20   11   12 ar
  21   11   13 1
  22   12   29 1
  23   13   14 am
  24   13   22 2
  25   14   16 1
  26   14   30 1
  27   16   17 ar
  28   16   21 ar
  29   17   18 ar
  30   17   31 1
  31   18   19 ar
  32   18   32 1
  33   19   20 ar
  34   19   33 1
  35   20   21 ar
  36   20   34 1
  37   21   35 1

#	End of record

