#	Name: ASD01880840
#	Creating user name:	WinNT
#	Creation time:	15. 06. 2019 19:41

#	Modifying user name:	WinNT
#	Modification time:	15. 06. 2019 19:41

#	Program:	/corina/corina34_cracker 3.40 0067  02.08.2006

@<TRIPOS>MOLECULE
ASD01880840
  63   66    0    0    0
SMALL
NO_CHARGES


@<TRIPOS>ATOM
   1 N1            -0.0340     1.2604    -0.1616 N.ar    
   2 C2             0.0484    -0.0529    -0.2000 C.ar    
   3 N3             1.1964    -0.6834    -0.0485 N.ar    
   4 C4             2.3219    -0.0148     0.1500 C.ar    
   5 C5             2.2860     1.3676     0.1982 C.ar    
   6 C6             1.0532     2.0042     0.0339 C.ar    
   7 C7             3.5443     2.1660     0.4226 C.3     
   8 O8             4.2258     2.3406    -0.8212 O.3     
   9 C9             5.3866     3.0431    -0.7944 C.ar    
  10 C10            6.1010     3.2503    -1.9704 C.ar    
  11 C11            7.2748     3.9615    -1.9420 C.ar    
  12 C12            7.7590     4.4806    -0.7366 C.ar    
  13 C13            7.0373     4.2699     0.4416 C.ar    
  14 C14            5.8578     3.5599     0.4066 C.ar    
  15 C15            8.2683     4.3578    -3.0057 C.3     
  16 N16            9.3194     5.1192    -2.3212 N.am    
  17 C17            9.0216     5.1876    -1.0124 C.2     
  18 O18            9.6979     5.7531    -0.1750 O.2     
  19 C19            0.9571     3.4835     0.0761 C.ar    
  20 C20            1.8858     4.2647    -0.6094 C.ar    
  21 C21            1.7914     5.6409    -0.5665 C.ar    
  22 C22            0.7779     6.2451     0.1553 C.ar    
  23 C23           -0.1463     5.4749     0.8380 C.ar    
  24 C24           -0.0657     4.0977     0.7968 C.ar    
  25 C25            7.0888     6.2744     1.9005 C.3     
  26 C26            7.5469     4.8226     1.7477 C.3     
  27 C27           10.1769     7.1328    -3.4128 C.3     
  28 C28           10.4996     5.7076    -2.9594 C.3     
  29 C29           -1.4118    -1.0762    -1.9233 C.3     
  30 C30           -1.2054    -0.8587    -0.4229 C.3     
  31 C31            4.2858    -0.9445    -1.0447 C.3     
  32 C32            3.6258    -0.7504     0.3219 C.3     
  33 H33            3.2870     3.1412     0.8359 H       
  34 H34            4.1919     1.6351     1.1203 H       
  35 H35            5.7327     2.8519    -2.9042 H       
  36 H36            5.3004     3.3978     1.3173 H       
  37 H37            8.6929     3.4686    -3.4717 H       
  38 H38            7.7838     4.9805    -3.7576 H       
  39 H39            2.6779     3.7940    -1.1727 H       
  40 H40            2.5105     6.2472    -1.0973 H       
  41 H41            0.7081     7.3224     0.1864 H       
  42 H42           -0.9353     5.9520     1.4003 H       
  43 H43           -0.7880     3.4973     1.3298 H       
  44 H44            7.4830     6.8685     1.0760 H       
  45 H45            5.9996     6.3148     1.8891 H       
  46 H46            7.4574     6.6742     2.8452 H       
  47 H47            7.1527     4.2286     2.5721 H       
  48 H48            8.6361     4.7822     1.7590 H       
  49 H49            9.3522     7.1096    -4.1252 H       
  50 H50            9.8936     7.7337    -2.5486 H       
  51 H51           11.0549     7.5706    -3.8876 H       
  52 H52           11.3242     5.7309    -2.2470 H       
  53 H53           10.7828     5.1068    -3.8236 H       
  54 H54           -2.3187    -1.6590    -2.0845 H       
  55 H55           -1.5071    -0.1109    -2.4206 H       
  56 H56           -0.5568    -1.6135    -2.3336 H       
  57 H57           -1.1102    -1.8240     0.0744 H       
  58 H58           -2.0604    -0.3214    -0.0126 H       
  59 H59            5.2290    -1.4766    -0.9204 H       
  60 H60            3.6241    -1.5236    -1.6888 H       
  61 H61            4.4746     0.0284    -1.4985 H       
  62 H62            4.2876    -0.1713     0.9660 H       
  63 H63            3.4371    -1.7233     0.7757 H       
@<TRIPOS>BOND
   1    1    2 ar
   2    1    6 ar
   3    2    3 ar
   4    2   30 1
   5    3    4 ar
   6    4    5 ar
   7    4   32 1
   8    5    6 ar
   9    5    7 1
  10    6   19 1
  11    7    8 1
  12    7   33 1
  13    7   34 1
  14    8    9 1
  15    9   10 ar
  16    9   14 ar
  17   10   11 ar
  18   10   35 1
  19   11   12 ar
  20   11   15 1
  21   12   13 ar
  22   12   17 1
  23   13   14 ar
  24   13   26 1
  25   14   36 1
  26   15   16 1
  27   15   37 1
  28   15   38 1
  29   16   17 am
  30   16   28 1
  31   17   18 2
  32   19   20 ar
  33   19   24 ar
  34   20   21 ar
  35   20   39 1
  36   21   22 ar
  37   21   40 1
  38   22   23 ar
  39   22   41 1
  40   23   24 ar
  41   23   42 1
  42   24   43 1
  43   25   26 1
  44   25   44 1
  45   25   45 1
  46   25   46 1
  47   26   47 1
  48   26   48 1
  49   27   28 1
  50   27   49 1
  51   27   50 1
  52   27   51 1
  53   28   52 1
  54   28   53 1
  55   29   30 1
  56   29   54 1
  57   29   55 1
  58   29   56 1
  59   30   57 1
  60   30   58 1
  61   31   32 1
  62   31   59 1
  63   31   60 1
  64   31   61 1
  65   32   62 1
  66   32   63 1

#	End of record

