#	Name: ASD01028356
#	Creating user name:	WinNT
#	Creation time:	15. 06. 2019 18:57

#	Modifying user name:	WinNT
#	Modification time:	15. 06. 2019 18:57

#	Program:	/corina/corina34_cracker 3.40 0067  02.08.2006

@<TRIPOS>MOLECULE
ASD01028356
  56   60    0    0    0
SMALL
NO_CHARGES


@<TRIPOS>ATOM
   1 C1            -0.0162     1.4112     0.0119 C.ar    
   2 C2            -0.0227     0.0119     0.2281 C.ar    
   3 C3             1.1873     2.1265     0.2038 C.ar    
   4 C4             2.3082     1.4169     0.5967 C.ar    
   5 C5             2.2221     0.0439     0.7887 C.ar    
   6 N6             1.0992    -0.6108     0.6082 N.ar    
   7 O7             1.2420     3.4670     0.0084 O.3     
   8 C8             2.5261     4.0856     0.1105 C.3     
   9 C9             2.5384     5.3547    -0.7021 C.2     
  10 N10            3.5211     5.7565    -1.5464 N.pl3   
  11 C11            3.1061     6.9619    -2.0624 C.2     
  12 N12            1.9277     7.2243    -1.5221 N.2     
  13 N13            1.5995     6.2676    -0.7259 N.2     
  14 N14            4.7466     5.2126    -1.9357 N.2     
  15 C15            5.5133     5.8452    -2.7964 C.2     
  16 C16            5.1157     7.0839    -3.3433 C.2     
  17 C17            3.9278     7.6380    -2.9841 C.2     
  18 C18            6.8116     5.2503    -3.1969 C.ar    
  19 C19           -1.2163    -0.7036     0.0388 C.ar    
  20 C20            7.2120     4.0261    -2.6603 C.ar    
  21 C21            8.4160     3.4710    -3.0302 C.ar    
  22 C22            9.2392     4.1334    -3.9443 C.ar    
  23 C23            8.8378     5.3613    -4.4827 C.ar    
  24 C24            7.6273     5.9119    -4.1131 C.ar    
  25 C25           -2.3546    -0.0363    -0.3519 C.ar    
  26 C26           -2.3367     1.3458    -0.5631 C.ar    
  27 C27           -1.1951     2.0630    -0.3807 C.ar    
  28 O28           -3.5090    -0.7284    -0.5349 O.3     
  29 C29           -4.6568     0.0199    -0.9406 C.3     
  30 C30            2.8184     4.4154     1.5757 C.3     
  31 F31            9.6319     6.0044    -5.3665 F       
  32 C32           10.5310     3.5392    -4.3414 C.2     
  33 O33           11.2467     4.1163    -5.1369 O.2     
  34 N34           10.9168     2.3569    -3.8220 N.am    
  35 C35           12.1987     1.7671    -4.2160 C.3     
  36 H36            3.2464     1.9285     0.7531 H       
  37 H37            3.1035    -0.4997     1.0954 H       
  38 H38            3.2886     3.4046    -0.2677 H       
  39 H39            5.7563     7.5923    -4.0487 H       
  40 H40            3.6185     8.5856    -3.3999 H       
  41 H41           -1.2405    -1.7714     0.1987 H       
  42 H42            6.5765     3.5135    -1.9533 H       
  43 H43            8.7245     2.5236    -2.6136 H       
  44 H44            7.3159     6.8594    -4.5276 H       
  45 H45           -3.2408     1.8506    -0.8703 H       
  46 H46           -1.1938     3.1301    -0.5470 H       
  47 H47           -5.5082    -0.6517    -1.0505 H       
  48 H48           -4.8838     0.7741    -0.1871 H       
  49 H49           -4.4538     0.5083    -1.8937 H       
  50 H50            2.8095     3.4974     2.1634 H       
  51 H51            3.7979     4.8872     1.6535 H       
  52 H52            2.0559     5.0964     1.9539 H       
  53 H53           10.3458     1.8964    -3.1873 H       
  54 H54           12.2045     1.5963    -5.2925 H       
  55 H55           13.0082     2.4476    -3.9518 H       
  56 H56           12.3372     0.8188    -3.6969 H       
@<TRIPOS>BOND
   1    1    2 ar
   2    1    3 ar
   3    1   27 ar
   4    2   19 ar
   5    2    6 ar
   6    3    4 ar
   7    3    7 1
   8    4    5 ar
   9    4   36 1
  10    5    6 ar
  11    5   37 1
  12    7    8 1
  13    8    9 1
  14    8   30 1
  15    8   38 1
  16    9   10 1
  17    9   13 2
  18   10   11 1
  19   10   14 1
  20   11   12 2
  21   11   17 1
  22   12   13 1
  23   14   15 2
  24   15   16 1
  25   15   18 1
  26   16   17 2
  27   16   39 1
  28   17   40 1
  29   18   20 ar
  30   18   24 ar
  31   19   25 ar
  32   19   41 1
  33   20   21 ar
  34   20   42 1
  35   21   22 ar
  36   21   43 1
  37   22   23 ar
  38   22   32 1
  39   23   24 ar
  40   23   31 1
  41   24   44 1
  42   25   26 ar
  43   25   28 1
  44   26   27 ar
  45   26   45 1
  46   27   46 1
  47   28   29 1
  48   29   47 1
  49   29   48 1
  50   29   49 1
  51   30   50 1
  52   30   51 1
  53   30   52 1
  54   32   33 2
  55   32   34 am
  56   34   35 1
  57   34   53 1
  58   35   54 1
  59   35   55 1
  60   35   56 1

#	End of record

