#	Name: ASD00570011
#	Creating user name:	WinNT
#	Creation time:	15. 06. 2019 18:36

#	Modifying user name:	WinNT
#	Modification time:	15. 06. 2019 18:36

#	Program:	/corina/corina34_cracker 3.40 0067  02.08.2006

@<TRIPOS>MOLECULE
ASD00570011
  64   67    0    0    0
SMALL
NO_CHARGES


@<TRIPOS>ATOM
   1 C1             6.3591    -2.2120    -6.9551 C.ar    
   2 C2             5.8269    -3.3069    -6.2865 C.ar    
   3 C3             5.6840    -3.2963    -4.9177 C.ar    
   4 C4             6.0792    -2.1710    -4.1891 C.ar    
   5 C5             6.6210    -1.0585    -4.8730 C.ar    
   6 C6             6.7560    -1.0909    -6.2600 C.ar    
   7 N7             5.9549    -2.1205    -2.8421 N.2     
   8 C8             6.3249    -1.0657    -2.1587 C.2     
   9 N9             6.8571     0.0511    -2.7417 N.am    
  10 C10            7.0276     0.1111    -4.0826 C.2     
  11 C11            7.2288     1.1416    -1.9441 C.ar    
  12 C12            8.5151     1.2200    -1.4288 C.ar    
  13 C13            8.8787     2.2964    -0.6427 C.ar    
  14 C14            7.9628     3.2951    -0.3683 C.ar    
  15 C15            6.6799     3.2205    -0.8794 C.ar    
  16 C16            6.3118     2.1499    -1.6719 C.ar    
  17 S17            6.1270    -1.0866    -0.4080 S.3     
  18 C18            5.2584    -2.6621    -0.2087 C.3     
  19 C19            6.1906    -3.7962    -0.5489 C.2     
  20 C20            4.7882    -2.8055     1.2402 C.3     
  21 C21            3.7364    -1.7365     1.5432 C.3     
  22 C22            3.1734    -1.9589     2.9484 C.3     
  23 C23            2.1216    -0.8899     3.2514 C.3     
  24 N24            5.6915    -4.9774    -0.9637 N.am    
  25 C25            6.5876    -6.0924    -1.2991 C.3     
  26 C26            6.2523    -6.5874    -2.7095 C.3     
  27 C27            4.7634    -6.9334    -2.7839 C.3     
  28 C28            3.9319    -5.6800    -2.5015 C.3     
  29 C29            4.2407    -5.1765    -1.0834 C.3     
  30 O30            7.3899    -3.6460    -0.4495 O.2     
  31 C31            4.4369    -7.4529    -4.1603 C.2     
  32 N32            3.1758    -7.8230    -4.4593 N.am    
  33 O33            5.3088    -7.5381    -4.9990 O.2     
  34 O34            7.5005     1.0986    -4.6148 O.2     
  35 Cl35           4.7015     2.0568    -2.3138 Cl      
  36 H36            6.4669    -2.2415    -8.0293 H       
  37 H37            5.5210    -4.1774    -6.8478 H       
  38 H38            5.2682    -4.1534    -4.4090 H       
  39 H39            7.1694    -0.2431    -6.7860 H       
  40 H40            9.2312     0.4401    -1.6419 H       
  41 H41            9.8796     2.3576    -0.2417 H       
  42 H42            8.2498     4.1351     0.2468 H       
  43 H43            5.9666     4.0019    -0.6627 H       
  44 H44            4.3960    -2.6883    -0.8748 H       
  45 H45            4.3534    -3.7944     1.3848 H       
  46 H46            5.6375    -2.6802     1.9118 H       
  47 H47            4.1951    -0.7493     1.4876 H       
  48 H48            2.9293    -1.8038     0.8137 H       
  49 H49            2.7147    -2.9461     3.0040 H       
  50 H50            3.9805    -1.8916     3.6780 H       
  51 H51            2.5803     0.0973     3.1958 H       
  52 H52            1.3145    -0.9572     2.5219 H       
  53 H53            1.7205    -1.0483     4.2525 H       
  54 H54            7.6225    -5.7516    -1.2678 H       
  55 H55            6.4458    -6.9029    -0.5841 H       
  56 H56            6.4807    -5.8052    -3.4335 H       
  57 H57            6.8438    -7.4751    -2.9337 H       
  58 H58            4.5308    -7.6981    -2.0428 H       
  59 H59            4.1821    -4.9063    -3.2274 H       
  60 H60            2.8718    -5.9219    -2.5777 H       
  61 H61            3.9062    -5.9134    -0.3531 H       
  62 H62            3.7278    -4.2301    -0.9119 H       
  63 H63            2.4785    -7.7549    -3.7886 H       
  64 H64            2.9657    -8.1574    -5.3453 H       
@<TRIPOS>BOND
   1    1    2 ar
   2    1    6 ar
   3    1   36 1
   4    2    3 ar
   5    2   37 1
   6    3    4 ar
   7    3   38 1
   8    4    5 ar
   9    4    7 1
  10    5    6 ar
  11    5   10 1
  12    6   39 1
  13    7    8 2
  14    8    9 1
  15    8   17 1
  16    9   10 am
  17    9   11 1
  18   10   34 2
  19   11   12 ar
  20   11   16 ar
  21   12   13 ar
  22   12   40 1
  23   13   14 ar
  24   13   41 1
  25   14   15 ar
  26   14   42 1
  27   15   16 ar
  28   15   43 1
  29   16   35 1
  30   17   18 1
  31   18   19 1
  32   18   20 1
  33   18   44 1
  34   19   24 am
  35   19   30 2
  36   20   21 1
  37   20   45 1
  38   20   46 1
  39   21   22 1
  40   21   47 1
  41   21   48 1
  42   22   23 1
  43   22   49 1
  44   22   50 1
  45   23   51 1
  46   23   52 1
  47   23   53 1
  48   24   25 1
  49   24   29 1
  50   25   26 1
  51   25   54 1
  52   25   55 1
  53   26   27 1
  54   26   56 1
  55   26   57 1
  56   27   28 1
  57   27   31 1
  58   27   58 1
  59   28   29 1
  60   28   59 1
  61   28   60 1
  62   29   61 1
  63   29   62 1
  64   31   32 am
  65   31   33 2
  66   32   63 1
  67   32   64 1

#	End of record

