#	Name: ASD08150338
#	Creating user name:	WinNT
#	Creation time:	15. 06. 2019 21:15

#	Modifying user name:	WinNT
#	Modification time:	15. 06. 2019 21:15

#	Program:	/corina/corina34_cracker 3.40 0067  02.08.2006

@<TRIPOS>MOLECULE
ASD08150338
  72   78    0    0    0
SMALL
NO_CHARGES


@<TRIPOS>ATOM
   1 N1             0.2098     1.9252     0.0295 N.am    
   2 C2             0.5749     1.3353    -1.1268 C.2     
   3 O3             1.6623     0.5454    -1.2125 O.3     
   4 C4             2.6746     0.8069    -0.3419 C.2     
   5 C5             2.2710     1.2219     1.0128 C.ar    
   6 C6             3.0941     1.0754     2.1323 C.ar    
   7 N7             2.6871     1.4547     3.3202 N.ar    
   8 C8             1.4774     1.9966     3.5244 C.ar    
   9 C9             0.5817     2.1848     2.4401 C.ar    
  10 C10            0.9926     1.7876     1.1524 C.ar    
  11 C11           -0.6762     2.7527     2.6673 C.ar    
  12 C12           -1.0354     3.1251     3.9519 C.ar    
  13 C13           -0.1453     2.9347     5.0189 C.ar    
  14 C14            1.0811     2.3847     4.8152 C.ar    
  15 O15           -0.0978     1.5217    -2.1213 O.2     
  16 C16           -2.3672     3.7284     4.2004 C.ar    
  17 C17           -0.9673     2.6852     0.0861 C.ar    
  18 C18           -0.8975     4.0719     0.1191 C.ar    
  19 C19           -2.0559     4.8202     0.1747 C.ar    
  20 C20           -3.2919     4.1862     0.1977 C.ar    
  21 C21           -3.3614     2.7995     0.1647 C.ar    
  22 C22           -2.2025     2.0515     0.1033 C.ar    
  23 N23           -4.4657     4.9441     0.2546 N.3     
  24 C24           -3.3131     3.8050     3.1657 C.ar    
  25 C25           -5.0833     5.0586    -1.0734 C.3     
  26 C26           -6.4512     5.7362    -0.9402 C.3     
  27 N27           -6.2744     7.0091    -0.2248 N.am    
  28 C28           -5.5424     6.9945     1.0508 C.3     
  29 C29           -4.2102     6.2673     0.8393 C.3     
  30 C30           -6.7697     8.1584    -0.7250 C.2     
  31 O31           -7.3705     8.1521    -1.7785 O.2     
  32 C32           -6.5770     9.4514     0.0248 C.3     
  33 N33           -4.4958     4.3321     3.3562 N.ar    
  34 C34           -4.8626     4.8232     4.5448 C.ar    
  35 C35           -3.9633     4.7821     5.6400 C.ar    
  36 C36           -2.6897     4.2161     5.4587 C.ar    
  37 C37           -7.2304    10.5948    -0.7540 C.3     
  38 C38           -6.1374     5.3860     4.7300 C.ar    
  39 C39           -6.4882     5.8799     5.9487 C.ar    
  40 C40           -5.6028     5.8385     7.0239 C.ar    
  41 C41           -4.3597     5.3015     6.8841 C.ar    
  42 O42            3.8426     0.7037    -0.6627 O.2     
  43 C43           -4.7019     2.1114     0.1901 C.3     
  44 F44           -4.5142     0.7273     0.2683 F       
  45 F45           -5.4287     2.5471     1.3033 F       
  46 F46           -5.4073     2.4211    -0.9777 F       
  47 H47            4.0777     0.6442     2.0183 H       
  48 H48           -1.3625     2.9001     1.8465 H       
  49 H49           -0.4381     3.2292     6.0158 H       
  50 H50            1.7535     2.2459     5.6489 H       
  51 H51            0.0633     4.5647     0.1015 H       
  52 H52           -2.0016     5.8985     0.2007 H       
  53 H53           -2.2567     0.9733     0.0728 H       
  54 H54           -3.0585     3.4202     2.1892 H       
  55 H55           -4.4429     5.6563    -1.7220 H       
  56 H56           -5.2099     4.0647    -1.5025 H       
  57 H57           -6.8632     5.9273    -1.9311 H       
  58 H58           -7.1263     5.0909    -0.3781 H       
  59 H59           -5.3535     8.0174     1.3763 H       
  60 H60           -6.1301     6.4701     1.8043 H       
  61 H61           -3.7037     6.1500     1.7973 H       
  62 H62           -3.5820     6.8482     0.1640 H       
  63 H63           -7.0378     9.3725     1.0094 H       
  64 H64           -5.5113     9.6508     0.1373 H       
  65 H65           -1.9808     4.1691     6.2721 H       
  66 H66           -7.0910    11.5300    -0.2117 H       
  67 H67           -6.7695    10.6736    -1.7387 H       
  68 H68           -8.2960    10.3954    -0.8665 H       
  69 H69           -6.8362     5.4267     3.9075 H       
  70 H70           -7.4689     6.3114     6.0846 H       
  71 H71           -5.9065     6.2378     7.9803 H       
  72 H72           -3.6818     5.2752     7.7245 H       
@<TRIPOS>BOND
   1    1    2 am
   2    1   10 1
   3    1   17 1
   4    2    3 1
   5    2   15 2
   6    3    4 1
   7    4    5 1
   8    4   42 2
   9    5    6 ar
  10    5   10 ar
  11    6    7 ar
  12    6   47 1
  13    7    8 ar
  14    8    9 ar
  15    8   14 ar
  16    9   10 ar
  17    9   11 ar
  18   11   12 ar
  19   11   48 1
  20   12   13 ar
  21   12   16 1
  22   13   14 ar
  23   13   49 1
  24   14   50 1
  25   16   24 ar
  26   16   36 ar
  27   17   18 ar
  28   17   22 ar
  29   18   19 ar
  30   18   51 1
  31   19   20 ar
  32   19   52 1
  33   20   21 ar
  34   20   23 1
  35   21   22 ar
  36   21   43 1
  37   22   53 1
  38   23   25 1
  39   23   29 1
  40   24   33 ar
  41   24   54 1
  42   25   26 1
  43   25   55 1
  44   25   56 1
  45   26   27 1
  46   26   57 1
  47   26   58 1
  48   27   28 1
  49   27   30 am
  50   28   29 1
  51   28   59 1
  52   28   60 1
  53   29   61 1
  54   29   62 1
  55   30   31 2
  56   30   32 1
  57   32   37 1
  58   32   63 1
  59   32   64 1
  60   33   34 ar
  61   34   35 ar
  62   34   38 ar
  63   35   36 ar
  64   35   41 ar
  65   36   65 1
  66   37   66 1
  67   37   67 1
  68   37   68 1
  69   38   39 ar
  70   38   69 1
  71   39   40 ar
  72   39   70 1
  73   40   41 ar
  74   40   71 1
  75   41   72 1
  76   43   44 1
  77   43   45 1
  78   43   46 1

#	End of record

