#	Name: ASD03331725
#	Creating user name:	WinNT
#	Creation time:	15. 06. 2019 20:39

#	Modifying user name:	WinNT
#	Modification time:	15. 06. 2019 20:39

#	Program:	/corina/corina34_cracker 3.40 0067  02.08.2006

@<TRIPOS>MOLECULE
ASD03331725
  49   51    0    0    0
SMALL
NO_CHARGES


@<TRIPOS>ATOM
   1 C1             0.0326     1.3094     0.0873 C.ar    
   2 C2             0.0579    -0.0559     0.0671 C.ar    
   3 C3             1.2669    -0.7404     0.0268 C.ar    
   4 C4             2.4610    -0.0550     0.0063 C.ar    
   5 C5             1.2344     2.0287     0.0666 C.ar    
   6 C6             1.5405     3.4111     0.0781 C.2     
   7 C7             2.4608     1.3367     0.0257 C.ar    
   8 N8             3.4634     2.2780     0.0133 N.pl3   
   9 C9             2.8930     3.5358     0.0448 C.2     
  10 C10            3.6320     4.8072     0.0431 C.2     
  11 N11            4.9793     4.8035     0.0082 N.am    
  12 O12            3.0272     5.8623     0.0730 O.2     
  13 C13            5.7155     6.0701     0.0065 C.3     
  14 C14            7.2184     5.7864    -0.0362 C.3     
  15 C15            7.9757     7.0893    -0.0380 C.ar    
  16 C16            8.9804     8.8989    -1.2419 C.ar    
  17 C17            8.2865     7.7049    -1.2366 C.ar    
  18 C18            8.3533     7.6694     1.1592 C.ar    
  19 C19            9.0470     8.8636     1.1611 C.ar    
  20 C20            9.3658     9.4818    -0.0413 C.ar    
  21 C21            0.5446     4.5414     0.1191 C.3     
  22 Cl22          -1.4333    -0.9443     0.0927 Cl      
  23 N23           10.0677    10.6893    -0.0430 N.pl3   
  24 C24           10.5109    11.2772    -1.3096 C.3     
  25 C25           10.3607    11.3680     1.2218 C.3     
  26 N26            0.2571     4.8885     1.5131 N.pl3   
  27 N27           -0.5492     5.8071     1.7749 N.1     
  28 N28           -1.2159     6.5666     1.9914 N.1     
  29 H29           -0.9115     1.8332     0.1145 H       
  30 H30            1.2698    -1.8203     0.0116 H       
  31 H31            3.3953    -0.5959    -0.0243 H       
  32 H32            4.4146     2.0898    -0.0127 H       
  33 H33            5.4615     3.9622    -0.0157 H       
  34 H34            5.4311     6.6544    -0.8686 H       
  35 H35            5.4770     6.6302     0.9106 H       
  36 H36            7.5028     5.2021     0.8389 H       
  37 H37            7.4569     5.2263    -0.9403 H       
  38 H38            9.2225     9.3794    -2.1784 H       
  39 H39            7.9866     7.2512    -2.1697 H       
  40 H40            8.1051     7.1883     2.0937 H       
  41 H41            9.3410     9.3165     2.0965 H       
  42 H42            0.9590     5.4096    -0.3934 H       
  43 H43           -0.3762     4.2326    -0.3757 H       
  44 H44            9.7344    11.9381    -1.6948 H       
  45 H45           11.4250    11.8477    -1.1452 H       
  46 H46           10.7030    10.4832    -2.0312 H       
  47 H47            9.8753    10.8365     2.0403 H       
  48 H48           11.4382    11.3816     1.3857 H       
  49 H49            9.9866    12.3910     1.1804 H       
@<TRIPOS>BOND
   1    1    2 ar
   2    1    5 ar
   3    1   29 1
   4    2    3 ar
   5    2   22 1
   6    3    4 ar
   7    3   30 1
   8    4    7 ar
   9    4   31 1
  10    5    7 ar
  11    5    6 1
  12    6    9 2
  13    6   21 1
  14    7    8 1
  15    8    9 1
  16    8   32 1
  17    9   10 1
  18   10   11 am
  19   10   12 2
  20   11   13 1
  21   11   33 1
  22   13   14 1
  23   13   34 1
  24   13   35 1
  25   14   15 1
  26   14   36 1
  27   14   37 1
  28   15   18 ar
  29   15   17 ar
  30   16   17 ar
  31   16   20 ar
  32   16   38 1
  33   17   39 1
  34   18   19 ar
  35   18   40 1
  36   19   20 ar
  37   19   41 1
  38   20   23 1
  39   21   26 1
  40   21   42 1
  41   21   43 1
  42   23   24 1
  43   23   25 1
  44   24   44 1
  45   24   45 1
  46   24   46 1
  47   25   47 1
  48   25   48 1
  49   25   49 1
  50   26   27 1
  51   27   28 3

#	End of record

