#	Name: ASD00843283
#	Creating user name:	WinNT
#	Creation time:	15. 06. 2019 18:46

#	Modifying user name:	WinNT
#	Modification time:	15. 06. 2019 18:46

#	Program:	/corina/corina34_cracker 3.40 0067  02.08.2006

@<TRIPOS>MOLECULE
ASD00843283
  88   93    0    0    0
SMALL
NO_CHARGES


@<TRIPOS>ATOM
   1 N1             0.7498     1.1397    -0.5947 N.ar    
   2 C2             0.9625    -0.1486    -0.8041 C.ar    
   3 C3             0.9010    -1.0560     0.2460 C.ar    
   4 C4             0.6137    -0.5946     1.5185 C.ar    
   5 C5             0.3968     0.7650     1.6965 C.ar    
   6 C6             0.4737     1.6095     0.6072 C.ar    
   7 C7             1.1436    -2.5233     0.0024 C.3     
   8 C8             0.8859    -3.3200     1.2637 C.2     
   9 C9             0.2609    -3.0287    -1.1406 C.3     
  10 C10           -1.1795    -2.6970    -0.8472 C.2     
  11 N11           -2.1498    -3.1046    -1.6891 N.am    
  12 O12           -1.4657    -2.0633     0.1465 O.2     
  13 C13           -3.5439    -2.6894    -1.4819 C.3     
  14 C14           -4.4299    -3.9385    -1.4441 C.3     
  15 C15           -4.2011    -4.7600    -2.7149 C.3     
  16 C16           -2.7388    -5.2068    -2.7791 C.3     
  17 C17           -1.8327    -3.9675    -2.8352 C.3     
  18 C18           -5.1098    -5.9907    -2.6969 C.3     
  19 C19           -6.5735    -5.5453    -2.6343 C.3     
  20 C20           -7.4792    -6.7781    -2.6780 C.3     
  21 N21           -7.2293    -7.5270    -3.9161 N.3     
  22 C22           -5.8423    -8.0057    -3.9764 C.3     
  23 C23           -4.8877    -6.8096    -3.9715 C.3     
  24 H24           -7.8803    -8.2917    -4.0138 H       
  25 O25           -0.1662    -3.4020     1.8615 O.2     
  26 N26            2.0418    -3.9188     1.5966 N.am    
  27 C27            2.6028    -2.7757    -0.3002 C.ar    
  28 C28            3.0689    -3.6202     0.6999 C.ar    
  29 C29            3.4386    -2.3420    -1.3045 C.ar    
  30 C30            4.7624    -2.7481    -1.3255 C.ar    
  31 C31            5.2398    -3.5903    -0.3338 C.ar    
  32 C32            4.4012    -4.0259     0.6744 C.ar    
  33 Cl33           5.8202    -2.2044    -2.5901 Cl      
  34 F34            6.5310    -3.9873    -0.3530 F       
  35 C35            1.8611    -6.5435     2.4044 C.ar    
  36 C36            0.5789    -6.8726     1.9899 C.ar    
  37 C37            2.8529    -7.5055     2.4080 C.ar    
  38 C38            2.5684    -8.7949     1.9985 C.ar    
  39 C39            1.2909    -9.1254     1.5848 C.ar    
  40 C40            0.2958    -8.1676     1.5798 C.ar    
  41 H41            1.0712   -10.1334     1.2654 H       
  42 O42           -0.3985    -5.9284     1.9858 O.3     
  43 C43           -1.6949    -6.3385     1.5465 C.3     
  44 C44           -2.6551    -5.1490     1.6108 C.3     
  45 O45            1.2429    -0.5884    -2.0566 O.3     
  46 C46            1.2136     0.3808    -3.1063 C.3     
  47 C47            1.6449    -0.2759    -4.4191 C.3     
  48 F48            2.9082    -0.8549    -4.2579 F       
  49 F49            0.7203    -1.2649    -4.7716 F       
  50 S50            2.2264    -4.8984     2.9189 S.o2    
  51 O51            3.6097    -4.8775     3.2438 O.2     
  52 O52            1.2067    -4.5294     3.8372 O.2     
  53 H53            0.5590    -1.2767     2.3540 H       
  54 H54            0.1700     1.1578     2.6767 H       
  55 H55            0.3062     2.6681     0.7404 H       
  56 H56            0.5620    -2.5486    -2.0717 H       
  57 H57            0.3730    -4.1087    -1.2359 H       
  58 H58           -3.6286    -2.1526    -0.5370 H       
  59 H59           -3.8583    -2.0430    -2.3012 H       
  60 H60           -4.1744    -4.5396    -0.5715 H       
  61 H61           -5.4768    -3.6404    -1.3872 H       
  62 H62           -4.4332    -4.1503    -3.5881 H       
  63 H63           -2.4992    -5.7960    -1.8939 H       
  64 H64           -2.5820    -5.8114    -3.6724 H       
  65 H65           -2.0090    -3.4278    -3.7657 H       
  66 H66           -0.7885    -4.2756    -2.7812 H       
  67 H67           -4.8776    -6.6022    -1.8249 H       
  68 H68           -6.7480    -4.9980    -1.7080 H       
  69 H69           -6.7944    -4.9011    -3.4854 H       
  70 H70           -7.2672    -7.4150    -1.8192 H       
  71 H71           -8.5224    -6.4636    -2.6480 H       
  72 H72           -5.6381    -8.6369    -3.1115 H       
  73 H73           -5.6967    -8.5829    -4.8895 H       
  74 H74           -5.0822    -6.1853    -4.8436 H       
  75 H75           -3.8580    -7.1657    -4.0005 H       
  76 H76            3.0621    -1.6860    -2.0754 H       
  77 H77            4.7797    -4.6819     1.4443 H       
  78 H78            3.8514    -7.2498     2.7306 H       
  79 H79            3.3452    -9.5452     2.0014 H       
  80 H80           -0.7019    -8.4264     1.2573 H       
  81 H81           -1.6331    -6.7004     0.5202 H       
  82 H82           -2.0616    -7.1367     2.1918 H       
  83 H83           -2.2885    -4.3508     0.9655 H       
  84 H84           -3.6440    -5.4619     1.2757 H       
  85 H85           -2.7169    -4.7871     2.6371 H       
  86 H86            0.2017     0.7723    -3.2111 H       
  87 H87            1.8957     1.1965    -2.8668 H       
  88 H88            1.6883     0.4778    -5.2053 H       
@<TRIPOS>BOND
   1    1    2 ar
   2    1    6 ar
   3    2    3 ar
   4    2   45 1
   5    3    4 ar
   6    3    7 1
   7    4    5 ar
   8    4   53 1
   9    5    6 ar
  10    5   54 1
  11    6   55 1
  12    7    8 1
  13    7    9 1
  14    7   27 1
  15    8   25 2
  16    8   26 am
  17    9   10 1
  18    9   56 1
  19    9   57 1
  20   10   11 am
  21   10   12 2
  22   11   13 1
  23   11   17 1
  24   13   14 1
  25   13   58 1
  26   13   59 1
  27   14   15 1
  28   14   60 1
  29   14   61 1
  30   15   16 1
  31   15   18 1
  32   15   62 1
  33   16   17 1
  34   16   63 1
  35   16   64 1
  36   17   65 1
  37   17   66 1
  38   18   19 1
  39   18   23 1
  40   18   67 1
  41   19   20 1
  42   19   68 1
  43   19   69 1
  44   20   21 1
  45   20   70 1
  46   20   71 1
  47   21   22 1
  48   21   24 1
  49   22   23 1
  50   22   72 1
  51   22   73 1
  52   23   74 1
  53   23   75 1
  54   26   50 am
  55   26   28 1
  56   27   28 ar
  57   27   29 ar
  58   28   32 ar
  59   29   30 ar
  60   29   76 1
  61   30   31 ar
  62   30   33 1
  63   31   32 ar
  64   31   34 1
  65   32   77 1
  66   35   36 ar
  67   35   37 ar
  68   35   50 1
  69   36   42 1
  70   36   40 ar
  71   37   38 ar
  72   37   78 1
  73   38   39 ar
  74   38   79 1
  75   39   40 ar
  76   39   41 1
  77   40   80 1
  78   42   43 1
  79   43   44 1
  80   43   81 1
  81   43   82 1
  82   44   83 1
  83   44   84 1
  84   44   85 1
  85   45   46 1
  86   46   47 1
  87   46   86 1
  88   46   87 1
  89   47   48 1
  90   47   49 1
  91   47   88 1
  92   50   51 2
  93   50   52 2

#	End of record

