#	Name: ASD00170510
#	Creating user name:	WinNT
#	Creation time:	15. 06. 2019 18:32

#	Modifying user name:	WinNT
#	Modification time:	15. 06. 2019 18:32

#	Program:	/corina/corina34_cracker 3.40 0067  02.08.2006

@<TRIPOS>MOLECULE
ASD00170510
  50   53    0    0    0
SMALL
NO_CHARGES


@<TRIPOS>ATOM
   1 C1            -0.0110     1.4652     0.0561 C.ar    
   2 C2             1.1832     2.1615     0.0789 C.ar    
   3 C3             2.3839     1.4783     0.0608 C.ar    
   4 C4             2.3909     0.0905     0.0196 C.ar    
   5 C5             1.1885    -0.6071    -0.0032 C.ar    
   6 C6            -0.0086     0.0827     0.0151 C.ar    
   7 N7             3.6037    -0.6035     0.0008 N.3     
   8 C8             3.7918    -1.3691     1.2410 C.3     
   9 C9             5.0894    -2.1753     1.1479 C.3     
  10 N10            6.2165    -1.2599     0.9215 N.3     
  11 C11            6.0285    -0.4943    -0.3188 C.3     
  12 C12            4.7308     0.3118    -0.2257 C.3     
  13 C13            7.4914    -1.9894     0.9016 C.3     
  14 C14            8.5883    -1.0712     0.4276 C.2     
  15 C15            9.0559    -1.0731    -0.8110 C.2     
  16 S16           10.3238     0.1240    -1.0039 S.3     
  17 C17           10.2058     0.6230     0.6215 C.2     
  18 C18            9.2329    -0.0936     1.2790 C.2     
  19 C19            8.8933     0.1038     2.6880 C.2     
  20 O20            8.0955     0.9669     3.0068 O.2     
  21 C21            9.5187    -0.7446     3.7253 C.ar    
  22 C22            9.1139    -0.6362     5.0570 C.ar    
  23 C23            9.7007    -1.4300     6.0199 C.ar    
  24 C24           10.6900    -2.3334     5.6680 C.ar    
  25 C25           11.0957    -2.4453     4.3484 C.ar    
  26 C26           10.5121    -1.6610     3.3758 C.ar    
  27 Cl27          11.4246    -3.3289     6.8858 Cl      
  28 N28           10.9760     1.6132     1.1971 N.pl3   
  29 Cl29           1.1911    -2.3423    -0.0552 Cl      
  30 H30           -0.9480     2.0020     0.0748 H       
  31 H31            1.1775     3.2410     0.1105 H       
  32 H32            3.3162     2.0232     0.0783 H       
  33 H33           -0.9432    -0.4581    -0.0026 H       
  34 H34            3.8494    -0.6835     2.0864 H       
  35 H35            2.9508    -2.0485     1.3800 H       
  36 H36            5.2458    -2.7214     2.0782 H       
  37 H37            5.0211    -2.8800     0.3192 H       
  38 H38            6.8695     0.1850    -0.4578 H       
  39 H39            5.9708    -1.1800    -1.1642 H       
  40 H40            4.5745     0.8580    -1.1560 H       
  41 H41            4.7992     1.0166     0.6030 H       
  42 H42            7.7230    -2.3437     1.9061 H       
  43 H43            7.4125    -2.8406     0.2253 H       
  44 H44            8.7043    -1.7247    -1.5972 H       
  45 H45            8.3429     0.0681     5.3326 H       
  46 H46            9.3887    -1.3468     7.0505 H       
  47 H47           11.8675    -3.1515     4.0799 H       
  48 H48           10.8291    -1.7494     2.3472 H       
  49 H49           11.6906     2.0285     0.6893 H       
  50 H50           10.8028     1.8937     2.1093 H       
@<TRIPOS>BOND
   1    1    2 ar
   2    1    6 ar
   3    1   30 1
   4    2    3 ar
   5    2   31 1
   6    3    4 ar
   7    3   32 1
   8    4    5 ar
   9    4    7 1
  10    5    6 ar
  11    5   29 1
  12    6   33 1
  13    7    8 1
  14    7   12 1
  15    8    9 1
  16    8   34 1
  17    8   35 1
  18    9   10 1
  19    9   36 1
  20    9   37 1
  21   10   11 1
  22   10   13 1
  23   11   12 1
  24   11   38 1
  25   11   39 1
  26   12   40 1
  27   12   41 1
  28   13   14 1
  29   13   42 1
  30   13   43 1
  31   14   15 2
  32   14   18 1
  33   15   16 1
  34   15   44 1
  35   16   17 1
  36   17   18 2
  37   17   28 1
  38   18   19 1
  39   19   20 2
  40   19   21 1
  41   21   22 ar
  42   21   26 ar
  43   22   23 ar
  44   22   45 1
  45   23   24 ar
  46   23   46 1
  47   24   25 ar
  48   24   27 1
  49   25   26 ar
  50   25   47 1
  51   26   48 1
  52   28   49 1
  53   28   50 1

#	End of record

