#	Name: ASD01915128
#	Creating user name:	WinNT
#	Creation time:	15. 06. 2019 20:04

#	Modifying user name:	WinNT
#	Modification time:	15. 06. 2019 20:04

#	Program:	/corina/corina34_cracker 3.40 0067  02.08.2006

@<TRIPOS>MOLECULE
ASD01915128
  16   17    0    0    0
SMALL
NO_CHARGES


@<TRIPOS>ATOM
   1 C1            -0.0169     1.3950     0.0097 C.ar    
   2 C2             0.0021    -0.0041     0.0020 C.ar    
   3 C3             1.2523    -0.6587    -0.0134 C.ar    
   4 C4             2.3989     0.1045    -0.0203 C.ar    
   5 C5             2.2981     1.4873    -0.0119 C.ar    
   6 N6             1.1274     2.0815     0.0025 N.ar    
   7 C7            -1.3404    -0.5670     0.0118 C.2     
   8 C8            -2.3137     0.3264     0.0259 C.2     
   9 S9            -1.6829     1.9616     0.0358 S.3     
  10 N10           -1.5823    -1.9530     0.0062 N.pl3   
  11 H11            1.3089    -1.7372    -0.0194 H       
  12 H12            3.3688    -0.3704    -0.0317 H       
  13 H13            3.1973     2.0855    -0.0169 H       
  14 H14           -3.3652     0.0802     0.0343 H       
  15 H15           -0.8382    -2.5752    -0.0045 H       
  16 H16           -2.4932    -2.2864     0.0131 H       
@<TRIPOS>BOND
   1    1    2 ar
   2    1    6 ar
   3    1    9 1
   4    2    3 ar
   5    2    7 1
   6    3    4 ar
   7    3   11 1
   8    4    5 ar
   9    4   12 1
  10    5    6 ar
  11    5   13 1
  12    7    8 2
  13    7   10 1
  14    8    9 1
  15    8   14 1
  16   10   15 1
  17   10   16 1

#	End of record

