#	Name: ASD01180006
#	Creating user name:	WinNT
#	Creation time:	15. 06. 2019 19:06

#	Modifying user name:	WinNT
#	Modification time:	15. 06. 2019 19:06

#	Program:	/corina/corina34_cracker 3.40 0067  02.08.2006

@<TRIPOS>MOLECULE
ASD01180006
  38   40    0    0    0
SMALL
NO_CHARGES


@<TRIPOS>ATOM
   1 N1             0.0344     1.3894     0.1328 N.ar    
   2 C2            -0.0059     0.0900     0.3202 C.ar    
   3 C3             1.1503    -0.6841     0.2010 C.ar    
   4 N4             2.3016    -0.1285    -0.1010 N.ar    
   5 C5             2.3687     1.1929    -0.2971 C.ar    
   6 C6             3.5854     1.8173    -0.6209 C.ar    
   7 C7             3.6223     3.1648    -0.8143 C.ar    
   8 C8             2.4663     3.9387    -0.6953 C.ar    
   9 C9             1.2705     3.3670    -0.3829 C.ar    
  10 C10            1.1945     1.9790    -0.1761 C.ar    
  11 C11            1.0765    -2.1730     0.4217 C.3     
  12 C12            1.7645    -2.8953    -0.7384 C.3     
  13 C13            1.7792    -2.5297     1.7331 C.3     
  14 S14           -1.5352    -0.6849     0.7271 S.o2    
  15 O15           -1.1907    -1.6391     1.7221 O.2     
  16 O16           -2.4088     0.3967     1.0205 O.2     
  17 C17           -2.0427    -1.5160    -0.8033 C.3     
  18 C18           -3.3743    -2.2344    -0.5760 C.3     
  19 C19           -4.0326    -2.9014    -1.7854 C.3     
  20 C20           -3.3839    -3.7596    -0.6975 C.3     
  21 Cl21           2.5548     5.6538    -0.9486 Cl      
  22 Cl22           5.1278     3.9311    -1.2141 Cl      
  23 H23            4.4875     1.2311    -0.7154 H       
  24 H24            0.3843     3.9778    -0.2937 H       
  25 H25            0.0322    -2.4813     0.4736 H       
  26 H26            2.8087    -2.5870    -0.7902 H       
  27 H27            1.7110    -3.9722    -0.5788 H       
  28 H28            1.2638    -2.6412    -1.6727 H       
  29 H29            1.2891    -2.0151     2.5596 H       
  30 H30            1.7258    -3.6066     1.8928 H       
  31 H31            2.8234    -2.2214     1.6813 H       
  32 H32           -2.1591    -0.7775    -1.5965 H       
  33 H33           -1.2827    -2.2422    -1.0917 H       
  34 H34           -4.0300    -1.7844     0.1694 H       
  35 H35           -5.1214    -2.8905    -1.8355 H       
  36 H36           -3.5171    -2.8284    -2.7430 H       
  37 H37           -2.4416    -4.2511    -0.9393 H       
  38 H38           -4.0460    -4.3133    -0.0318 H       
@<TRIPOS>BOND
   1    1    2 ar
   2    1   10 ar
   3    2    3 ar
   4    2   14 1
   5    3    4 ar
   6    3   11 1
   7    4    5 ar
   8    5    6 ar
   9    5   10 ar
  10    6    7 ar
  11    6   23 1
  12    7    8 ar
  13    7   22 1
  14    8    9 ar
  15    8   21 1
  16    9   10 ar
  17    9   24 1
  18   11   12 1
  19   11   13 1
  20   11   25 1
  21   12   26 1
  22   12   27 1
  23   12   28 1
  24   13   29 1
  25   13   30 1
  26   13   31 1
  27   14   15 2
  28   14   16 2
  29   14   17 1
  30   17   18 1
  31   17   32 1
  32   17   33 1
  33   18   19 1
  34   18   20 1
  35   18   34 1
  36   19   20 1
  37   19   35 1
  38   19   36 1
  39   20   37 1
  40   20   38 1

#	End of record

