#	Name: ASD01121019
#	Creating user name:	WinNT
#	Creation time:	15. 06. 2019 18:59

#	Modifying user name:	WinNT
#	Modification time:	15. 06. 2019 18:59

#	Program:	/corina/corina34_cracker 3.40 0067  02.08.2006

@<TRIPOS>MOLECULE
ASD01121019
  46   47    0    0    0
SMALL
NO_CHARGES


@<TRIPOS>ATOM
   1 C1            -0.0479     1.3233    -0.0021 C.ar    
   2 C2             1.0894     2.1192    -0.0009 C.ar    
   3 C3             0.0887    -0.0509    -0.0143 C.ar    
   4 C4             0.9782     3.6220     0.0127 C.3     
   5 C5             2.3276     1.5013    -0.0121 C.ar    
   6 N6             1.2825    -0.6119    -0.0248 N.ar    
   7 C7             2.3903     0.1127    -0.0241 C.ar    
   8 N8             3.6311    -0.5225    -0.0354 N.am    
   9 C9             3.7016    -1.8651     0.0584 C.2     
  10 O10            2.6918    -2.5152     0.2476 O.2     
  11 N11            4.8917    -2.4871    -0.0574 N.am    
  12 S12            4.9784    -4.1368     0.0579 S.o2    
  13 C13            4.0946    -4.8027    -1.3133 C.2     
  14 O14            6.3428    -4.4816    -0.1385 O.2     
  15 O15            4.2454    -4.4969     1.2208 O.2     
  16 S16            2.3798    -5.1940    -1.3209 S.3     
  17 C17            4.6224    -5.0817    -2.5061 C.2     
  18 C18            2.4808    -5.7379    -2.9905 C.2     
  19 C19            3.7321    -5.5990    -3.4313 C.2     
  20 C20            1.3288    -6.2742    -3.8007 C.3     
  21 C21            4.1456    -5.9783    -4.8299 C.3     
  22 C22            1.2414    -7.7911    -3.6210 C.3     
  23 O23            0.1491    -8.2996    -4.3893 O.3     
  24 H24            4.4437     0.0018    -0.1109 H       
  25 H25            5.6973    -1.9685    -0.2084 H       
  26 C26           -1.1420    -0.9207    -0.0151 C.3     
  27 F27            0.9504     4.0756     1.3359 F       
  28 F28            2.0796     4.1771    -0.6476 F       
  29 F29           -0.1987     4.0084    -0.6375 F       
  30 C30           -0.0215    -9.7150    -4.2910 C.3     
  31 H31           -1.0292     1.7740     0.0109 H       
  32 H32            3.2331     2.0900    -0.0119 H       
  33 H33            5.6652    -4.9162    -2.7330 H       
  34 H34            0.4008    -5.8140    -3.4615 H       
  35 H35            1.4860    -6.0415    -4.8539 H       
  36 H36            4.0261    -5.1189    -5.4897 H       
  37 H37            5.1894    -6.2923    -4.8277 H       
  38 H38            3.5204    -6.7979    -5.1840 H       
  39 H39            2.1695    -8.2512    -3.9602 H       
  40 H40            1.0843    -8.0237    -2.5678 H       
  41 H41           -1.4441    -1.1218    -1.0429 H       
  42 H42           -0.9224    -1.8614     0.4898 H       
  43 H43           -1.9497    -0.4079     0.5073 H       
  44 H44           -0.8702   -10.0219    -4.9023 H       
  45 H45            0.8803   -10.2150    -4.6441 H       
  46 H46           -0.2049    -9.9875    -3.2517 H       
@<TRIPOS>BOND
   1    1    2 ar
   2    1    3 ar
   3    1   31 1
   4    2    4 1
   5    2    5 ar
   6    3    6 ar
   7    3   26 1
   8    4   27 1
   9    4   28 1
  10    4   29 1
  11    5    7 ar
  12    5   32 1
  13    6    7 ar
  14    7    8 1
  15    8   24 1
  16    8    9 am
  17    9   10 2
  18    9   11 am
  19   11   25 1
  20   11   12 am
  21   12   13 1
  22   12   15 2
  23   12   14 2
  24   13   16 1
  25   13   17 2
  26   16   18 1
  27   17   19 1
  28   17   33 1
  29   18   19 2
  30   18   20 1
  31   19   21 1
  32   20   22 1
  33   20   34 1
  34   20   35 1
  35   21   36 1
  36   21   37 1
  37   21   38 1
  38   22   23 1
  39   22   39 1
  40   22   40 1
  41   23   30 1
  42   26   41 1
  43   26   42 1
  44   26   43 1
  45   30   44 1
  46   30   45 1
  47   30   46 1

#	End of record

