#	Name: ASD04590480
#	Creating user name:	WinNT
#	Creation time:	15. 06. 2019 20:50

#	Modifying user name:	WinNT
#	Modification time:	15. 06. 2019 20:50

#	Program:	/corina/corina34_cracker 3.40 0067  02.08.2006

@<TRIPOS>MOLECULE
ASD04590480
  53   56    0    0    0
SMALL
NO_CHARGES


@<TRIPOS>ATOM
   1 C1            -0.0169     1.3919     0.0097 C.ar    
   2 C2             0.0021    -0.0041     0.0020 C.ar    
   3 C3            -2.4013    -0.0383     0.0248 C.ar    
   4 C4            -2.4140     1.3672     0.0440 C.ar    
   5 C5            -1.2195     2.0733     0.0306 C.ar    
   6 N6            -3.6930    -0.4516     0.0445 N.2     
   7 C7            -4.4887     0.5897     0.0742 C.2     
   8 N8            -3.7459     1.7405     0.0752 N.pl3   
   9 C9            -5.9648     0.5309     0.1019 C.2     
  10 C10           -6.7500    -0.6451     0.1013 C.2     
  11 C11           -8.0528    -0.2722     0.1319 C.2     
  12 N12           -8.0970     1.0860     0.1512 N.pl3   
  13 N13           -6.7813     1.5657     0.1372 N.2     
  14 N14           -6.2666    -1.9635     0.0740 N.am    
  15 C15           -7.1303    -2.9981     0.0770 C.2     
  16 O16           -8.3286    -2.7901     0.1033 O.2     
  17 C17           -1.1781    -0.7176     0.0095 C.ar    
  18 C18           -6.6235    -4.3800     0.0483 C.ar    
  19 C19           -7.5209    -5.4595     0.0513 C.ar    
  20 O20            1.1915    -0.6643    -0.0133 O.3     
  21 C21            1.1408    -2.0924    -0.0205 C.3     
  22 O22           -8.8584    -5.2343     0.0801 O.3     
  23 C23           -9.7097    -6.3820     0.0813 C.3     
  24 C24          -11.1718    -5.9326     0.1154 C.3     
  25 C25           -7.0341    -6.7546     0.0243 C.ar    
  26 O26            1.1536     2.0847     0.0022 O.3     
  27 C27            1.0634     3.5109     0.0108 C.3     
  28 C28           -5.6633    -6.9785    -0.0056 C.ar    
  29 C29           -4.7765    -5.9033    -0.0084 C.ar    
  30 C30           -5.2461    -4.6220     0.0123 C.ar    
  31 N31           -5.1742    -8.2802    -0.0323 N.pl3   
  32 H32           -1.2293     3.1532     0.0368 H       
  33 H33           -4.0893     2.6474     0.0945 H       
  34 H34           -8.9044    -0.9364     0.1393 H       
  35 H35           -8.9005     1.6289     0.1743 H       
  36 H36           -5.3111    -2.1293     0.0530 H       
  37 H37           -1.1583    -1.7974     0.0031 H       
  38 H38            0.6232    -2.4420     0.8728 H       
  39 H39            0.6056    -2.4325    -0.9070 H       
  40 H40            2.1548    -2.4919    -0.0327 H       
  41 H41           -9.5307    -6.9681    -0.8202 H       
  42 H42           -9.4964    -6.9917     0.9593 H       
  43 H43          -11.8211    -6.8080     0.1163 H       
  44 H44          -11.3508    -5.3465     1.0169 H       
  45 H45          -11.3851    -5.3229    -0.7626 H       
  46 H46           -7.7187    -7.5900     0.0268 H       
  47 H47            2.0660     3.9384     0.0035 H       
  48 H48            0.5192     3.8458    -0.8723 H       
  49 H49            0.5362     3.8362     0.9076 H       
  50 H50           -3.7121    -6.0849    -0.0317 H       
  51 H51           -4.5531    -3.7936     0.0096 H       
  52 H52           -5.7898    -9.0297    -0.0300 H       
  53 H53           -4.2174    -8.4384    -0.0531 H       
@<TRIPOS>BOND
   1    1    2 ar
   2    1   26 1
   3    1    5 ar
   4    2   17 ar
   5    2   20 1
   6    3    4 ar
   7    3    6 1
   8    3   17 ar
   9    4    5 ar
  10    4    8 1
  11    5   32 1
  12    6    7 2
  13    7    8 1
  14    7    9 1
  15    8   33 1
  16    9   10 1
  17    9   13 2
  18   10   11 2
  19   10   14 1
  20   11   12 1
  21   11   34 1
  22   12   13 1
  23   12   35 1
  24   14   15 am
  25   14   36 1
  26   15   16 2
  27   15   18 1
  28   17   37 1
  29   18   19 ar
  30   18   30 ar
  31   19   22 1
  32   19   25 ar
  33   20   21 1
  34   21   38 1
  35   21   39 1
  36   21   40 1
  37   22   23 1
  38   23   24 1
  39   23   41 1
  40   23   42 1
  41   24   43 1
  42   24   44 1
  43   24   45 1
  44   25   28 ar
  45   25   46 1
  46   26   27 1
  47   27   47 1
  48   27   48 1
  49   27   49 1
  50   28   29 ar
  51   28   31 1
  52   29   30 ar
  53   29   50 1
  54   30   51 1
  55   31   52 1
  56   31   53 1

#	End of record

