#	Name: ASD01900464
#	Creating user name:	WinNT
#	Creation time:	15. 06. 2019 19:52

#	Modifying user name:	WinNT
#	Modification time:	15. 06. 2019 19:52

#	Program:	/corina/corina34_cracker 3.40 0067  02.08.2006

@<TRIPOS>MOLECULE
ASD01900464
  39   42    0    0    0
SMALL
NO_CHARGES


@<TRIPOS>ATOM
   1 C1             0.4018     3.6935     0.7389 C.ar    
   2 C2             0.8617     4.6258     1.6884 C.ar    
   3 C3             2.2350     4.7947     1.8613 C.ar    
   4 C4             3.0893     4.0340     1.0876 C.ar    
   5 C5             2.5658     3.1328     0.1697 C.ar    
   6 N6             1.2692     2.9858     0.0191 N.ar    
   7 N7            -1.3940     4.6328     1.6938 N.2     
   8 N8            -0.2454     5.1916     2.2636 N.pl3   
   9 C9            -1.0610     3.7515     0.7884 C.2     
  10 N10           -1.9429     2.9932     0.0123 N.pl3   
  11 C11           -3.3232     3.1874     0.1308 C.ar    
  12 C12           -3.8254     4.4515     0.4133 C.ar    
  13 C13           -5.1887     4.6422     0.5302 C.ar    
  14 C14           -6.0563     3.5706     0.3653 C.ar    
  15 C15           -5.5550     2.3087     0.0838 C.ar    
  16 C16           -4.1925     2.1178    -0.0395 C.ar    
  17 O17           -7.3983     3.7587     0.4804 O.3     
  18 C18           -8.0739     4.2087    -0.6065 C.ar    
  19 C19           -9.4316     4.4866    -0.5064 C.ar    
  20 C20          -10.1088     4.9454    -1.6225 C.ar    
  21 C21           -9.4008     5.1109    -2.8052 C.ar    
  22 C22           -8.0526     4.8150    -2.8324 C.ar    
  23 N23           -7.4328     4.3838    -1.7502 N.ar    
  24 C24          -11.5816     5.2580    -1.5558 C.3     
  25 F25          -11.7580     6.5977    -1.1936 F       
  26 F26          -12.1632     5.0330    -2.8081 F       
  27 F27          -12.1906     4.4334    -0.6037 F       
  28 Cl28          -5.8171     6.2214     0.8837 Cl      
  29 H29            2.6203     5.5018     2.5810 H       
  30 H30            4.1587     4.1397     1.1954 H       
  31 H31            3.2387     2.5406    -0.4327 H       
  32 H32           -0.2345     5.8709     2.9559 H       
  33 H33           -1.5977     2.3324    -0.6083 H       
  34 H34           -3.1504     5.2847     0.5418 H       
  35 H35           -6.2304     1.4757    -0.0440 H       
  36 H36           -3.8029     1.1357    -0.2635 H       
  37 H37           -9.9514     4.3462     0.4298 H       
  38 H38           -9.8994     5.4669    -3.6945 H       
  39 H39           -7.4973     4.9420    -3.7499 H       
@<TRIPOS>BOND
   1    1    2 ar
   2    1    6 ar
   3    1    9 1
   4    2    3 ar
   5    2    8 1
   6    3    4 ar
   7    3   29 1
   8    4    5 ar
   9    4   30 1
  10    5    6 ar
  11    5   31 1
  12    7    8 1
  13    7    9 2
  14    8   32 1
  15    9   10 1
  16   10   11 1
  17   10   33 1
  18   11   12 ar
  19   11   16 ar
  20   12   13 ar
  21   12   34 1
  22   13   14 ar
  23   13   28 1
  24   14   15 ar
  25   14   17 1
  26   15   16 ar
  27   15   35 1
  28   16   36 1
  29   17   18 1
  30   18   19 ar
  31   18   23 ar
  32   19   20 ar
  33   19   37 1
  34   20   21 ar
  35   20   24 1
  36   21   22 ar
  37   21   38 1
  38   22   23 ar
  39   22   39 1
  40   24   25 1
  41   24   26 1
  42   24   27 1

#	End of record

