#	Name: ASD03330209
#	Creating user name:	WinNT
#	Creation time:	15. 06. 2019 20:36

#	Modifying user name:	WinNT
#	Modification time:	15. 06. 2019 20:36

#	Program:	/corina/corina34_cracker 3.40 0067  02.08.2006

@<TRIPOS>MOLECULE
ASD03330209
  33   35    0    0    0
SMALL
NO_CHARGES


@<TRIPOS>ATOM
   1 C1            -0.0167     1.3767     0.0056 C.ar    
   2 C2             0.0020    -0.0040    -0.0020 C.ar    
   3 C3            -1.1986    -0.7153     0.0097 C.ar    
   4 C4            -2.4118    -0.0269     0.0290 C.ar    
   5 C5            -2.4205     1.3527     0.0364 C.ar    
   6 C6            -1.2272     2.0557     0.0306 C.ar    
   7 F7            -1.2415     3.4066     0.0384 F       
   8 C8            -1.1848    -2.1944     0.0011 C.2     
   9 N9            -2.2157    -3.0020     0.3858 N.pl3   
  10 C10           -1.7959    -4.2846     0.2521 C.2     
  11 C11           -0.5275    -4.2468    -0.2388 C.2     
  12 N12           -0.1815    -2.9479    -0.3830 N.2     
  13 C13           -3.5434    -2.5797     0.8391 C.3     
  14 C14           -4.1299    -3.6517     1.7607 C.3     
  15 O15           -4.8283    -4.6290     0.9868 O.3     
  16 C16           -4.0220    -5.3345     0.0474 C.3     
  17 C17           -2.6080    -5.5002     0.6137 C.3     
  18 C18            0.3146    -5.4107    -0.5601 C.2     
  19 O19           -0.1131    -6.5357    -0.3902 O.2     
  20 O20            1.5599    -5.2289    -1.0427 O.3     
  21 F21            1.1443     2.0674    -0.0056 F       
  22 H22            0.9438    -0.5324    -0.0173 H       
  23 H23           -3.3433    -0.5734     0.0377 H       
  24 H24           -3.3598     1.8856     0.0510 H       
  25 H25           -3.4597    -1.6388     1.3829 H       
  26 H26           -4.1962    -2.4448    -0.0233 H       
  27 H27           -3.3239    -4.1354     2.3125 H       
  28 H28           -4.8201    -3.1862     2.4643 H       
  29 H29           -4.4563    -6.3167    -0.1393 H       
  30 H30           -3.9763    -4.7736    -0.8861 H       
  31 H31           -2.1450    -6.3895     0.1861 H       
  32 H32           -2.6578    -5.5972     1.6983 H       
  33 H33            2.0750    -6.0234    -1.2389 H       
@<TRIPOS>BOND
   1    1    2 ar
   2    1   21 1
   3    1    6 ar
   4    2    3 ar
   5    2   22 1
   6    3    4 ar
   7    3    8 1
   8    4    5 ar
   9    4   23 1
  10    5    6 ar
  11    5   24 1
  12    6    7 1
  13    8    9 1
  14    8   12 2
  15    9   10 1
  16    9   13 1
  17   10   11 2
  18   10   17 1
  19   11   12 1
  20   11   18 1
  21   13   14 1
  22   13   25 1
  23   13   26 1
  24   14   15 1
  25   14   27 1
  26   14   28 1
  27   15   16 1
  28   16   17 1
  29   16   29 1
  30   16   30 1
  31   17   31 1
  32   17   32 1
  33   18   19 2
  34   18   20 1
  35   20   33 1

#	End of record

