#	Name: ASD00069488
#	Creating user name:	WinNT
#	Creation time:	15. 06. 2019 18:29

#	Modifying user name:	WinNT
#	Modification time:	15. 06. 2019 18:29

#	Program:	/corina/corina34_cracker 3.40 0067  02.08.2006

@<TRIPOS>MOLECULE
ASD00069488
  16   16    0    0    0
SMALL
NO_CHARGES


@<TRIPOS>ATOM
   1 O1            -0.0172     1.4158     0.0098 O.3     
   2 B2             0.0021    -0.0041     0.0020 Du      
   3 O3            -1.2179    -0.7307     0.0098 O.3     
   4 C4             1.3722    -0.7705    -0.0152 C.ar    
   5 C5             2.5724    -0.0590    -0.0228 C.ar    
   6 C6             1.3941    -2.1681    -0.0171 C.ar    
   7 C7             2.6033    -2.8365    -0.0323 C.ar    
   8 C8             3.7908    -2.1229    -0.0452 C.ar    
   9 C9             3.7725    -0.7355    -0.0380 C.ar    
  10 F10            0.2360    -2.8636    -0.0037 F       
  11 F11            4.9710    -2.7803    -0.0596 F       
  12 H12            0.8608     1.8211     0.0036 H       
  13 H13           -2.0078    -0.1731     0.0203 H       
  14 H14            2.5607     1.0210    -0.0172 H       
  15 H15            2.6229    -3.9163    -0.0339 H       
  16 H16            4.7013    -0.1845    -0.0484 H       
@<TRIPOS>BOND
   1    1    2 1
   2    1   12 1
   3    2    3 1
   4    2    4 1
   5    3   13 1
   6    4    5 ar
   7    4    6 ar
   8    5    9 ar
   9    5   14 1
  10    6    7 ar
  11    6   10 1
  12    7    8 ar
  13    7   15 1
  14    8    9 ar
  15    8   11 1
  16    9   16 1

#	End of record

