#	Name: ASD08150319
#	Creating user name:	WinNT
#	Creation time:	15. 06. 2019 21:15

#	Modifying user name:	WinNT
#	Modification time:	15. 06. 2019 21:15

#	Program:	/corina/corina34_cracker 3.40 0067  02.08.2006

@<TRIPOS>MOLECULE
ASD08150319
  64   70    0    0    0
SMALL
NO_CHARGES


@<TRIPOS>ATOM
   1 N1            -0.2568     0.5847     2.2943 N.am    
   2 C2            -0.4849    -0.7242     2.0720 C.2     
   3 C3             0.5708    -1.6578     2.1001 C.2     
   4 C4             1.8396    -1.2467     2.3527 C.2     
   5 C5             2.0833     0.1297     2.5866 C.ar    
   6 C6             3.3802     0.6089     2.8528 C.ar    
   7 N7             3.6021     1.8792     3.0681 N.ar    
   8 C8             2.6196     2.7928     3.0484 C.ar    
   9 C9             1.2835     2.4005     2.7882 C.ar    
  10 C10            1.0096     1.0328     2.5519 C.ar    
  11 C11            0.2668     3.3603     2.7703 C.ar    
  12 C12            0.5787     4.6889     3.0083 C.ar    
  13 C13            1.9032     5.0696     3.2646 C.ar    
  14 C14            2.9029     4.1478     3.2858 C.ar    
  15 O15           -1.6200    -1.1066     1.8439 O.2     
  16 C16           -0.4939     5.7136     2.9912 C.ar    
  17 C17           -1.3225     1.4935     2.2556 C.ar    
  18 C18           -1.8146     1.9352     1.0340 C.ar    
  19 C19           -2.8646     2.8300     0.9958 C.ar    
  20 C20           -3.4294     3.2891     2.1793 C.ar    
  21 C21           -2.9372     2.8474     3.4007 C.ar    
  22 C22           -1.8904     1.9483     3.4385 C.ar    
  23 N23           -4.4927     4.1959     2.1407 N.3     
  24 C24           -1.5300     5.6243     2.0558 C.ar    
  25 C25           -5.7293     3.5791     2.6409 C.3     
  26 C26           -6.8472     4.6243     2.6571 C.3     
  27 N27           -7.0381     5.1546     1.2999 N.3     
  28 C28           -5.8016     5.7714     0.7997 C.3     
  29 C29           -4.6837     4.7262     0.7835 C.3     
  30 C30           -2.5248     6.5588     2.0265 C.ar    
  31 C31           -2.5192     7.6162     2.9315 C.ar    
  32 C32           -1.4818     7.7164     3.8778 C.ar    
  33 C33           -0.4707     6.7566     3.9074 C.ar    
  34 N34           -3.3627     8.6844     3.1408 N.pl3   
  35 C35           -2.8986     9.4486     4.1766 C.2     
  36 C36           -1.7663     8.9188     4.6654 C.2     
  37 C37           -3.5496     3.3453     4.6845 C.3     
  38 F38           -2.6608     3.1237     5.7419 F       
  39 F39           -3.8123     4.7151     4.5754 F       
  40 F40           -4.7443     2.6593     4.9280 F       
  41 H41            0.3695    -2.7035     1.9203 H       
  42 H42            2.6517    -1.9584     2.3756 H       
  43 H43            4.2068    -0.0857     2.8799 H       
  44 H44           -0.7539     3.0681     2.5722 H       
  45 H45            2.1329     6.1089     3.4478 H       
  46 H46            3.9177     4.4586     3.4857 H       
  47 H47           -1.3753     1.5785     0.1141 H       
  48 H48           -3.2469     3.1736     0.0460 H       
  49 H49           -1.5105     1.6014     4.3882 H       
  50 H50           -1.5431     4.8077     1.3492 H       
  51 H51           -6.0131     2.7531     1.9888 H       
  52 H52           -5.5662     3.2054     3.6517 H       
  53 H53           -7.7725     4.1617     3.0003 H       
  54 H54           -6.5752     5.4373     3.3302 H       
  55 H55           -7.3622     4.4340     0.6724 H       
  56 H56           -5.9647     6.1451    -0.2111 H       
  57 H57           -5.5177     6.5974     1.4518 H       
  58 H58           -3.7583     5.1887     0.4403 H       
  59 H59           -4.9557     3.9132     0.1104 H       
  60 H60           -3.3184     6.4775     1.2985 H       
  61 H61            0.3274     6.8281     4.6314 H       
  62 H62           -4.1663     8.8681     2.6297 H       
  63 H63           -3.3734    10.3453     4.5465 H       
  64 H64           -1.1773     9.3051     5.4840 H       
@<TRIPOS>BOND
   1    1    2 am
   2    1   10 1
   3    1   17 1
   4    2    3 1
   5    2   15 2
   6    3    4 2
   7    3   41 1
   8    4    5 1
   9    4   42 1
  10    5    6 ar
  11    5   10 ar
  12    6    7 ar
  13    6   43 1
  14    7    8 ar
  15    8    9 ar
  16    8   14 ar
  17    9   10 ar
  18    9   11 ar
  19   11   12 ar
  20   11   44 1
  21   12   13 ar
  22   12   16 1
  23   13   14 ar
  24   13   45 1
  25   14   46 1
  26   16   24 ar
  27   16   33 ar
  28   17   18 ar
  29   17   22 ar
  30   18   19 ar
  31   18   47 1
  32   19   20 ar
  33   19   48 1
  34   20   21 ar
  35   20   23 1
  36   21   22 ar
  37   21   37 1
  38   22   49 1
  39   23   25 1
  40   23   29 1
  41   24   30 ar
  42   24   50 1
  43   25   26 1
  44   25   51 1
  45   25   52 1
  46   26   27 1
  47   26   53 1
  48   26   54 1
  49   27   28 1
  50   27   55 1
  51   28   29 1
  52   28   56 1
  53   28   57 1
  54   29   58 1
  55   29   59 1
  56   30   31 ar
  57   30   60 1
  58   31   32 ar
  59   31   34 1
  60   32   33 ar
  61   32   36 1
  62   33   61 1
  63   34   35 1
  64   34   62 1
  65   35   36 2
  66   35   63 1
  67   36   64 1
  68   37   38 1
  69   37   39 1
  70   37   40 1

#	End of record

