#	Name: ASD04882613
#	Creating user name:	WinNT
#	Creation time:	15. 06. 2019 20:55

#	Modifying user name:	WinNT
#	Modification time:	15. 06. 2019 20:55

#	Program:	/corina/corina34_cracker 3.40 0067  02.08.2006

@<TRIPOS>MOLECULE
ASD04882613
  79   83    0    0    0
SMALL
NO_CHARGES


@<TRIPOS>ATOM
   1 C1             0.7687     1.1544    -0.5896 C.ar    
   2 C2             0.8894    -0.2290    -0.7485 C.ar    
   3 C3            -0.2484    -1.0251    -0.8127 C.ar    
   4 C4            -1.4983    -0.4540    -0.7203 C.ar    
   5 C5            -1.6262     0.9287    -0.5617 C.ar    
   6 C6            -0.4837     1.7307    -0.4903 C.ar    
   7 N7             2.1511    -0.8105    -0.8433 N.3     
   8 C8             2.3657    -1.7822     0.2381 C.3     
   9 C9             2.3442    -1.4385    -2.1578 C.3     
  10 C10            3.7670    -1.9948    -2.2503 C.3     
  11 N11            3.9816    -2.9665    -1.1690 N.3     
  12 C12            3.7885    -2.3385     0.1455 C.3     
  13 C13           -2.9652     1.5402    -0.4633 C.2     
  14 O14           -3.0755     2.7433    -0.3253 O.2     
  15 N15           -4.0661     0.7654    -0.5263 N.am    
  16 N16            1.9162     1.9555    -0.5251 N.am    
  17 C17            5.2472    -3.5498    -1.2640 C.ar    
  18 C18            1.8951     3.1079     0.1734 C.2     
  19 C19            3.1220     3.8967     0.3235 C.2     
  20 O20            4.3323     3.5847    -0.1845 O.3     
  21 C21            5.2145     4.5342     0.1534 C.2     
  22 C22            4.5807     5.4752     0.8874 C.2     
  23 C23            3.2385     5.0790     0.9970 C.2     
  24 O24            0.8577     3.4939     0.6796 O.2     
  25 C25            6.3856    -2.7567    -1.2006 C.ar    
  26 C26            7.6356    -3.3368    -1.2945 C.ar    
  27 C27            7.7543    -4.7054    -1.4517 C.ar    
  28 C28            6.6227    -5.4981    -1.5151 C.ar    
  29 C29            5.3702    -4.9253    -1.4163 C.ar    
  30 C30            4.1378    -5.7898    -1.4850 C.3     
  31 C31           -5.3958     1.3726    -0.4286 C.3     
  32 C32           -6.4634     0.2812    -0.5280 C.3     
  33 C33           -7.8521     0.9153    -0.4259 C.3     
  34 N34           -8.8771    -0.1326    -0.5213 N.3     
  35 C35          -10.1990     0.4472    -0.8221 C.3     
  36 C36           -8.9740    -0.8956     0.7413 C.3     
  37 C37          -10.4717    -1.2722     0.8621 C.3     
  38 C38          -11.1607    -0.0017     0.2982 C.3     
  39 C39          -10.1058     1.9511    -0.8459 C.2     
  40 N40          -10.5883     2.6396    -1.8993 N.am    
  41 O41           -9.5968     2.5418     0.0830 O.2     
  42 H42           -0.1521    -2.0937    -0.9356 H       
  43 H43           -2.3803    -1.0752    -0.7709 H       
  44 H44           -0.5794     2.7994    -0.3677 H       
  45 H45            2.2294    -1.2904     1.2013 H       
  46 H46            1.6493    -2.5980     0.1414 H       
  47 H47            1.6276    -2.2504    -2.2817 H       
  48 H48            2.1923    -0.6961    -2.9413 H       
  49 H49            3.9033    -2.4866    -3.2135 H       
  50 H50            4.4835    -1.1790    -2.1536 H       
  51 H51            4.5052    -1.5266     0.2695 H       
  52 H52            3.9404    -3.0809     0.9291 H       
  53 H53           -3.9781    -0.1944    -0.6364 H       
  54 H54            2.7258     1.6807    -0.9832 H       
  55 H55            6.2603     4.5456    -0.1160 H       
  56 H56            5.0228     6.3665     1.3075 H       
  57 H57            2.4520     5.6039     1.5186 H       
  58 H58            6.2936    -1.6876    -1.0785 H       
  59 H59            8.5213    -2.7207    -1.2453 H       
  60 H60            8.7329    -5.1563    -1.5255 H       
  61 H61            6.7190    -6.5667    -1.6384 H       
  62 H62            3.8669    -6.1169    -0.4811 H       
  63 H63            3.3158    -5.2173    -1.9147 H       
  64 H64            4.3392    -6.6606    -2.1089 H       
  65 H65           -5.4906     1.8876     0.5274 H       
  66 H66           -5.5296     2.0868    -1.2410 H       
  67 H67           -6.3686    -0.2339    -1.4839 H       
  68 H68           -6.3296    -0.4331     0.2844 H       
  69 H69           -7.9469     1.4303     0.5300 H       
  70 H70           -7.9859     1.6296    -1.2383 H       
  71 H71          -10.5531     0.0825    -1.7863 H       
  72 H72           -8.3597    -1.7945     0.6896 H       
  73 H73           -8.6696    -0.2749     1.5840 H       
  74 H74          -10.7050    -2.1457     0.2533 H       
  75 H75          -10.7500    -1.4379     1.9028 H       
  76 H76          -11.2416     0.7665     1.0673 H       
  77 H77          -12.1417    -0.2443    -0.1103 H       
  78 H78          -10.9955     2.1671    -2.6421 H       
  79 H79          -10.5283     3.6076    -1.9145 H       
@<TRIPOS>BOND
   1    1    2 ar
   2    1   16 1
   3    1    6 ar
   4    2    3 ar
   5    2    7 1
   6    3    4 ar
   7    3   42 1
   8    4    5 ar
   9    4   43 1
  10    5    6 ar
  11    5   13 1
  12    6   44 1
  13    7    8 1
  14    7    9 1
  15    8   12 1
  16    8   45 1
  17    8   46 1
  18    9   10 1
  19    9   47 1
  20    9   48 1
  21   10   11 1
  22   10   49 1
  23   10   50 1
  24   11   12 1
  25   11   17 1
  26   12   51 1
  27   12   52 1
  28   13   14 2
  29   13   15 am
  30   15   31 1
  31   15   53 1
  32   16   18 am
  33   16   54 1
  34   17   25 ar
  35   17   29 ar
  36   18   19 1
  37   18   24 2
  38   19   20 1
  39   19   23 2
  40   20   21 1
  41   21   22 2
  42   21   55 1
  43   22   23 1
  44   22   56 1
  45   23   57 1
  46   25   26 ar
  47   25   58 1
  48   26   27 ar
  49   26   59 1
  50   27   28 ar
  51   27   60 1
  52   28   29 ar
  53   28   61 1
  54   29   30 1
  55   30   62 1
  56   30   63 1
  57   30   64 1
  58   31   32 1
  59   31   65 1
  60   31   66 1
  61   32   33 1
  62   32   67 1
  63   32   68 1
  64   33   34 1
  65   33   69 1
  66   33   70 1
  67   34   35 1
  68   34   36 1
  69   35   39 1
  70   35   38 1
  71   35   71 1
  72   36   37 1
  73   36   72 1
  74   36   73 1
  75   37   38 1
  76   37   74 1
  77   37   75 1
  78   38   76 1
  79   38   77 1
  80   39   40 am
  81   39   41 2
  82   40   78 1
  83   40   79 1

#	End of record

