#	Name: ASD01478112
#	Creating user name:	WinNT
#	Creation time:	15. 06. 2019 19:21

#	Modifying user name:	WinNT
#	Modification time:	15. 06. 2019 19:21

#	Program:	/corina/corina34_cracker 3.40 0067  02.08.2006

@<TRIPOS>MOLECULE
ASD01478112
  38   40    0    0    0
SMALL
NO_CHARGES


@<TRIPOS>ATOM
   1 O1             0.1339     1.3048     0.0021 O.3     
   2 C2             0.0006    -0.0726     0.2041 C.3     
   3 O3            -0.1642    -0.4411     1.5645 O.3     
   4 C4             1.0038    -0.4077     2.3525 C.3     
   5 O5             1.5080     0.9126     2.4278 O.3     
   6 C6             2.2266     1.4503     1.3536 C.3     
   7 C7             1.3635     1.9435     0.2049 C.3     
   8 C8             1.1870     3.4586     0.4556 C.3     
   9 C9             2.5881     3.8691     0.9792 C.3     
  10 C10            3.0366     2.6725     1.8447 C.3     
  11 O11            2.4962     5.0730     1.7857 O.3     
  12 C12            3.5682     5.8860     1.7939 C.2     
  13 O13            4.5536     5.5981     1.1452 O.2     
  14 O14            3.5484     7.0183     2.5209 O.3     
  15 C15            4.6184     7.8479     2.4004 C.ar    
  16 C16            4.7539     8.6481     1.2753 C.ar    
  17 C17            5.8421     9.4907     1.1553 C.ar    
  18 C18            6.7959     9.5366     2.1553 C.ar    
  19 C19            6.6631     8.7401     3.2776 C.ar    
  20 C20            5.5738     7.9000     3.4049 C.ar    
  21 N21            7.9613    10.4396     2.0238 N.pl3   
  22 O22            8.0795    11.1415     1.0354 O.2     
  23 O23            8.8021    10.4809     2.9041 O.2     
  24 H24           -0.8641    -0.4243    -0.3586 H       
  25 H25            0.8898    -0.5686    -0.1851 H       
  26 H26            0.7721    -0.7633     3.3564 H       
  27 H27            1.7578    -1.0571     1.9075 H       
  28 H28            2.9250     0.7015     0.9800 H       
  29 H29            1.9454     1.8401    -0.7110 H       
  30 H30            0.9510     3.9806    -0.4718 H       
  31 H31            0.4219     3.6407     1.2103 H       
  32 H32            3.2772     4.0177     0.1478 H       
  33 H33            2.8190     2.8680     2.8947 H       
  34 H34            4.1032     2.4927     1.7104 H       
  35 H35            4.0096     8.6120     0.4936 H       
  36 H36            5.9480    10.1138     0.2796 H       
  37 H37            7.4096     8.7775     4.0572 H       
  38 H38            5.4684     7.2810     4.2836 H       
@<TRIPOS>BOND
   1    1    2 1
   2    1    7 1
   3    2    3 1
   4    2   24 1
   5    2   25 1
   6    3    4 1
   7    4    5 1
   8    4   26 1
   9    4   27 1
  10    5    6 1
  11    6    7 1
  12    6   10 1
  13    6   28 1
  14    7    8 1
  15    7   29 1
  16    8    9 1
  17    8   30 1
  18    8   31 1
  19    9   10 1
  20    9   11 1
  21    9   32 1
  22   10   33 1
  23   10   34 1
  24   11   12 1
  25   12   13 2
  26   12   14 1
  27   14   15 1
  28   15   16 ar
  29   15   20 ar
  30   16   17 ar
  31   16   35 1
  32   17   18 ar
  33   17   36 1
  34   18   19 ar
  35   18   21 1
  36   19   20 ar
  37   19   37 1
  38   20   38 1
  39   21   22 2
  40   21   23 2

#	End of record

