#	Name: ASD03540115
#	Creating user name:	WinNT
#	Creation time:	15. 06. 2019 20:42

#	Modifying user name:	WinNT
#	Modification time:	15. 06. 2019 20:42

#	Program:	/corina/corina34_cracker 3.40 0067  02.08.2006

@<TRIPOS>MOLECULE
ASD03540115
  50   52    0    0    0
SMALL
NO_CHARGES


@<TRIPOS>ATOM
   1 C1            -0.0180     1.4744     0.0101 C.2     
   2 C2             0.0021    -0.0041     0.0020 C.ar    
   3 C3             1.2171    -0.6858    -0.0132 C.ar    
   4 C4             1.2272    -2.0787    -0.0203 C.ar    
   5 C5             2.5119    -2.8104    -0.0360 C.2     
   6 C6             0.0206    -2.7829    -0.0121 C.ar    
   7 C7            -1.1799    -2.1012     0.0030 C.ar    
   8 C8            -1.1968    -0.7203     0.0155 C.ar    
   9 O9             1.0263     2.0964     0.0035 O.2     
  10 N10           -1.1942     2.1323     0.0193 N.am    
  11 O11            3.5609    -2.1964    -0.0428 O.2     
  12 N12            2.5199    -4.1581    -0.0429 N.am    
  13 C13            3.7929    -4.8830    -0.0584 C.3     
  14 C14            3.5262    -6.3662    -0.0634 C.ar    
  15 C15            3.3929    -7.0395    -1.2637 C.ar    
  16 C16            3.1485    -8.3991    -1.2709 C.ar    
  17 C17            3.0368    -9.0890    -0.0725 C.ar    
  18 C18            3.1710    -8.4112     1.1305 C.ar    
  19 C19            3.4210    -7.0525     1.1323 C.ar    
  20 O20            2.7959   -10.4265    -0.0769 O.3     
  21 C21            2.6931   -11.0714     1.1941 C.3     
  22 C22           -1.2141     3.5972     0.0274 C.3     
  23 C23           -2.6415     4.0801     0.0368 C.ar    
  24 C24           -3.2906     4.2951     1.2382 C.ar    
  25 C25           -4.6000     4.7381     1.2468 C.ar    
  26 C26           -5.2602     4.9665     0.0540 C.ar    
  27 C27           -4.6109     4.7524    -1.1474 C.ar    
  28 C28           -3.3001     4.3136    -1.1560 C.ar    
  29 H29            2.1471    -0.1367    -0.0199 H       
  30 H30            0.0269    -3.8628    -0.0180 H       
  31 H31           -2.1098    -2.6503     0.0090 H       
  32 H32           -2.1393    -0.1932     0.0318 H       
  33 H33           -2.0276     1.6360     0.0206 H       
  34 H34            1.6827    -4.6481    -0.0375 H       
  35 H35            4.3545    -4.6118    -0.9524 H       
  36 H36            4.3712    -4.6208     0.8275 H       
  37 H37            3.4796    -6.5019    -2.1964 H       
  38 H38            3.0441    -8.9245    -2.2087 H       
  39 H39            3.0844    -8.9460     2.0648 H       
  40 H40            3.5302    -6.5252     2.0685 H       
  41 H41            1.8745   -10.6283     1.7612 H       
  42 H42            2.5002   -12.1342     1.0477 H       
  43 H43            3.6262   -10.9437     1.7429 H       
  44 H44           -0.7010     3.9626     0.9169 H       
  45 H45           -0.7094     3.9723    -0.8630 H       
  46 H46           -2.7747     4.1167     2.1701 H       
  47 H47           -5.1073     4.9054     2.1854 H       
  48 H48           -6.2835     5.3119     0.0607 H       
  49 H49           -5.1269     4.9305    -2.0794 H       
  50 H50           -2.7916     4.1498    -2.0946 H       
@<TRIPOS>BOND
   1    1    2 1
   2    1    9 2
   3    1   10 am
   4    2    3 ar
   5    2    8 ar
   6    3    4 ar
   7    3   29 1
   8    4    5 1
   9    4    6 ar
  10    5   11 2
  11    5   12 am
  12    6    7 ar
  13    6   30 1
  14    7    8 ar
  15    7   31 1
  16    8   32 1
  17   10   22 1
  18   10   33 1
  19   12   13 1
  20   12   34 1
  21   13   14 1
  22   13   35 1
  23   13   36 1
  24   14   15 ar
  25   14   19 ar
  26   15   16 ar
  27   15   37 1
  28   16   17 ar
  29   16   38 1
  30   17   18 ar
  31   17   20 1
  32   18   19 ar
  33   18   39 1
  34   19   40 1
  35   20   21 1
  36   21   41 1
  37   21   42 1
  38   21   43 1
  39   22   23 1
  40   22   44 1
  41   22   45 1
  42   23   24 ar
  43   23   28 ar
  44   24   25 ar
  45   24   46 1
  46   25   26 ar
  47   25   47 1
  48   26   27 ar
  49   26   48 1
  50   27   28 ar
  51   27   49 1
  52   28   50 1

#	End of record

