#	Name: ASD01910332
#	Creating user name:	WinNT
#	Creation time:	15. 06. 2019 19:55

#	Modifying user name:	WinNT
#	Modification time:	15. 06. 2019 19:55

#	Program:	/corina/corina34_cracker 3.40 0067  02.08.2006

@<TRIPOS>MOLECULE
ASD01910332
  39   41    0    0    0
SMALL
NO_CHARGES


@<TRIPOS>ATOM
   1 C1             0.0448     1.4280    -0.1281 C.2     
   2 C2             0.0535    -0.0039    -0.1121 C.1     
   3 C3             0.0607    -1.1778    -0.0990 C.1     
   4 C4             0.0695    -2.6097    -0.0830 C.ar    
   5 C5            -1.0071    -3.3105     0.4734 C.ar    
   6 C6            -0.9981    -4.6759     0.4877 C.ar    
   7 C7             0.0859    -5.3741    -0.0531 C.ar    
   8 C8             1.1616    -4.6750    -0.6090 C.ar    
   9 C9             1.1519    -3.3096    -0.6290 C.ar    
  10 C10            0.0949    -6.8502    -0.0366 C.2     
  11 O11           -0.8645    -7.4687    -0.4553 O.2     
  12 N12            1.1666    -7.5123     0.4425 N.am    
  13 C13            1.1579    -8.9781     0.5424 C.3     
  14 C14            1.5179    -9.3767     1.9771 C.3     
  15 C15            2.8492    -8.7283     2.3636 C.3     
  16 C16            2.7127    -7.2051     2.3052 C.3     
  17 C17            2.3683    -6.7823     0.8690 C.3     
  18 O18            3.2041    -9.1240     3.6900 O.3     
  19 N19            1.0280     2.2301    -0.6385 N.pl3   
  20 C20            0.6247     3.5234    -0.4522 C.2     
  21 C21           -0.5793     3.4798     0.1595 C.2     
  22 N22           -0.9151     2.2003     0.3417 N.2     
  23 H23           -1.8444    -2.7714     0.8914 H       
  24 H24           -1.8284    -5.2168     0.9172 H       
  25 H25            1.9987    -5.2151    -1.0261 H       
  26 H26            1.9828    -2.7698    -1.0587 H       
  27 H27            0.1651    -9.3552     0.2966 H       
  28 H28            1.8909    -9.3958    -0.1478 H       
  29 H29            0.7365    -9.0359     2.6563 H       
  30 H30            1.6090   -10.4609     2.0414 H       
  31 H31            3.6251    -9.0502     1.6689 H       
  32 H32            1.9200    -6.8847     2.9814 H       
  33 H33            3.6542    -6.7438     2.6032 H       
  34 H34            3.2014    -7.0213     0.2081 H       
  35 H35            2.1725    -5.7104     0.8407 H       
  36 H36            4.0393    -8.7496     4.0020 H       
  37 H37            1.8544     1.9372    -1.0534 H       
  38 H38            1.1665     4.4123    -0.7399 H       
  39 H39           -1.1717     4.3353     0.4486 H       
@<TRIPOS>BOND
   1    1    2 1
   2    1   19 1
   3    1   22 2
   4    2    3 3
   5    3    4 1
   6    4    5 ar
   7    4    9 ar
   8    5    6 ar
   9    5   23 1
  10    6    7 ar
  11    6   24 1
  12    7    8 ar
  13    7   10 1
  14    8    9 ar
  15    8   25 1
  16    9   26 1
  17   10   11 2
  18   10   12 am
  19   12   13 1
  20   12   17 1
  21   13   14 1
  22   13   27 1
  23   13   28 1
  24   14   15 1
  25   14   29 1
  26   14   30 1
  27   15   16 1
  28   15   18 1
  29   15   31 1
  30   16   17 1
  31   16   32 1
  32   16   33 1
  33   17   34 1
  34   17   35 1
  35   18   36 1
  36   19   20 1
  37   19   37 1
  38   20   21 2
  39   20   38 1
  40   21   22 1
  41   21   39 1

#	End of record

