#	Name: ASD01916623
#	Creating user name:	WinNT
#	Creation time:	15. 06. 2019 20:07

#	Modifying user name:	WinNT
#	Modification time:	15. 06. 2019 20:07

#	Program:	/corina/corina34_cracker 3.40 0067  02.08.2006

@<TRIPOS>MOLECULE
ASD01916623
  21   21    0    0    0
SMALL
NO_CHARGES


@<TRIPOS>ATOM
   1 C1            -0.0093     1.4748     0.0924 C.2     
   2 C2             0.0063    -0.0048     0.0419 C.ar    
   3 C3             1.2121    -0.6871    -0.1183 C.ar    
   4 C4             1.2200    -2.0672    -0.1648 C.ar    
   5 C5             0.0337    -2.7727    -0.0531 C.ar    
   6 C6            -1.1645    -2.1007     0.1059 C.ar    
   7 C7            -1.1840    -0.7218     0.1600 C.ar    
   8 N8             1.1100     2.1371     0.0972 N.2     
   9 N9            -1.2156     2.1536     0.1289 N.pl3   
  10 C10            2.5034     0.0800    -0.2410 C.3     
  11 O11            1.0951     3.5522     0.1456 O.3     
  12 Cl12           2.7194    -2.9190    -0.3641 Cl      
  13 H13            0.0442    -3.8520    -0.0906 H       
  14 H14           -2.0865    -2.6564     0.1925 H       
  15 H15           -2.1200    -0.1987     0.2890 H       
  16 H16           -2.0504     1.6598     0.1213 H       
  17 H17           -1.2258     3.1230     0.1620 H       
  18 H18            2.8686     0.3381     0.7531 H       
  19 H19            3.2443    -0.5350    -0.7518 H       
  20 H20            2.3315     0.9918    -0.8130 H       
  21 H21            1.9742     3.9551     0.1453 H       
@<TRIPOS>BOND
   1    1    2 1
   2    1    8 2
   3    1    9 1
   4    2    3 ar
   5    2    7 ar
   6    3    4 ar
   7    3   10 1
   8    4    5 ar
   9    4   12 1
  10    5    6 ar
  11    5   13 1
  12    6    7 ar
  13    6   14 1
  14    7   15 1
  15    8   11 1
  16    9   16 1
  17    9   17 1
  18   10   18 1
  19   10   19 1
  20   10   20 1
  21   11   21 1

#	End of record

