#	Name: ASD01940265
#	Creating user name:	WinNT
#	Creation time:	15. 06. 2019 20:12

#	Modifying user name:	WinNT
#	Modification time:	15. 06. 2019 20:12

#	Program:	/corina/corina34_cracker 3.40 0067  02.08.2006

@<TRIPOS>MOLECULE
ASD01940265
  42   44    0    0    0
SMALL
NO_CHARGES


@<TRIPOS>ATOM
   1 N1             1.3911     1.0593    -2.7046 N.2     
   2 C2             0.9678    -0.1160    -2.3384 C.2     
   3 N3             1.2384    -0.3232    -1.0229 N.pl3   
   4 C4             1.8752     0.8120    -0.5508 C.ar    
   5 C5             1.9639     1.6896    -1.6485 C.ar    
   6 C6             2.5665     2.9418    -1.4911 C.ar    
   7 C7             2.3811     1.1832     0.6805 C.ar    
   8 C8             2.9822     2.4330     0.8361 C.ar    
   9 C9             3.0725     3.3126    -0.2590 C.ar    
  10 C10            0.9162    -1.5242    -0.2483 C.3     
  11 F11            2.6545     3.7874    -2.5411 F       
  12 N12            3.6736     4.5609    -0.1009 N.pl3   
  13 C13            2.8914     5.6805     0.2013 C.ar    
  14 C14            3.5220     2.8320     2.1470 C.2     
  15 N15            3.3382     2.0389     3.2212 N.am    
  16 O16            4.1336     3.8771     2.2603 O.2     
  17 O17            3.8572     2.4226     4.4816 O.3     
  18 C18            3.5884     1.4888     5.5294 C.3     
  19 C19            4.1919     2.0030     6.8379 C.3     
  20 O20            3.5300     3.2083     7.2266 O.3     
  21 C21            1.3429     7.8965     0.7995 C.ar    
  22 C22            0.7650     6.6401     0.7574 C.ar    
  23 C23            1.5351     5.5327     0.4592 C.ar    
  24 C24            3.4718     6.9437     0.2498 C.ar    
  25 C25            2.6952     8.0480     0.5489 C.ar    
  26 Br26           0.2838     9.4090     1.2076 Br      
  27 F27            4.7923     7.0913     0.0054 F       
  28 H28            0.4726    -0.8240    -2.9864 H       
  29 H29            2.3112     0.5078     1.5203 H       
  30 H30            1.7465    -2.2280    -0.3070 H       
  31 H31            0.7452    -1.2501     0.7927 H       
  32 H32            0.0173    -1.9881    -0.6543 H       
  33 H33            4.6341     4.6528    -0.2005 H       
  34 H34            2.8504     1.2054     3.1308 H       
  35 H35            2.5107     1.3745     5.6466 H       
  36 H36            4.0310     0.5247     5.2793 H       
  37 H37            4.0647     1.2512     7.6168 H       
  38 H38            5.2541     2.2017     6.6947 H       
  39 H39            3.8621     3.5915     8.0500 H       
  40 H40           -0.2908     6.5254     0.9539 H       
  41 H41            1.0825     4.5527     0.4264 H       
  42 H42            3.1436     9.0300     0.5824 H       
@<TRIPOS>BOND
   1    1    2 2
   2    1    5 1
   3    2    3 1
   4    2   28 1
   5    3    4 1
   6    3   10 1
   7    4    7 ar
   8    4    5 ar
   9    5    6 ar
  10    6    9 ar
  11    6   11 1
  12    7    8 ar
  13    7   29 1
  14    8    9 ar
  15    8   14 1
  16    9   12 1
  17   10   30 1
  18   10   31 1
  19   10   32 1
  20   12   13 1
  21   12   33 1
  22   13   24 ar
  23   13   23 ar
  24   14   15 am
  25   14   16 2
  26   15   17 1
  27   15   34 1
  28   17   18 1
  29   18   19 1
  30   18   35 1
  31   18   36 1
  32   19   20 1
  33   19   37 1
  34   19   38 1
  35   20   39 1
  36   21   22 ar
  37   21   25 ar
  38   21   26 1
  39   22   23 ar
  40   22   40 1
  41   23   41 1
  42   24   25 ar
  43   24   27 1
  44   25   42 1

#	End of record

