#	Name: ASD00122083
#	Creating user name:	WinNT
#	Creation time:	15. 06. 2019 18:31

#	Modifying user name:	WinNT
#	Modification time:	15. 06. 2019 18:31

#	Program:	/corina/corina34_cracker 3.40 0067  02.08.2006

@<TRIPOS>MOLECULE
ASD00122083
  27   29    0    0    0
SMALL
NO_CHARGES


@<TRIPOS>ATOM
   1 C1            -0.0169     1.3928     0.0097 C.ar    
   2 C2             0.0021    -0.0041     0.0020 C.ar    
   3 N3            -1.1593    -0.6715     0.0099 N.ar    
   4 C4            -2.3067    -0.0340     0.0247 C.ar    
   5 N5            -2.3789     1.2848     0.0320 N.ar    
   6 C6            -1.2842     2.0319     0.0306 C.ar    
   7 C7             1.3203     1.9547    -0.0001 C.2     
   8 C8             2.2944     1.0653    -0.0141 C.2     
   9 S9             1.6653    -0.5716    -0.0169 S.3     
  10 S10           -1.4002     3.7900     0.0412 S.3     
  11 C11           -3.1995     3.9863     0.0515 C.3     
  12 C12           -3.5448     5.4532     0.0616 C.ar    
  13 C13           -3.7093     6.1327    -1.1309 C.ar    
  14 C14           -4.0260     7.4783    -1.1217 C.ar    
  15 C15           -4.1786     8.1442     0.0800 C.ar    
  16 C16           -4.0150     7.4644     1.2725 C.ar    
  17 C17           -3.7026     6.1179     1.2633 C.ar    
  18 H18           -3.2222    -0.6070     0.0306 H       
  19 H19            1.5043     3.0189     0.0036 H       
  20 H20            3.3454     1.3136    -0.0234 H       
  21 H21           -3.6210     3.5199    -0.8390 H       
  22 H22           -3.6119     3.5099     0.9410 H       
  23 H23           -3.5901     5.6124    -2.0698 H       
  24 H24           -4.1538     8.0093    -2.0534 H       
  25 H25           -4.4253     9.1956     0.0872 H       
  26 H26           -4.1339     7.9848     2.2114 H       
  27 H27           -3.5748     5.5868     2.1950 H       
@<TRIPOS>BOND
   1    1    2 ar
   2    1    7 1
   3    1    6 ar
   4    2    3 ar
   5    2    9 1
   6    3    4 ar
   7    4    5 ar
   8    4   18 1
   9    5    6 ar
  10    6   10 1
  11    7    8 2
  12    7   19 1
  13    8    9 1
  14    8   20 1
  15   10   11 1
  16   11   12 1
  17   11   21 1
  18   11   22 1
  19   12   13 ar
  20   12   17 ar
  21   13   14 ar
  22   13   23 1
  23   14   15 ar
  24   14   24 1
  25   15   16 ar
  26   15   25 1
  27   16   17 ar
  28   16   26 1
  29   17   27 1

#	End of record

