#	Name: ASD01882145
#	Creating user name:	WinNT
#	Creation time:	15. 06. 2019 19:44

#	Modifying user name:	WinNT
#	Modification time:	15. 06. 2019 19:44

#	Program:	/corina/corina34_cracker 3.40 0067  02.08.2006

@<TRIPOS>MOLECULE
ASD01882145
  47   50    0    0    0
SMALL
NO_CHARGES


@<TRIPOS>ATOM
   1 C1            -0.4018     0.7209    -1.0991 C.2     
   2 C2             0.0021    -0.0041     0.0020 C.2     
   3 C3            -0.8241    -0.0444     1.1454 C.2     
   4 C4            -1.9959     0.6200     1.1588 C.2     
   5 N5            -2.4054     1.3405     0.0735 N.pl3   
   6 C6            -1.6285     1.4091    -1.0540 C.2     
   7 C7            -3.5287     2.0906    -0.1689 C.2     
   8 C8            -3.4154     2.5860    -1.4191 C.2     
   9 N9            -2.2598     2.1659    -1.9426 N.2     
  10 N10            1.2139    -0.6906    -0.0142 N.pl3   
  11 Cl11           0.5934     0.7897    -2.5199 Cl      
  12 C12           -4.6744     2.3186     0.7831 C.3     
  13 C13            1.2456    -2.1560     0.0878 C.3     
  14 C14            2.1779    -2.5502     1.2377 C.3     
  15 C15            3.5489    -1.9054     1.0214 C.3     
  16 C16            3.4033    -0.3819     1.0182 C.3     
  17 C17            2.4845     0.0364    -0.1398 C.3     
  18 C18            4.4790    -2.3185     2.1328 C.ar    
  19 C19            5.8372    -2.4190     1.8954 C.ar    
  20 C20            6.6911    -2.7973     2.9140 C.ar    
  21 C21            6.1859    -3.0758     4.1727 C.ar    
  22 C22            4.8254    -2.9748     4.4093 C.ar    
  23 C23            3.9740    -2.5912     3.3905 C.ar    
  24 F24            7.0197    -3.4462     5.1691 F       
  25 O25            4.0847    -2.3350    -0.2318 O.3     
  26 C26           -5.7838     1.3042     0.4982 C.3     
  27 F27           -5.2858     0.0081     0.6697 F       
  28 F28           -6.8475     1.5158     1.3820 F       
  29 F29           -6.2325     1.4611    -0.8176 F       
  30 H30           -0.5160    -0.6099     2.0123 H       
  31 H31           -2.6200     0.5819     2.0394 H       
  32 H32           -4.1374     3.2191    -1.9133 H       
  33 H33           -4.3249     2.1964     1.8083 H       
  34 H34           -5.0624     3.3284     0.6495 H       
  35 H35            0.2414    -2.5302     0.2870 H       
  36 H36            1.6171    -2.5793    -0.8454 H       
  37 H37            1.7578    -2.2036     2.1818 H       
  38 H38            2.2858    -3.6345     1.2632 H       
  39 H39            2.9716    -0.0558     1.9644 H       
  40 H40            4.3833     0.0769     0.8875 H       
  41 H41            2.9594    -0.2085    -1.0898 H       
  42 H42            2.2971     1.1089    -0.0883 H       
  43 H43            6.2310    -2.2021     0.9134 H       
  44 H44            7.7521    -2.8761     2.7282 H       
  45 H45            4.4302    -3.1918     5.3907 H       
  46 H46            2.9128    -2.5124     3.5748 H       
  47 H47            4.9544    -1.9647    -0.4354 H       
@<TRIPOS>BOND
   1    1    2 2
   2    1   11 1
   3    1    6 1
   4    2    3 1
   5    2   10 1
   6    3    4 2
   7    3   30 1
   8    4    5 1
   9    4   31 1
  10    5    6 1
  11    5    7 1
  12    6    9 2
  13    7    8 2
  14    7   12 1
  15    8    9 1
  16    8   32 1
  17   10   13 1
  18   10   17 1
  19   12   26 1
  20   12   33 1
  21   12   34 1
  22   13   14 1
  23   13   35 1
  24   13   36 1
  25   14   15 1
  26   14   37 1
  27   14   38 1
  28   15   16 1
  29   15   18 1
  30   15   25 1
  31   16   17 1
  32   16   39 1
  33   16   40 1
  34   17   41 1
  35   17   42 1
  36   18   19 ar
  37   18   23 ar
  38   19   20 ar
  39   19   43 1
  40   20   21 ar
  41   20   44 1
  42   21   22 ar
  43   21   24 1
  44   22   23 ar
  45   22   45 1
  46   23   46 1
  47   25   47 1
  48   26   27 1
  49   26   28 1
  50   26   29 1

#	End of record

