#	Name: ASD02770097
#	Creating user name:	WinNT
#	Creation time:	15. 06. 2019 20:26

#	Modifying user name:	WinNT
#	Modification time:	15. 06. 2019 20:26

#	Program:	/corina/corina34_cracker 3.40 0067  02.08.2006

@<TRIPOS>MOLECULE
ASD02770097
  31   32    0    0    0
SMALL
NO_CHARGES


@<TRIPOS>ATOM
   1 N1             0.0148     1.5253     0.0165 N.pl3   
   2 C2             0.1116     0.0669    -0.1341 C.3     
   3 C3             1.1317    -0.4435     0.8920 C.3     
   4 C4             2.5006     0.1536     0.5664 C.3     
   5 C5             2.4018     1.6489     0.4175 C.ar    
   6 C6             3.5496     2.4127     0.5502 C.ar    
   7 C7             3.4920     3.7862     0.4163 C.ar    
   8 C8             2.2862     4.4083     0.1480 C.ar    
   9 C9             1.1375     3.6545     0.0154 C.ar    
  10 C10            1.1928     2.2718     0.1513 C.ar    
  11 C11           -1.2124     2.1483     0.0195 C.2     
  12 N12           -1.8514     2.3229     1.1410 N.2     
  13 N13           -1.7658     2.5878    -1.1653 N.pl3   
  14 C14           -1.0737     2.4343    -2.3485 C.2     
  15 N15            0.0573     1.7883    -2.3623 N.2     
  16 N16           -1.5775     2.9631    -3.5131 N.pl3   
  17 H17           -0.8605    -0.3890     0.0535 H       
  18 H18            0.4470    -0.1786    -1.1417 H       
  19 H19            0.8280    -0.1364     1.8928 H       
  20 H20            1.1865    -1.5310     0.8426 H       
  21 H21            3.1968    -0.0826     1.3712 H       
  22 H22            2.8687    -0.2771    -0.3648 H       
  23 H23            4.4938     1.9322     0.7597 H       
  24 H24            4.3907     4.3759     0.5215 H       
  25 H25            2.2433     5.4823     0.0429 H       
  26 H26            0.1952     4.1390    -0.1936 H       
  27 H27           -2.6809     2.8255     1.1534 H       
  28 H28           -2.6415     3.0048    -1.1663 H       
  29 H29            0.5440     1.6804    -3.1944 H       
  30 H30           -2.4198     3.4441    -3.5027 H       
  31 H31           -1.0908     2.8551    -4.3451 H       
@<TRIPOS>BOND
   1    1    2 1
   2    1   10 1
   3    1   11 1
   4    2    3 1
   5    2   17 1
   6    2   18 1
   7    3    4 1
   8    3   19 1
   9    3   20 1
  10    4    5 1
  11    4   21 1
  12    4   22 1
  13    5    6 ar
  14    5   10 ar
  15    6    7 ar
  16    6   23 1
  17    7    8 ar
  18    7   24 1
  19    8    9 ar
  20    8   25 1
  21    9   10 ar
  22    9   26 1
  23   11   12 2
  24   11   13 1
  25   12   27 1
  26   13   14 1
  27   13   28 1
  28   14   15 2
  29   14   16 1
  30   15   29 1
  31   16   30 1
  32   16   31 1

#	End of record

