#	Name: ASD07300843
#	Creating user name:	WinNT
#	Creation time:	15. 06. 2019 21:10

#	Modifying user name:	WinNT
#	Modification time:	15. 06. 2019 21:10

#	Program:	/corina/corina34_cracker 3.40 0067  02.08.2006

@<TRIPOS>MOLECULE
ASD07300843
  49   53    0    0    0
SMALL
NO_CHARGES


@<TRIPOS>ATOM
   1 N1             0.2074     1.2803     0.0888 N.am    
   2 C2             0.1374    -0.0741     0.0465 C.2     
   3 N3             1.1894    -0.8379     0.0046 N.2     
   4 C4             2.4329    -0.3323    -0.0002 C.2     
   5 C5             2.6055     1.0602     0.0412 C.2     
   6 C6             1.4100     1.9019     0.0884 C.2     
   7 N7             3.6768    -0.8764    -0.0383 N.pl3   
   8 N8             4.6133     0.1649    -0.0209 N.2     
   9 C9             3.9904     1.3101     0.0259 C.2     
  10 O10            1.4934     3.1168     0.1252 O.2     
  11 C11            3.9860    -2.3075    -0.0885 C.3     
  12 C12            4.7774    -2.6140    -1.3615 C.3     
  13 C13            5.1003    -4.1086    -1.4140 C.3     
  14 C14            5.9340    -4.4935    -0.1901 C.3     
  15 C15            5.1425    -4.1870     1.0829 C.3     
  16 C16            4.8196    -2.6924     1.1354 C.3     
  17 C17           -1.2225    -0.7236     0.0487 C.3     
  18 C18           -1.6494    -1.2636    -1.3265 C.3     
  19 C19           -2.2273    -2.4789    -0.5822 C.3     
  20 C20           -1.2068    -2.1841     0.5297 C.3     
  21 C21           -1.7588    -2.3678     1.9199 C.ar    
  22 C22           -3.0730    -2.0310     2.1828 C.ar    
  23 C23           -3.5712    -2.2038     3.4653 C.ar    
  24 C24           -2.7249    -2.7111     4.4392 C.ar    
  25 C25           -1.4219    -3.0255     4.1018 C.ar    
  26 N26           -0.9837    -2.8531     2.8702 N.ar    
  27 F27            6.2292    -5.8601    -0.2380 F       
  28 F28            7.1246    -3.7590    -0.1872 F       
  29 H29           -0.6077     1.8055     0.1154 H       
  30 H30            4.4576     2.2836     0.0490 H       
  31 H31            3.0583    -2.8798    -0.0908 H       
  32 H32            4.1835    -2.3397    -2.2334 H       
  33 H33            5.7051    -2.0417    -1.3592 H       
  34 H34            4.1727    -4.6808    -1.4163 H       
  35 H35            5.6642    -4.3269    -2.3209 H       
  36 H36            4.2149    -4.7593     1.0806 H       
  37 H37            5.7364    -4.4612     1.9548 H       
  38 H38            5.7473    -2.1201     1.1377 H       
  39 H39            4.2558    -2.4741     2.0423 H       
  40 H40           -1.9833    -0.1112     0.5327 H       
  41 H41           -2.4061    -0.6533    -1.8195 H       
  42 H42           -0.8112    -1.5090    -1.9786 H       
  43 H43           -3.2633    -2.3476    -0.2701 H       
  44 H44           -2.0549    -3.4262    -1.0931 H       
  45 H45           -0.2476    -2.6812     0.3851 H       
  46 H46           -3.7039    -1.6379     1.3994 H       
  47 H47           -4.5941    -1.9490     3.7000 H       
  48 H48           -3.0792    -2.8584     5.4487 H       
  49 H49           -0.7562    -3.4209     4.8547 H       
@<TRIPOS>BOND
   1    1    2 1
   2    1    6 am
   3    1   29 1
   4    2    3 2
   5    2   17 1
   6    3    4 1
   7    4    5 2
   8    4    7 1
   9    5    6 1
  10    5    9 1
  11    6   10 2
  12    7    8 1
  13    7   11 1
  14    8    9 2
  15    9   30 1
  16   11   12 1
  17   11   16 1
  18   11   31 1
  19   12   13 1
  20   12   32 1
  21   12   33 1
  22   13   14 1
  23   13   34 1
  24   13   35 1
  25   14   15 1
  26   14   27 1
  27   14   28 1
  28   15   16 1
  29   15   36 1
  30   15   37 1
  31   16   38 1
  32   16   39 1
  33   17   18 1
  34   17   20 1
  35   17   40 1
  36   18   19 1
  37   18   41 1
  38   18   42 1
  39   19   20 1
  40   19   43 1
  41   19   44 1
  42   20   21 1
  43   20   45 1
  44   21   22 ar
  45   21   26 ar
  46   22   23 ar
  47   22   46 1
  48   23   24 ar
  49   23   47 1
  50   24   25 ar
  51   24   48 1
  52   25   26 ar
  53   25   49 1

#	End of record

