#	Name: ASD05430118
#	Creating user name:	WinNT
#	Creation time:	15. 06. 2019 20:59

#	Modifying user name:	WinNT
#	Modification time:	15. 06. 2019 20:59

#	Program:	/corina/corina34_cracker 3.40 0067  02.08.2006

@<TRIPOS>MOLECULE
ASD05430118
  66   71    0    0    0
SMALL
NO_CHARGES


@<TRIPOS>ATOM
   1 F1            13.1247     0.5431    -1.6864 F       
   2 C2             1.1350    -0.1655    -1.3069 C.ar    
   3 C3            -0.0309     0.3562    -0.7473 C.ar    
   4 C4             0.0154     1.5301    -0.0063 C.ar    
   5 C5             1.2135     2.1849     0.1791 C.ar    
   6 C6             2.3869     1.6676    -0.3792 C.ar    
   7 C7             2.3404     0.4857    -1.1247 C.ar    
   8 C8             4.8376     0.1432    -0.0551 C.3     
   9 C9             4.8133     1.6633    -0.1111 C.2     
  10 C10            3.6678     2.3660    -0.1827 C.2     
  11 C11            5.8633    -0.2884     0.9904 C.3     
  12 C12            7.2730     0.1646     0.6189 C.3     
  13 N13            7.2671     1.5999     0.3493 N.pl3   
  14 C14            6.1436     2.3118    -0.0806 C.2     
  15 C15            9.6286     2.0327    -0.1039 C.ar    
  16 C16           10.0668     0.7715     0.2546 C.ar    
  17 C17           11.2403     0.2703    -0.2761 C.ar    
  18 C18           11.9772     1.0319    -1.1673 C.ar    
  19 C19           11.5373     2.2949    -1.5256 C.ar    
  20 C20           10.3608     2.7918    -0.9976 C.ar    
  21 N21           -1.2523    -0.3052    -0.9335 N.pl3   
  22 C22           -2.1546    -0.6404     0.0427 C.2     
  23 C23           -3.1816    -1.2586    -0.5711 C.2     
  24 N24           -2.9188    -1.3023    -1.8856 N.2     
  25 C25           -1.7685    -0.7299    -2.1159 C.2     
  26 C26           -4.4130    -1.8070     0.1027 C.3     
  27 N27            6.4708     3.5092    -0.4305 N.2     
  28 C28            8.3486     2.5778     0.4751 C.3     
  29 O29            7.8740     3.6971    -0.3024 O.3     
  30 C30            8.5474     2.9778     1.9385 C.3     
  31 O31            9.6073     3.9317     2.0318 O.3     
  32 C32            2.3192    -1.7945    -2.5712 C.3     
  33 O33            1.0869    -1.3177    -2.0270 O.3     
  34 C34            5.4752     0.2566     2.3733 C.3     
  35 O35            5.1997    -0.8780     3.2141 O.3     
  36 C36            5.9620    -1.9870     2.6896 C.3     
  37 C37            5.8316    -1.8230     1.1529 C.3     
  38 H38           -0.8899     1.9308     0.4254 H       
  39 H39            1.2464     3.0979     0.7551 H       
  40 H40            3.2442     0.0826    -1.5572 H       
  41 H41            3.8518    -0.2286     0.2241 H       
  42 H42            5.1192    -0.2546    -1.0301 H       
  43 H43            3.6882     3.4423    -0.0959 H       
  44 H44            7.9522    -0.0473     1.4447 H       
  45 H45            7.6042    -0.3709    -0.2708 H       
  46 H46            9.4921     0.1778     0.9500 H       
  47 H47           11.5826    -0.7148     0.0044 H       
  48 H48           12.1113     2.8898    -2.2206 H       
  49 H49           10.0175     3.7770    -1.2770 H       
  50 H50           -2.0598    -0.4464     1.1009 H       
  51 H51           -1.3022    -0.6188    -3.0837 H       
  52 H52           -5.1806    -1.0341     0.1413 H       
  53 H53           -4.7859    -2.6616    -0.4618 H       
  54 H54           -4.1631    -2.1218     1.1159 H       
  55 H55            7.6274     3.4182     2.3230 H       
  56 H56            8.8005     2.0948     2.5253 H       
  57 H57            9.7891     4.2307     2.9333 H       
  58 H58            2.7328    -1.0447    -3.2456 H       
  59 H59            3.0245    -1.9840    -1.7621 H       
  60 H60            2.1402    -2.7185    -3.1210 H       
  61 H61            6.3002     0.8350     2.7891 H       
  62 H62            4.5858     0.8812     2.2898 H       
  63 H63            7.0055    -1.9142     2.9959 H       
  64 H64            5.5317    -2.9350     3.0122 H       
  65 H65            4.8865    -2.2328     0.7964 H       
  66 H66            6.6737    -2.2864     0.6390 H       
@<TRIPOS>BOND
   1    1   18 1
   2    2    3 ar
   3    2    7 ar
   4    2   33 1
   5    3    4 ar
   6    3   21 1
   7    4    5 ar
   8    4   38 1
   9    5    6 ar
  10    5   39 1
  11    6    7 ar
  12    6   10 1
  13    7   40 1
  14    8    9 1
  15    8   11 1
  16    8   41 1
  17    8   42 1
  18    9   10 2
  19    9   14 1
  20   10   43 1
  21   11   12 1
  22   11   34 1
  23   11   37 1
  24   12   13 1
  25   12   44 1
  26   12   45 1
  27   13   14 1
  28   13   28 1
  29   14   27 2
  30   15   16 ar
  31   15   28 1
  32   15   20 ar
  33   16   17 ar
  34   16   46 1
  35   17   18 ar
  36   17   47 1
  37   18   19 ar
  38   19   20 ar
  39   19   48 1
  40   20   49 1
  41   21   22 1
  42   21   25 1
  43   22   23 2
  44   22   50 1
  45   23   24 1
  46   23   26 1
  47   24   25 2
  48   25   51 1
  49   26   52 1
  50   26   53 1
  51   26   54 1
  52   27   29 1
  53   28   29 1
  54   28   30 1
  55   30   31 1
  56   30   55 1
  57   30   56 1
  58   31   57 1
  59   32   33 1
  60   32   58 1
  61   32   59 1
  62   32   60 1
  63   34   35 1
  64   34   61 1
  65   34   62 1
  66   35   36 1
  67   36   37 1
  68   36   63 1
  69   36   64 1
  70   37   65 1
  71   37   66 1

#	End of record

