#	Name: ASD08150469
#	Creating user name:	WinNT
#	Creation time:	15. 06. 2019 21:16

#	Modifying user name:	WinNT
#	Modification time:	15. 06. 2019 21:16

#	Program:	/corina/corina34_cracker 3.40 0067  02.08.2006

@<TRIPOS>MOLECULE
ASD08150469
  83   89    0    0    0
SMALL
NO_CHARGES


@<TRIPOS>ATOM
   1 N1            -0.1317     1.9701    -2.5525 N.am    
   2 C2             0.5564     1.2184    -1.6714 C.2     
   3 C3             1.6378     0.4181    -2.0922 C.2     
   4 C4             2.0018     0.3943    -3.3997 C.2     
   5 C5             1.2798     1.1835    -4.3295 C.ar    
   6 C6             1.6156     1.1949    -5.6969 C.ar    
   7 N7             0.9479     1.9239    -6.5523 N.ar    
   8 C8            -0.0859     2.6960    -6.1841 C.ar    
   9 C9            -0.4940     2.7460    -4.8285 C.ar    
  10 C10            0.2085     1.9694    -3.8774 C.ar    
  11 C11           -1.5721     3.5547    -4.4551 C.ar    
  12 C12           -2.2310     4.3003    -5.4182 C.ar    
  13 C13           -1.8218     4.2459    -6.7573 C.ar    
  14 C14           -0.7754     3.4639    -7.1366 C.ar    
  15 O15            0.2397     1.2307    -0.4940 O.2     
  16 C16           -3.3767     5.1609    -5.0302 C.2     
  17 C17           -1.2062     2.7529    -2.1100 C.ar    
  18 C18           -2.4769     2.2002    -2.0194 C.ar    
  19 C19           -3.5356     2.9714    -1.5834 C.ar    
  20 C20           -3.3298     4.3002    -1.2354 C.ar    
  21 C21           -2.0584     4.8531    -1.3261 C.ar    
  22 C22           -0.9991     4.0803    -1.7566 C.ar    
  23 N23           -4.4020     5.0815    -0.7943 N.3     
  24 C24           -3.5113     6.4925    -5.2962 C.2     
  25 C25           -5.2827     5.4453    -1.9116 C.3     
  26 C26           -3.9260     6.2748    -0.0831 C.3     
  27 C27           -5.1198     7.0272     0.5092 C.3     
  28 C28           -6.0741     7.4292    -0.6187 C.3     
  29 C29           -6.5170     6.1730    -1.3739 C.3     
  30 C30           -7.2811     8.1180    -0.0357 C.2     
  31 N31           -8.2612     8.5620    -0.8474 N.am    
  32 O32           -7.3704     8.2729     1.1638 O.2     
  33 C33           -9.4345     9.2316    -0.2806 C.3     
  34 C34          -10.0542    10.1556    -1.3326 C.3     
  35 C35          -10.4686     8.1835     0.1395 C.3     
  36 C36          -11.7161     8.8905     0.6742 C.3     
  37 N37          -12.2717     9.7616    -0.3693 N.3     
  38 C38          -11.3137    10.8055    -0.7553 C.3     
  39 C39          -13.5471    10.3504     0.0604 C.3     
  40 C40           -4.5253     4.7502    -4.3259 C.2     
  41 N41           -5.3028     5.7896    -4.1759 N.2     
  42 N42           -4.6884     6.8952    -4.7762 N.pl3   
  43 C43           -5.2311     8.2549    -4.8305 C.3     
  44 C44           -4.9147     2.3717    -1.4856 C.3     
  45 F45           -4.8108     0.9833    -1.3481 F       
  46 F46           -5.5761     2.9023    -0.3728 F       
  47 F47           -5.6375     2.6727    -2.6450 F       
  48 H48            2.1787    -0.1777    -1.3719 H       
  49 H49            2.8299    -0.2170    -3.7267 H       
  50 H50            2.4401     0.5905    -6.0453 H       
  51 H51           -1.8886     3.5971    -3.4234 H       
  52 H52           -2.3445     4.8325    -7.4984 H       
  53 H53           -0.4733     3.4343    -8.1730 H       
  54 H54           -2.6370     1.1670    -2.2903 H       
  55 H55           -1.8982     5.8863    -1.0556 H       
  56 H56           -0.0108     4.5099    -1.8271 H       
  57 H57           -2.8032     7.1117    -5.8267 H       
  58 H58           -4.7462     6.0994    -2.5989 H       
  59 H59           -5.5937     4.5427    -2.4377 H       
  60 H60           -3.2517     5.9747     0.7190 H       
  61 H61           -3.3959     6.9250    -0.7789 H       
  62 H62           -5.6424     6.3823     1.2156 H       
  63 H63           -4.7675     7.9213     1.0237 H       
  64 H64           -5.5635     8.1054    -1.3044 H       
  65 H65           -7.1629     6.4566    -2.2048 H       
  66 H66           -7.0616     5.5145    -0.6972 H       
  67 H67           -8.1897     8.4381    -1.8068 H       
  68 H68           -9.1351     9.8179     0.5881 H       
  69 H69           -9.3371    10.9301    -1.6045 H       
  70 H70          -10.3169     9.5753    -2.2172 H       
  71 H71          -10.7379     7.5722    -0.7219 H       
  72 H72          -10.0476     7.5490     0.9194 H       
  73 H73          -12.4601     8.1472     0.9609 H       
  74 H74          -11.4487     9.4907     1.5439 H       
  75 H75          -11.0482    11.3967     0.1211 H       
  76 H76          -11.7654    11.4530    -1.5068 H       
  77 H77          -13.3886    10.9422     0.9619 H       
  78 H78          -13.9366    10.9908    -0.7310 H       
  79 H79          -14.2625     9.5549     0.2691 H       
  80 H80           -4.7282     3.7502    -3.9719 H       
  81 H81           -4.8983     8.8141    -3.9560 H       
  82 H82           -4.8785     8.7510    -5.7347 H       
  83 H83           -6.3201     8.2114    -4.8410 H       
@<TRIPOS>BOND
   1    1    2 am
   2    1   10 1
   3    1   17 1
   4    2    3 1
   5    2   15 2
   6    3    4 2
   7    3   48 1
   8    4    5 1
   9    4   49 1
  10    5    6 ar
  11    5   10 ar
  12    6    7 ar
  13    6   50 1
  14    7    8 ar
  15    8    9 ar
  16    8   14 ar
  17    9   10 ar
  18    9   11 ar
  19   11   12 ar
  20   11   51 1
  21   12   13 ar
  22   12   16 1
  23   13   14 ar
  24   13   52 1
  25   14   53 1
  26   16   24 2
  27   16   40 1
  28   17   18 ar
  29   17   22 ar
  30   18   19 ar
  31   18   54 1
  32   19   20 ar
  33   19   44 1
  34   20   21 ar
  35   20   23 1
  36   21   22 ar
  37   21   55 1
  38   22   56 1
  39   23   25 1
  40   23   26 1
  41   24   42 1
  42   24   57 1
  43   25   29 1
  44   25   58 1
  45   25   59 1
  46   26   27 1
  47   26   60 1
  48   26   61 1
  49   27   28 1
  50   27   62 1
  51   27   63 1
  52   28   29 1
  53   28   30 1
  54   28   64 1
  55   29   65 1
  56   29   66 1
  57   30   31 am
  58   30   32 2
  59   31   33 1
  60   31   67 1
  61   33   34 1
  62   33   35 1
  63   33   68 1
  64   34   38 1
  65   34   69 1
  66   34   70 1
  67   35   36 1
  68   35   71 1
  69   35   72 1
  70   36   37 1
  71   36   73 1
  72   36   74 1
  73   37   38 1
  74   37   39 1
  75   38   75 1
  76   38   76 1
  77   39   77 1
  78   39   78 1
  79   39   79 1
  80   40   41 2
  81   40   80 1
  82   41   42 1
  83   42   43 1
  84   43   81 1
  85   43   82 1
  86   43   83 1
  87   44   45 1
  88   44   46 1
  89   44   47 1

#	End of record

