#	Name: ASD01912229
#	Creating user name:	WinNT
#	Creation time:	15. 06. 2019 19:59

#	Modifying user name:	WinNT
#	Modification time:	15. 06. 2019 19:59

#	Program:	/corina/corina34_cracker 3.40 0067  02.08.2006

@<TRIPOS>MOLECULE
ASD01912229
  57   59    0    0    0
SMALL
NO_CHARGES


@<TRIPOS>ATOM
   1 N1            -0.0178     1.4643     0.0101 N.am    
   2 C2             0.0021    -0.0041     0.0020 C.3     
   3 C3             0.7747    -0.4806    -1.2345 C.3     
   4 C4             2.0883     0.2677    -1.2953 C.2     
   5 C5             2.0586     1.7791    -1.2346 C.3     
   6 C6             1.2537     2.1990     0.0019 C.3     
   7 C7            -1.1897     2.1301     0.0193 C.2     
   8 O8            -2.2377     1.5153     0.0209 O.2     
   9 O9            -1.1990     3.4764     0.0267 O.3     
  10 C10            3.2531    -0.3941    -1.4001 C.2     
  11 C11            3.2611    -1.8250    -1.4557 C.1     
  12 C12            3.2677    -2.9981    -1.5012 C.1     
  13 C13            4.5313     0.3580    -1.4583 C.ar    
  14 C14            5.4642     0.2318    -0.4311 C.ar    
  15 C15            6.6512     0.9336    -0.4903 C.ar    
  16 C16            6.9154     1.7610    -1.5669 C.ar    
  17 C17            5.9928     1.8900    -2.5894 C.ar    
  18 C18            4.8051     1.1885    -2.5432 C.ar    
  19 C19            3.2758    -4.4290    -1.5568 C.ar    
  20 C20            4.4901    -5.1124    -1.6659 C.ar    
  21 C21            4.4803    -6.4941    -1.7183 C.ar    
  22 C22            3.2586    -7.1518    -1.6603 C.ar    
  23 C23            2.0939    -6.4140    -1.5526 C.ar    
  24 N24            2.1282    -5.0984    -1.4988 N.ar    
  25 C25            0.7670    -7.1256    -1.4895 C.3     
  26 C26           -2.4972     4.1266     0.0364 C.3     
  27 C27           -3.2702     3.7033     1.2870 C.3     
  28 C28           -2.3072     5.6448     0.0437 C.3     
  29 C29           -3.2821     3.7169    -1.2114 C.3     
  30 H30            0.4951    -0.3678     0.9035 H       
  31 H31           -1.0191    -0.3831    -0.0367 H       
  32 H32            0.9654    -1.5510    -1.1581 H       
  33 H33            0.1929    -0.2742    -2.1328 H       
  34 H34            3.0757     2.1634    -1.1583 H       
  35 H35            1.5834     2.1732    -2.1330 H       
  36 H36            1.0565     3.2703    -0.0369 H       
  37 H37            1.8186     1.9618     0.9034 H       
  38 H38            5.2588    -0.4137     0.4100 H       
  39 H39            7.3749     0.8368     0.3055 H       
  40 H40            7.8453     2.3086    -1.6090 H       
  41 H41            6.2040     2.5377    -3.4274 H       
  42 H42            4.0875     1.2862    -3.3444 H       
  43 H43            5.4225    -4.5691    -1.7089 H       
  44 H44            5.4026    -7.0497    -1.8029 H       
  45 H45            3.2183    -8.2303    -1.6994 H       
  46 H46            0.5169    -7.3365    -0.4497 H       
  47 H47           -0.0054    -6.4936    -1.9279 H       
  48 H48            0.8296    -8.0612    -2.0451 H       
  49 H49           -2.7110     3.9952     2.1759 H       
  50 H50           -4.2448     4.1914     1.2943 H       
  51 H51           -3.4056     2.6218     1.2818 H       
  52 H52           -1.7565     5.9463    -0.8473 H       
  53 H53           -3.2818     6.1328     0.0510 H       
  54 H54           -1.7480     5.9366     0.9326 H       
  55 H55           -3.4175     2.6353    -1.2166 H       
  56 H56           -4.2567     4.2050    -1.2041 H       
  57 H57           -2.7314     4.0185    -2.1024 H       
@<TRIPOS>BOND
   1    1    2 1
   2    1    6 1
   3    1    7 am
   4    2    3 1
   5    2   30 1
   6    2   31 1
   7    3    4 1
   8    3   32 1
   9    3   33 1
  10    4    5 1
  11    4   10 2
  12    5    6 1
  13    5   34 1
  14    5   35 1
  15    6   36 1
  16    6   37 1
  17    7    8 2
  18    7    9 1
  19    9   26 1
  20   10   11 1
  21   10   13 1
  22   11   12 3
  23   12   19 1
  24   13   14 ar
  25   13   18 ar
  26   14   15 ar
  27   14   38 1
  28   15   16 ar
  29   15   39 1
  30   16   17 ar
  31   16   40 1
  32   17   18 ar
  33   17   41 1
  34   18   42 1
  35   19   20 ar
  36   19   24 ar
  37   20   21 ar
  38   20   43 1
  39   21   22 ar
  40   21   44 1
  41   22   23 ar
  42   22   45 1
  43   23   24 ar
  44   23   25 1
  45   25   46 1
  46   25   47 1
  47   25   48 1
  48   26   27 1
  49   26   29 1
  50   26   28 1
  51   27   49 1
  52   27   50 1
  53   27   51 1
  54   28   52 1
  55   28   53 1
  56   28   54 1
  57   29   55 1
  58   29   56 1
  59   29   57 1

#	End of record

