#	Name: ASD01900403
#	Creating user name:	WinNT
#	Creation time:	15. 06. 2019 19:51

#	Modifying user name:	WinNT
#	Modification time:	15. 06. 2019 19:51

#	Program:	/corina/corina34_cracker 3.40 0067  02.08.2006

@<TRIPOS>MOLECULE
ASD01900403
  27   29    0    0    0
SMALL
NO_CHARGES


@<TRIPOS>ATOM
   1 C1            -0.0155     1.3856     0.0391 C.ar    
   2 C2             0.0468     0.0941    -0.4668 C.ar    
   3 C3             1.2521    -0.5808    -0.4915 C.ar    
   4 C4             2.4013     0.0337    -0.0104 C.ar    
   5 C5             2.3375     1.3256     0.4948 C.ar    
   6 C6             1.1315     1.9989     0.5193 C.ar    
   7 O7            -1.2014     2.0515     0.0586 O.3     
   8 Cl8           -1.3900    -0.6729    -1.0677 Cl      
   9 N9             3.6224    -0.6489    -0.0346 N.pl3   
  10 C10            6.1704    -0.4984    -0.0738 C.ar    
  11 C11            7.0540     0.5852    -0.2394 C.ar    
  12 C12            8.4279     0.3477    -0.2183 C.ar    
  13 C13            8.8639    -0.9498    -0.0345 C.ar    
  14 C14            7.9354    -1.9706     0.1225 C.ar    
  15 N15            6.6442    -1.7299     0.0997 N.ar    
  16 N16            4.9349     1.3528    -0.3301 N.2     
  17 N17            6.2859     1.7088    -0.3948 N.pl3   
  18 C18            4.8199     0.0641    -0.1477 C.2     
  19 H19            1.3007    -1.5856    -0.8843 H       
  20 H20            3.2306     1.8037     0.8693 H       
  21 H21            1.0822     3.0036     0.9122 H       
  22 H22           -1.7127     1.9207     0.8689 H       
  23 H23            3.6383    -1.6168     0.0272 H       
  24 H24            9.1323     1.1568    -0.3428 H       
  25 H25            9.9211    -1.1694    -0.0132 H       
  26 H26            8.2821    -2.9834     0.2656 H       
  27 H27            6.6249     2.6078    -0.5281 H       
@<TRIPOS>BOND
   1    1    2 ar
   2    1    6 ar
   3    1    7 1
   4    2    3 ar
   5    2    8 1
   6    3    4 ar
   7    3   19 1
   8    4    5 ar
   9    4    9 1
  10    5    6 ar
  11    5   20 1
  12    6   21 1
  13    7   22 1
  14    9   18 1
  15    9   23 1
  16   10   11 ar
  17   10   15 ar
  18   10   18 1
  19   11   12 ar
  20   11   17 1
  21   12   13 ar
  22   12   24 1
  23   13   14 ar
  24   13   25 1
  25   14   15 ar
  26   14   26 1
  27   16   17 1
  28   16   18 2
  29   17   27 1

#	End of record

