#	Name: ASD04060001
#	Creating user name:	WinNT
#	Creation time:	15. 06. 2019 20:48

#	Modifying user name:	WinNT
#	Modification time:	15. 06. 2019 20:48

#	Program:	/corina/corina34_cracker 3.40 0067  02.08.2006

@<TRIPOS>MOLECULE
ASD04060001
   5    4    0    0    0
SMALL
NO_CHARGES


@<TRIPOS>ATOM
   1 N1            -0.0116     1.0048     0.0076 N.4     
   2 H2             0.0021    -0.0041     0.0020 H       
   3 H3             0.9350     1.3541     0.0004 H       
   4 H4            -0.4996     1.3391    -0.8099 H       
   5 H5            -0.4839     1.3302     0.8377 H       
@<TRIPOS>BOND
   1    1    2 1
   2    1    3 1
   3    1    4 1
   4    1    5 1

#	End of record

