#	Name: ASD03090786
#	Creating user name:	WinNT
#	Creation time:	15. 06. 2019 20:29

#	Modifying user name:	WinNT
#	Modification time:	15. 06. 2019 20:29

#	Program:	/corina/corina34_cracker 3.40 0067  02.08.2006

@<TRIPOS>MOLECULE
ASD03090786
  41   44    0    0    0
SMALL
NO_CHARGES


@<TRIPOS>ATOM
   1 N1            -0.0509     1.2943    -0.5551 N.am    
   2 C2            -0.0143    -0.0330    -0.2632 C.2     
   3 N3            -1.0718    -0.7325     0.0145 N.2     
   4 C4            -2.3092    -0.1753     0.0327 C.ar    
   5 C5            -2.4446     1.2003    -0.2586 C.ar    
   6 C6            -1.2263     1.9652    -0.5636 C.2     
   7 O7            -1.2742     3.1537    -0.8229 O.2     
   8 C8            -3.4466    -0.9290     0.3312 C.ar    
   9 C9            -4.6754    -0.3333     0.3393 C.ar    
  10 C10           -4.8150     1.0245     0.0526 C.ar    
  11 C11           -3.7042     1.7950    -0.2466 C.ar    
  12 N12           -6.0837     1.6107     0.0669 N.3     
  13 C13            1.1935     2.0059    -0.8571 C.3     
  14 C14           -6.2091     2.6193    -0.9921 C.3     
  15 C15           -7.6322     3.1362    -1.1341 C.3     
  16 N16           -8.0654     3.8113     0.0988 N.3     
  17 C17           -8.7893     2.8665     0.9613 C.3     
  18 C18           -7.8379     1.9854     1.7453 C.3     
  19 C19           -6.3766     2.2003     1.3809 C.3     
  20 C20           -5.9629     3.6606     1.3746 C.3     
  21 C21           -7.0507     4.5592     0.8097 C.3     
  22 H22            0.9440    -0.5311    -0.2628 H       
  23 H23           -3.3544    -1.9816     0.5549 H       
  24 H24           -5.5511    -0.9217     0.5706 H       
  25 H25           -3.8132     2.8463    -0.4685 H       
  26 H26            2.0321     1.3120    -0.7989 H       
  27 H27            1.1378     2.4250    -1.8617 H       
  28 H28            1.3365     2.8101    -0.1353 H       
  29 H29           -5.5506     3.4568    -0.7618 H       
  30 H30           -5.8978     2.1777    -1.9388 H       
  31 H31           -7.6770     3.8412    -1.9642 H       
  32 H32           -8.2997     2.2991    -1.3386 H       
  33 H33           -9.4120     3.4267     1.6588 H       
  34 H34           -9.4285     2.2372     0.3419 H       
  35 H35           -7.9668     2.1907     2.8080 H       
  36 H36           -8.0945     0.9424     1.5600 H       
  37 H37           -5.7638     1.6896     2.1237 H       
  38 H38           -5.7421     3.9707     2.3960 H       
  39 H39           -5.0626     3.7712     0.7701 H       
  40 H40           -6.5968     5.2770     0.1264 H       
  41 H41           -7.5211     5.1027     1.6291 H       
@<TRIPOS>BOND
   1    1    2 1
   2    1   13 1
   3    1    6 am
   4    2    3 2
   5    2   22 1
   6    3    4 1
   7    4    5 ar
   8    4    8 ar
   9    5    6 1
  10    5   11 ar
  11    6    7 2
  12    8    9 ar
  13    8   23 1
  14    9   10 ar
  15    9   24 1
  16   10   11 ar
  17   10   12 1
  18   11   25 1
  19   12   14 1
  20   12   19 1
  21   13   26 1
  22   13   27 1
  23   13   28 1
  24   14   15 1
  25   14   29 1
  26   14   30 1
  27   15   16 1
  28   15   31 1
  29   15   32 1
  30   16   17 1
  31   16   21 1
  32   17   18 1
  33   17   33 1
  34   17   34 1
  35   18   19 1
  36   18   35 1
  37   18   36 1
  38   19   20 1
  39   19   37 1
  40   20   21 1
  41   20   38 1
  42   20   39 1
  43   21   40 1
  44   21   41 1

#	End of record

