#	Name: ASD00960162
#	Creating user name:	WinNT
#	Creation time:	15. 06. 2019 18:53

#	Modifying user name:	WinNT
#	Modification time:	15. 06. 2019 18:53

#	Program:	/corina/corina34_cracker 3.40 0067  02.08.2006

@<TRIPOS>MOLECULE
ASD00960162
  33   34    0    0    0
SMALL
NO_CHARGES


@<TRIPOS>ATOM
   1 C1            -0.0187     1.5258     0.0104 C.3     
   2 C2            -0.7939     2.0498     1.2396 C.3     
   3 O3            -2.1388     2.2699     0.7613 O.3     
   4 C4            -1.9852     2.8481    -0.5533 C.3     
   5 C5            -3.2663     2.6636    -1.3692 C.3     
   6 C6            -0.7904     1.0203     2.3401 C.2     
   7 C7            -1.5336    -0.1123     2.3628 C.2     
   8 N8            -0.0364     1.0727     3.4706 N.pl3   
   9 C9            -0.3063    -0.0413     4.2309 C.2     
  10 C10           -1.2416    -0.7931     3.5513 C.2     
  11 C11           -0.8173     2.0630    -1.1982 C.3     
  12 C12            0.0021    -0.0041     0.0020 C.3     
  13 F13           -2.4021    -0.5133     1.4089 F       
  14 N14            0.8425     2.0662     3.7968 N.3     
  15 O15           -0.0073     2.9327    -1.9916 O.3     
  16 *16           -0.3985     3.0053    -3.3443 Du      
  17 C17            0.2809    -0.3641     5.4965 C.1     
  18 N18            0.7466    -0.6202     6.5004 N.1     
  19 O19            1.3133     2.0434     0.0005 O.3     
  20 *20            2.0754     1.6441    -1.1166 Du      
  21 O21           -4.3194     3.4310    -0.7825 O.3     
  22 *22           -5.5503     3.3296    -1.4626 Du      
  23 H23           -0.3588     2.9849     1.5922 H       
  24 H24           -1.7328     3.9056    -0.4756 H       
  25 H25           -3.0974     3.0006    -2.3919 H       
  26 H26           -3.5446     1.6097    -1.3752 H       
  27 H27           -1.6684    -1.7310     3.8747 H       
  28 H28           -1.1981     1.2386    -1.8010 H       
  29 H29            0.5184    -0.3653     0.8914 H       
  30 H30           -1.0206    -0.3813    -0.0028 H       
  31 H31            0.5232    -0.3555    -0.8885 H       
  32 H32            0.3846     2.7960     4.3220 H       
  33 H33            1.6331     1.6975     4.3037 H       
@<TRIPOS>BOND
   1    1   12 1
   2    1   19 1
   3    1    2 1
   4    1   11 1
   5    2    3 1
   6    2    6 1
   7    2   23 1
   8    3    4 1
   9    4   11 1
  10    4    5 1
  11    4   24 1
  12    5   21 1
  13    5   25 1
  14    5   26 1
  15    6    7 2
  16    6    8 1
  17    7   13 1
  18    7   10 1
  19    8    9 1
  20    8   14 1
  21    9   10 2
  22    9   17 1
  23   10   27 1
  24   11   15 1
  25   11   28 1
  26   12   29 1
  27   12   30 1
  28   12   31 1
  29   14   32 1
  30   14   33 1
  31   15   16 1
  32   17   18 3
  33   19   20 1
  34   21   22 1

#	End of record

