#	Name: ASD03220003
#	Creating user name:	WinNT
#	Creation time:	15. 06. 2019 20:34

#	Modifying user name:	WinNT
#	Modification time:	15. 06. 2019 20:34

#	Program:	/corina/corina34_cracker 3.40 0067  02.08.2006

@<TRIPOS>MOLECULE
ASD03220003
 105  110    0    0    0
SMALL
NO_CHARGES


@<TRIPOS>ATOM
   1 C1             0.6352    -0.7454     1.6939 C.3     
   2 C2             1.3333    -2.0374     1.7964 C.3     
   3 C3             2.4924    -2.0049     2.7924 C.3     
   4 C4             3.4890    -0.9409     2.4574 C.3     
   5 C5             2.8292     0.4945     2.2508 C.3     
   6 C6             1.7126     0.2832     1.1653 C.3     
   7 C7             4.6295    -0.7938     3.4237 C.3     
   8 C8             5.7551     0.0563     2.7937 C.3     
   9 C9             5.2062     1.4465     2.4197 C.3     
  10 C10            3.8253     1.3839     1.6505 C.3     
  11 C11            6.1834     2.2270     1.5604 C.3     
  12 C12            5.6811     3.5647     1.0576 C.2     
  13 C13            4.4020     3.7485     1.0182 C.2     
  14 C14            3.3929     2.7742     1.5032 C.2     
  15 C15            7.4830     2.3755     2.4013 C.3     
  16 C16            8.4034     3.4021     1.7276 C.3     
  17 C17            7.7364     4.7270     1.5461 C.3     
  18 C18            6.5618     4.6045     0.5754 C.3     
  19 C19            8.7750     5.7808     1.1249 C.3     
  20 C20            9.2853     5.4759    -0.3482 C.3     
  21 C21            8.0575     5.4119    -1.2377 C.3     
  22 C22            7.1084     4.2876    -0.8405 C.3     
  23 O23            1.7531    -2.5218     0.5790 O.3     
  24 C24            3.2365    -3.3316     2.6664 C.3     
  25 C25            6.5987     1.3795     0.3738 C.3     
  26 C26            8.5203     5.0990    -2.7003 C.3     
  27 C27            7.1652     5.2028     2.9013 C.3     
  28 C28            5.9816     4.2556    -1.7979 C.3     
  29 H29            6.0803     5.5694     0.5813 H       
  30 O30            2.2392     3.1203     1.6921 O.2     
  31 C31            5.0046     2.2003     3.7196 C.3     
  32 C32            2.2472     1.0366     3.5096 C.3     
  33 C33            0.8975    -3.3095    -0.0913 C.2     
  34 C34            1.2879    -3.8771    -1.4316 C.3     
  35 O35           -0.1857    -3.5634     0.3800 O.2     
  36 C36            0.1426    -4.7329    -1.9762 C.3     
  37 N37            0.5222    -5.2847    -3.2792 N.am    
  38 C38           -0.3369    -6.0756    -3.9522 C.2     
  39 C39            0.0451    -6.6310    -5.2637 C.ar    
  40 O40           -1.4271    -6.3312    -3.4779 O.2     
  41 C41            1.3035    -6.3302    -5.8009 C.ar    
  42 C42            1.6713    -6.8354    -7.0110 C.ar    
  43 C43            0.7376    -7.6960    -7.7433 C.ar    
  44 C44           -0.5293    -7.9827    -7.1727 C.ar    
  45 C45           -0.8567    -7.4599    -5.9548 C.ar    
  46 O46           -2.0686    -7.7351    -5.4098 O.3     
  47 I47            3.5518    -6.3865    -7.8179 I       
  48 C48            2.0759    -2.0010     4.2473 C.2     
  49 O49            2.3938    -1.0819     4.9642 O.2     
  50 O50            1.3533    -3.0186     4.7413 O.3     
  51 N51            1.0715    -8.1981    -8.9201 N.2     
  52 N52            0.3498    -8.8572    -9.4751 N.1     
  53 N53           -0.3719    -9.5163   -10.0302 N.pl3   
  54 H54           -0.1229    -0.8047     0.9991 H       
  55 H55            0.1700    -0.4059     2.6627 H       
  56 H56            0.5466    -2.7987     2.2025 H       
  57 H57            3.9687    -1.1125     1.5053 H       
  58 H58            2.0990    -0.0208     0.3126 H       
  59 H59            1.1921     1.2396     1.0609 H       
  60 H60            4.2742    -0.3173     4.4025 H       
  61 H61            5.0383    -1.7506     3.6945 H       
  62 H62            6.5618     0.1739     3.4965 H       
  63 H63            6.1062    -0.5142     1.8822 H       
  64 H64            4.0334     0.9990     0.6511 H       
  65 H65            4.0139     4.7074     0.6306 H       
  66 H66            7.4169     2.6556     3.4244 H       
  67 H67            8.0720     1.4118     2.4245 H       
  68 H68            9.3838     3.5253     2.3753 H       
  69 H69            8.7945     2.9901     0.7845 H       
  70 H70            8.2430     6.8114     1.0273 H       
  71 H71            9.5735     5.7978     1.7758 H       
  72 H72           10.0155     6.1973    -0.6930 H       
  73 H73            9.7195     4.5156    -0.2809 H       
  74 H74            7.5430     6.3524    -1.2218 H       
  75 H75            7.6481     3.3980    -0.8102 H       
  76 H76            3.6099    -3.4435     1.6485 H       
  77 H77            4.0737    -3.3463     3.3642 H       
  78 H78            2.5573    -4.1524     2.8965 H       
  79 H79            5.7382     1.2164    -0.2750 H       
  80 H80            7.3818     1.8936    -0.1835 H       
  81 H81            6.9747     0.4193     0.7270 H       
  82 H82            9.0438     4.1431    -2.7190 H       
  83 H83            7.6495     5.0492    -3.3541 H       
  84 H84            9.1896     5.8867    -3.0459 H       
  85 H85            7.9759     5.2989     3.6236 H       
  86 H86            6.6782     6.1693     2.7712 H       
  87 H87            6.4389     4.4760     3.2648 H       
  88 H88            6.3640     4.0787    -2.8032 H       
  89 H89            5.2949     3.4546    -1.5242 H       
  90 H90            5.4556     5.2099    -1.7720 H       
  91 H91            5.9740     2.4133     4.1702 H       
  92 H92            4.4833     3.1364     3.5196 H       
  93 H93            4.4116     1.5931     4.4035 H       
  94 H94            2.9827     0.9640     4.3108 H       
  95 H95            1.9721     2.0810     3.3625 H       
  96 H96            1.3607     0.4616     3.7771 H       
  97 H97            1.4940    -3.0619    -2.1253 H       
  98 H98            2.1802    -4.4930    -1.3194 H       
  99 H99           -0.0635    -5.5480    -1.2826 H       
 100 H100          -0.7497    -4.1170    -2.0885 H       
 101 H101           1.3918    -5.0808    -3.6575 H       
 102 H102           1.9843    -5.6951    -5.2536 H       
 103 H103          -1.2301    -8.6148    -7.6977 H       
 104 H104          -2.0796    -8.5269    -4.8547 H       
 105 H105           1.1110    -2.9717     5.6763 H       
@<TRIPOS>BOND
   1    1    2 1
   2    1    6 1
   3    1   54 1
   4    1   55 1
   5    2    3 1
   6    2   23 1
   7    2   56 1
   8    3    4 1
   9    3   24 1
  10    3   48 1
  11    4    5 1
  12    4    7 1
  13    4   57 1
  14    5    6 1
  15    5   32 1
  16    5   10 1
  17    6   58 1
  18    6   59 1
  19    7    8 1
  20    7   60 1
  21    7   61 1
  22    8    9 1
  23    8   62 1
  24    8   63 1
  25    9   10 1
  26    9   11 1
  27    9   31 1
  28   10   14 1
  29   10   64 1
  30   11   12 1
  31   11   15 1
  32   11   25 1
  33   12   13 2
  34   12   18 1
  35   13   14 1
  36   13   65 1
  37   14   30 2
  38   15   16 1
  39   15   66 1
  40   15   67 1
  41   16   17 1
  42   16   68 1
  43   16   69 1
  44   17   18 1
  45   17   19 1
  46   17   27 1
  47   18   29 1
  48   18   22 1
  49   19   20 1
  50   19   70 1
  51   19   71 1
  52   20   21 1
  53   20   72 1
  54   20   73 1
  55   21   22 1
  56   21   26 1
  57   21   74 1
  58   22   28 1
  59   22   75 1
  60   23   33 1
  61   24   76 1
  62   24   77 1
  63   24   78 1
  64   25   79 1
  65   25   80 1
  66   25   81 1
  67   26   82 1
  68   26   83 1
  69   26   84 1
  70   27   85 1
  71   27   86 1
  72   27   87 1
  73   28   88 1
  74   28   89 1
  75   28   90 1
  76   31   91 1
  77   31   92 1
  78   31   93 1
  79   32   94 1
  80   32   95 1
  81   32   96 1
  82   33   34 1
  83   33   35 2
  84   34   36 1
  85   34   97 1
  86   34   98 1
  87   36   37 1
  88   36   99 1
  89   36  100 1
  90   37   38 am
  91   37  101 1
  92   38   39 1
  93   38   40 2
  94   39   41 ar
  95   39   45 ar
  96   41   42 ar
  97   41  102 1
  98   42   43 ar
  99   42   47 1
 100   43   44 ar
 101   43   51 1
 102   44   45 ar
 103   44  103 1
 104   45   46 1
 105   46  104 1
 106   48   49 2
 107   48   50 1
 108   50  105 1
 109   51   52 2
 110   52   53 2

#	End of record

