#	Name: ASD01811657
#	Creating user name:	WinNT
#	Creation time:	15. 06. 2019 19:27

#	Modifying user name:	WinNT
#	Modification time:	15. 06. 2019 19:27

#	Program:	/corina/corina34_cracker 3.40 0067  02.08.2006

@<TRIPOS>MOLECULE
ASD01811657
  61   66    0    0    0
SMALL
NO_CHARGES


@<TRIPOS>ATOM
   1 C1            -0.0167     1.3788     0.0096 C.ar    
   2 C2             0.0021    -0.0041     0.0020 C.ar    
   3 C3             1.2017    -0.6847    -0.0120 C.ar    
   4 C4             2.4051     0.0177    -0.0194 C.ar    
   5 C5             2.3736     1.4076    -0.0131 C.ar    
   6 C6             1.1742     2.0835     0.0020 C.ar    
   7 N7             3.7253    -0.4353    -0.0322 N.am    
   8 C8             4.6102     0.5777    -0.0368 C.2     
   9 C9             3.8115     1.8590    -0.0261 C.3     
  10 C10            4.1054     2.6777    -1.2804 C.3     
  11 C11            5.5666     3.1353    -1.2544 C.3     
  12 N12            5.8092     3.9290    -0.0430 N.3     
  13 C13            5.5908     3.1317     1.1706 C.3     
  14 C14            4.1305     2.6735     1.2246 C.3     
  15 C15            7.1585     4.5097    -0.0556 C.3     
  16 O16            5.8191     0.4804    -0.0470 O.2     
  17 C17            4.1035    -1.8507    -0.0395 C.3     
  18 C18            4.2213    -2.3319    -1.4628 C.ar    
  19 C19            5.4356    -2.2422    -2.1235 C.ar    
  20 C20            5.5488    -2.6821    -3.4289 C.ar    
  21 C21            4.4379    -3.2170    -4.0809 C.ar    
  22 C22            3.2176    -3.3051    -3.4111 C.ar    
  23 C23            3.1163    -2.8676    -2.1040 C.ar    
  24 F24            1.9349    -2.9523    -1.4541 F       
  25 F25            6.5107    -1.7234    -1.4910 F       
  26 C26            4.5535    -3.6894    -5.4794 C.ar    
  27 C27            4.0679    -5.0159    -5.8630 C.ar    
  28 C28            4.2087    -5.4317    -7.2671 C.ar    
  29 C29            4.8043    -4.5363    -8.1804 C.ar    
  30 C30            5.2370    -3.3192    -7.7686 C.ar    
  31 C31            5.1163    -2.8857    -6.4508 C.ar    
  32 C32            3.4643    -6.0626    -5.2011 C.2     
  33 N33            3.2443    -7.0413    -6.0912 N.pl3   
  34 N34            3.7024    -6.6487    -7.3543 N.2     
  35 C35            2.6180    -8.3302    -5.7867 C.3     
  36 H36           -0.9585     1.9074     0.0169 H       
  37 H37           -0.9275    -0.5539     0.0075 H       
  38 H38            1.2083    -1.7646    -0.0170 H       
  39 H39            1.1628     3.1635     0.0072 H       
  40 H40            3.9319     2.0642    -2.1645 H       
  41 H41            3.4515     3.5494    -1.3076 H       
  42 H42            6.2205     2.2633    -1.2544 H       
  43 H43            5.7725     3.7440    -2.1348 H       
  44 H44            6.2448     2.2598     1.1551 H       
  45 H45            5.8141     3.7377     2.0486 H       
  46 H46            3.4771     3.5448     1.2680 H       
  47 H47            3.9751     2.0569     2.1099 H       
  48 H48            7.2671     5.1576    -0.9254 H       
  49 H49            7.3118     5.0924     0.8528 H       
  50 H50            7.8978     3.7102    -0.1035 H       
  51 H51            5.0614    -1.9734     0.4659 H       
  52 H52            3.3419    -2.4329     0.4790 H       
  53 H53            6.4958    -2.6114    -3.9433 H       
  54 H54            2.3544    -3.7182    -3.9117 H       
  55 H55            4.9167    -4.8228    -9.2156 H       
  56 H56            5.6892    -2.6575    -8.4926 H       
  57 H57            5.4792    -1.9049    -6.1811 H       
  58 H58            3.2128    -6.0900    -4.1512 H       
  59 H59            1.5393    -8.2509    -5.9216 H       
  60 H60            3.0129    -9.0935    -6.4572 H       
  61 H61            2.8358    -8.6052    -4.7547 H       
@<TRIPOS>BOND
   1    1    2 ar
   2    1    6 ar
   3    1   36 1
   4    2    3 ar
   5    2   37 1
   6    3    4 ar
   7    3   38 1
   8    4    5 ar
   9    4    7 1
  10    5    6 ar
  11    5    9 1
  12    6   39 1
  13    7    8 am
  14    7   17 1
  15    8    9 1
  16    8   16 2
  17    9   10 1
  18    9   14 1
  19   10   11 1
  20   10   40 1
  21   10   41 1
  22   11   12 1
  23   11   42 1
  24   11   43 1
  25   12   13 1
  26   12   15 1
  27   13   14 1
  28   13   44 1
  29   13   45 1
  30   14   46 1
  31   14   47 1
  32   15   48 1
  33   15   49 1
  34   15   50 1
  35   17   18 1
  36   17   51 1
  37   17   52 1
  38   18   19 ar
  39   18   23 ar
  40   19   20 ar
  41   19   25 1
  42   20   21 ar
  43   20   53 1
  44   21   22 ar
  45   21   26 1
  46   22   23 ar
  47   22   54 1
  48   23   24 1
  49   26   27 ar
  50   26   31 ar
  51   27   28 ar
  52   27   32 2
  53   28   29 ar
  54   28   34 2
  55   29   30 ar
  56   29   55 1
  57   30   31 ar
  58   30   56 1
  59   31   57 1
  60   32   33 1
  61   32   58 1
  62   33   34 1
  63   33   35 1
  64   35   59 1
  65   35   60 1
  66   35   61 1

#	End of record

