#	Name: ASD01948013
#	Creating user name:	WinNT
#	Creation time:	15. 06. 2019 20:13

#	Modifying user name:	WinNT
#	Modification time:	15. 06. 2019 20:13

#	Program:	/corina/corina34_cracker 3.40 0067  02.08.2006

@<TRIPOS>MOLECULE
ASD01948013
  58   62    0    0    0
SMALL
NO_CHARGES


@<TRIPOS>ATOM
   1 C1            -1.4198     3.4148    -3.1071 C.3     
   2 C2            -2.8261     2.9423    -2.7330 C.3     
   3 C3            -2.3977     4.3804    -2.4347 C.3     
   4 S4            -0.0357     2.7959    -2.1112 S.o2    
   5 O5            -0.3141     2.9416    -0.7254 O.2     
   6 O6             0.4459     1.5664    -2.6364 O.2     
   7 N7             1.1916     3.8705    -2.3964 N.am    
   8 C8             3.1996     4.5230    -1.2104 C.2     
   9 C9             1.8180     4.5284    -1.3173 C.2     
  10 C10            1.0424     5.1883    -0.3530 C.2     
  11 C11            1.6810     5.8303     0.7023 C.2     
  12 C12            3.0693     5.8012     0.7736 C.2     
  13 N13            3.7980     5.1606    -0.1645 N.am    
  14 N14            4.1203     3.9270    -2.0532 N.pl3   
  15 C15            5.4737     4.1810    -1.5489 C.3     
  16 C16            5.2591     5.0124    -0.2740 C.3     
  17 O17            3.6375     6.3637     1.6983 O.2     
  18 C18            0.8782     6.5493     1.7556 C.3     
  19 N19           -0.3413     5.2008    -0.4507 N.pl3   
  20 C20           -1.1225     4.7600     0.6232 C.ar    
  21 C21           -2.4120     5.2529     0.7958 C.ar    
  22 C22           -3.1806     4.8149     1.8581 C.ar    
  23 C23           -2.6679     3.8875     2.7483 C.ar    
  24 C24           -1.3859     3.3967     2.5786 C.ar    
  25 C25           -0.6147     3.8258     1.5153 C.ar    
  26 F26           -2.9121     6.1585    -0.0731 F       
  27 Br27          -3.7221     3.2905     4.2003 Br      
  28 C28            3.7946     3.1622    -3.2596 C.3     
  29 C29            4.0977     3.9943    -4.4789 C.ar    
  30 C30            5.3040     3.8427    -5.1368 C.ar    
  31 C31            5.5820     4.6060    -6.2552 C.ar    
  32 C32            4.6536     5.5206    -6.7161 C.ar    
  33 C33            3.4469     5.6716    -6.0588 C.ar    
  34 C34            3.1671     4.9052    -4.9429 C.ar    
  35 H35           -1.2058     3.5704    -4.1645 H       
  36 H36           -3.5373     2.7870    -3.5443 H       
  37 H37           -2.9196     2.2595    -1.8885 H       
  38 H38           -2.2093     4.6438    -1.3939 H       
  39 H39           -2.8270     5.1714    -3.0497 H       
  40 H40            1.4798     4.0475    -3.3056 H       
  41 H41            5.9722     3.2422    -1.3076 H       
  42 H42            6.0532     4.7435    -2.2809 H       
  43 H43            5.7335     5.9889    -0.3711 H       
  44 H44            5.6530     4.4825     0.5933 H       
  45 H45            0.7136     5.8847     2.6037 H       
  46 H46            1.4230     7.4333     2.0872 H       
  47 H47           -0.0826     6.8501     1.3379 H       
  48 H48           -0.7673     5.5152    -1.2635 H       
  49 H49           -4.1817     5.1968     1.9935 H       
  50 H50           -0.9888     2.6736     3.2756 H       
  51 H51            0.3844     3.4380     1.3812 H       
  52 H52            4.3918     2.2507    -3.2841 H       
  53 H53            2.7360     2.9029    -3.2506 H       
  54 H54            6.0294     3.1282    -4.7767 H       
  55 H55            6.5248     4.4881    -6.7688 H       
  56 H56            4.8711     6.1175    -7.5895 H       
  57 H57            2.7217     6.3864    -6.4187 H       
  58 H58            2.2229     5.0205    -4.4315 H       
@<TRIPOS>BOND
   1    1    2 1
   2    1    3 1
   3    1    4 1
   4    1   35 1
   5    2    3 1
   6    2   36 1
   7    2   37 1
   8    3   38 1
   9    3   39 1
  10    4    5 2
  11    4    6 2
  12    4    7 am
  13    7    9 1
  14    7   40 1
  15    8    9 2
  16    8   13 1
  17    8   14 1
  18    9   10 1
  19   10   11 2
  20   10   19 1
  21   11   12 1
  22   11   18 1
  23   12   13 am
  24   12   17 2
  25   13   16 1
  26   14   15 1
  27   14   28 1
  28   15   16 1
  29   15   41 1
  30   15   42 1
  31   16   43 1
  32   16   44 1
  33   18   45 1
  34   18   46 1
  35   18   47 1
  36   19   20 1
  37   19   48 1
  38   20   21 ar
  39   20   25 ar
  40   21   22 ar
  41   21   26 1
  42   22   23 ar
  43   22   49 1
  44   23   24 ar
  45   23   27 1
  46   24   25 ar
  47   24   50 1
  48   25   51 1
  49   28   29 1
  50   28   52 1
  51   28   53 1
  52   29   30 ar
  53   29   34 ar
  54   30   31 ar
  55   30   54 1
  56   31   32 ar
  57   31   55 1
  58   32   33 ar
  59   32   56 1
  60   33   34 ar
  61   33   57 1
  62   34   58 1

#	End of record

