#	Name: ASD01910336
#	Creating user name:	WinNT
#	Creation time:	15. 06. 2019 19:55

#	Modifying user name:	WinNT
#	Modification time:	15. 06. 2019 19:55

#	Program:	/corina/corina34_cracker 3.40 0067  02.08.2006

@<TRIPOS>MOLECULE
ASD01910336
  45   47    0    0    0
SMALL
NO_CHARGES


@<TRIPOS>ATOM
   1 C1             0.0453     1.4274     0.0986 C.ar    
   2 C2             0.0539    -0.0044     0.0754 C.1     
   3 C3             0.0609    -1.1782     0.0563 C.1     
   4 C4             0.0695    -2.6100     0.0331 C.ar    
   5 C5            -1.1297    -3.3149    -0.1198 C.ar    
   6 C6            -1.1208    -4.6802    -0.1418 C.ar    
   7 C7             0.0861    -5.3740    -0.0116 C.ar    
   8 C8             1.2847    -4.6704     0.1412 C.ar    
   9 C9             1.2779    -3.3049     0.1576 C.ar    
  10 C10            0.0949    -6.8499    -0.0350 C.2     
  11 O11           -0.7626    -7.4724     0.5611 O.2     
  12 N12            1.0535    -7.5073    -0.7171 N.am    
  13 C13            1.1526    -8.9715    -0.6458 C.3     
  14 C14            1.1457    -9.5361    -2.0699 C.3     
  15 C15            2.2573    -8.8698    -2.8839 C.3     
  16 C16            2.0025    -7.3627    -2.9606 C.3     
  17 C17            2.0156    -6.7740    -1.5510 C.3     
  18 O18            3.5173    -9.1081    -2.2533 O.3     
  19 C19            2.2758    -9.4562    -4.2969 C.3     
  20 C20            1.2417     2.1341     0.2512 C.ar    
  21 C21            1.2268     3.5124     0.2729 C.ar    
  22 C22            0.0286     4.1976     0.1441 C.ar    
  23 C23           -1.1614     3.5025    -0.0072 C.ar    
  24 C24           -1.1589     2.1244    -0.0371 C.ar    
  25 F25            0.0204     5.5484     0.1665 F       
  26 H26           -2.0621    -2.7791    -0.2201 H       
  27 H27           -2.0463    -5.2244    -0.2595 H       
  28 H28            2.2166    -5.2069     0.2418 H       
  29 H29            2.2038    -2.7615     0.2753 H       
  30 H30            2.0802    -9.2511    -0.1463 H       
  31 H31            0.3025    -9.3687    -0.0912 H       
  32 H32            1.3152   -10.6123    -2.0353 H       
  33 H33            0.1818    -9.3339    -2.5367 H       
  34 H34            2.7817    -6.8921    -3.5600 H       
  35 H35            1.0305    -7.1810    -3.4190 H       
  36 H36            1.7370    -5.7210    -1.5923 H       
  37 H37            3.0129    -6.8737    -1.1226 H       
  38 H38            4.2694    -8.7138    -2.7158 H       
  39 H39            1.3146    -9.2752    -4.7780 H       
  40 H40            3.0675    -8.9818    -4.8768 H       
  41 H41            2.4585   -10.5294    -4.2425 H       
  42 H42            2.1757     1.6014     0.3524 H       
  43 H43            2.1504     4.0595     0.3907 H       
  44 H44           -2.0917     4.0421    -0.1067 H       
  45 H45           -2.0865     1.5840    -0.1553 H       
@<TRIPOS>BOND
   1    1    2 1
   2    1   20 ar
   3    1   24 ar
   4    2    3 3
   5    3    4 1
   6    4    5 ar
   7    4    9 ar
   8    5    6 ar
   9    5   26 1
  10    6    7 ar
  11    6   27 1
  12    7    8 ar
  13    7   10 1
  14    8    9 ar
  15    8   28 1
  16    9   29 1
  17   10   11 2
  18   10   12 am
  19   12   13 1
  20   12   17 1
  21   13   14 1
  22   13   30 1
  23   13   31 1
  24   14   15 1
  25   14   32 1
  26   14   33 1
  27   15   16 1
  28   15   18 1
  29   15   19 1
  30   16   17 1
  31   16   34 1
  32   16   35 1
  33   17   36 1
  34   17   37 1
  35   18   38 1
  36   19   39 1
  37   19   40 1
  38   19   41 1
  39   20   21 ar
  40   20   42 1
  41   21   22 ar
  42   21   43 1
  43   22   23 ar
  44   22   25 1
  45   23   24 ar
  46   23   44 1
  47   24   45 1

#	End of record

