#	Name: ASD02500836
#	Creating user name:	WinNT
#	Creation time:	15. 06. 2019 20:23

#	Modifying user name:	WinNT
#	Modification time:	15. 06. 2019 20:23

#	Program:	/corina/corina34_cracker 3.40 0067  02.08.2006

@<TRIPOS>MOLECULE
ASD02500836
  30   31    0    0    0
SMALL
NO_CHARGES


@<TRIPOS>ATOM
   1 C1            -0.0167     1.3806     0.0096 C.ar    
   2 C2             0.0021    -0.0041     0.0020 C.ar    
   3 C3            -1.1982    -0.7168     0.0101 C.ar    
   4 C4            -2.4127    -0.0301     0.0259 C.ar    
   5 C5            -2.4224     1.3559     0.0334 C.ar    
   6 C6            -1.2261     2.0601     0.0306 C.ar    
   7 N7            -3.6422     2.0476     0.0488 N.pl3   
   8 C8            -4.0939     2.8428     1.0629 C.2     
   9 C9            -5.3007     3.3304     0.7102 C.2     
  10 C10           -5.6067     2.8191    -0.5671 C.2     
  11 C11           -4.5731     2.0426    -0.9505 C.2     
  12 C12           -3.3693     3.1261     2.3535 C.3     
  13 C13           -4.4678     1.2910    -2.2525 C.3     
  14 C14           -1.1826    -2.1942     0.0015 C.2     
  15 O15           -2.2280    -2.8127     0.0086 O.2     
  16 O16           -0.0090    -2.8553    -0.0141 O.3     
  17 O17            1.1516     2.0750     0.0022 O.3     
  18 H18            0.9442    -0.5319    -0.0105 H       
  19 H19           -3.3436    -0.5776     0.0318 H       
  20 H20           -1.2370     3.1401     0.0365 H       
  21 H21           -5.9196     3.9914     1.2988 H       
  22 H22           -6.5030     3.0166    -1.1363 H       
  23 H23           -2.7390     4.0068     2.2306 H       
  24 H24           -4.0956     3.3068     3.1459 H       
  25 H25           -2.7491     2.2695     2.6176 H       
  26 H26           -3.9915     1.9249    -3.0004 H       
  27 H27           -3.8706     0.3911    -2.1053 H       
  28 H28           -5.4652     1.0134    -2.5934 H       
  29 H29           -0.0494    -3.8214    -0.0192 H       
  30 H30            1.4813     2.2807    -0.8833 H       
@<TRIPOS>BOND
   1    1    2 ar
   2    1   17 1
   3    1    6 ar
   4    2    3 ar
   5    2   18 1
   6    3    4 ar
   7    3   14 1
   8    4    5 ar
   9    4   19 1
  10    5    6 ar
  11    5    7 1
  12    6   20 1
  13    7    8 1
  14    7   11 1
  15    8    9 2
  16    8   12 1
  17    9   10 1
  18    9   21 1
  19   10   11 2
  20   10   22 1
  21   11   13 1
  22   12   23 1
  23   12   24 1
  24   12   25 1
  25   13   26 1
  26   13   27 1
  27   13   28 1
  28   14   15 2
  29   14   16 1
  30   16   29 1
  31   17   30 1

#	End of record

