#	Name: ASD03740157
#	Creating user name:	WinNT
#	Creation time:	15. 06. 2019 20:46

#	Modifying user name:	WinNT
#	Modification time:	15. 06. 2019 20:46

#	Program:	/corina/corina34_cracker 3.40 0067  02.08.2006

@<TRIPOS>MOLECULE
ASD03740157
  57   60    0    0    0
SMALL
NO_CHARGES


@<TRIPOS>ATOM
   1 C1            -0.0168     1.3849     0.0097 C.ar    
   2 C2             0.0021    -0.0041     0.0020 C.ar    
   3 C3             1.1850    -0.6877    -0.0125 C.ar    
   4 C4             2.3894     0.0113    -0.0203 C.ar    
   5 C5             2.3718     1.4195    -0.0131 C.ar    
   6 C6             1.1486     2.0963     0.0023 C.ar    
   7 N7             3.7063    -0.3680    -0.0346 N.pl3   
   8 N8             4.5133     0.7743    -0.0364 N.2     
   9 C9             3.7704     1.8474    -0.0241 C.2     
  10 O10            4.2163     3.1315    -0.0222 O.3     
  11 C11            4.1915    -1.7503    -0.0454 C.3     
  12 C12            4.3443    -2.2179    -1.4698 C.ar    
  13 C13            5.5439    -2.0358    -2.1322 C.ar    
  14 C14            5.6841    -2.4647    -3.4388 C.ar    
  15 C15            4.6248    -3.0762    -4.0829 C.ar    
  16 C16            3.4254    -3.2591    -3.4203 C.ar    
  17 C17            3.2867    -2.8341    -2.1122 C.ar    
  18 C18            5.6318     3.3268    -0.0344 C.3     
  19 C19            5.9400     4.8254    -0.0302 C.3     
  20 C20            7.4556     5.0345    -0.0433 C.3     
  21 C21            4.7772    -3.5429    -5.5077 C.3     
  22 C22            7.7798     6.5337    -0.1653 C.3     
  23 C23            8.5762     6.9167     1.0992 C.3     
  24 C24            9.1950     5.5798     1.5777 C.3     
  25 C25            8.0662     4.5587     1.2910 C.3     
  26 C26            4.5435    -5.0533    -5.5774 C.3     
  27 C27            3.7534    -2.8271    -6.3911 C.3     
  28 H28           -0.9621     1.9071     0.0170 H       
  29 H29           -0.9296    -0.5502     0.0080 H       
  30 H30            1.1859    -1.7677    -0.0176 H       
  31 H31            1.1256     3.1760     0.0077 H       
  32 H32            5.1565    -1.8005     0.4590 H       
  33 H33            3.4771    -2.3902     0.4724 H       
  34 H34            6.3715    -1.5581    -1.6289 H       
  35 H35            6.6211    -2.3218    -3.9565 H       
  36 H36            2.5977    -3.7365    -3.9236 H       
  37 H37            2.3497    -2.9770    -1.5945 H       
  38 H38            6.0702     2.8632     0.8494 H       
  39 H39            6.0537     2.8716    -0.9305 H       
  40 H40            5.5016     5.2889    -0.9140 H       
  41 H41            5.5182     5.2806     0.8659 H       
  42 H42            7.9005     4.4874    -0.8745 H       
  43 H43            5.7833    -3.3143    -5.8592 H       
  44 H44            8.3829     6.7141    -1.0552 H       
  45 H45            6.8575     7.1124    -0.2152 H       
  46 H46            9.3598     7.6336     0.8540 H       
  47 H47            7.9106     7.3231     1.8607 H       
  48 H48           10.0886     5.3397     1.0017 H       
  49 H49            9.4199     5.6179     2.6436 H       
  50 H50            7.3183     4.5843     2.0835 H       
  51 H51            8.4776     3.5548     1.1859 H       
  52 H52            3.5374    -5.2819    -5.2258 H       
  53 H53            4.6538    -5.3909    -6.6079 H       
  54 H54            5.2729    -5.5632    -4.9480 H       
  55 H55            3.9199    -1.7511    -6.3415 H       
  56 H56            3.8637    -3.1647    -7.4217 H       
  57 H57            2.7473    -3.0557    -6.0396 H       
@<TRIPOS>BOND
   1    1    2 ar
   2    1    6 ar
   3    1   28 1
   4    2    3 ar
   5    2   29 1
   6    3    4 ar
   7    3   30 1
   8    4    5 ar
   9    4    7 1
  10    5    6 ar
  11    5    9 1
  12    6   31 1
  13    7    8 1
  14    7   11 1
  15    8    9 2
  16    9   10 1
  17   10   18 1
  18   11   12 1
  19   11   32 1
  20   11   33 1
  21   12   13 ar
  22   12   17 ar
  23   13   14 ar
  24   13   34 1
  25   14   15 ar
  26   14   35 1
  27   15   16 ar
  28   15   21 1
  29   16   17 ar
  30   16   36 1
  31   17   37 1
  32   18   19 1
  33   18   38 1
  34   18   39 1
  35   19   20 1
  36   19   40 1
  37   19   41 1
  38   20   22 1
  39   20   25 1
  40   20   42 1
  41   21   26 1
  42   21   27 1
  43   21   43 1
  44   22   23 1
  45   22   44 1
  46   22   45 1
  47   23   24 1
  48   23   46 1
  49   23   47 1
  50   24   25 1
  51   24   48 1
  52   24   49 1
  53   25   50 1
  54   25   51 1
  55   26   52 1
  56   26   53 1
  57   26   54 1
  58   27   55 1
  59   27   56 1
  60   27   57 1

#	End of record

