#	Name: ASD01310009
#	Creating user name:	WinNT
#	Creation time:	15. 06. 2019 19:15

#	Modifying user name:	WinNT
#	Modification time:	15. 06. 2019 19:15

#	Program:	/corina/corina34_cracker 3.40 0067  02.08.2006

@<TRIPOS>MOLECULE
ASD01310009
  36   38    0    0    0
SMALL
NO_CHARGES


@<TRIPOS>ATOM
   1 N1            -0.0181     1.4829     0.0102 N.3     
   2 C2             0.0021    -0.0041     0.0020 C.3     
   3 C3            -1.4265    -0.4807     0.3097 C.3     
   4 C4            -2.3543    -0.0292    -0.8219 C.3     
   5 C5            -2.2208     1.4823    -1.0278 C.3     
   6 C6            -0.7384     1.8259    -1.2449 C.3     
   7 C7            -0.1720     0.8376    -2.2902 C.3     
   8 C8             0.3173    -0.3717    -1.4663 C.3     
   9 O9            -3.7278    -0.3503    -0.4775 O.3     
  10 C10           -4.5678    -0.6158    -1.4966 C.2     
  11 O11           -4.1639    -0.5800    -2.6416 O.2     
  12 C12            1.3460     2.0280     0.0001 C.3     
  13 C13           -6.4567    -0.9948     0.0894 C.ar    
  14 C14           -5.9801    -0.9504    -1.2216 C.ar    
  15 C15           -6.8639    -1.2280    -2.2723 C.ar    
  16 C16           -8.1764    -1.5353    -1.9611 C.ar    
  17 C17           -8.5704    -1.5585    -0.6350 C.ar    
  18 N18           -7.7158    -1.2927     0.3344 N.ar    
  19 H19            0.7305    -0.4106     0.7036 H       
  20 H20           -1.4409    -1.5683     0.3816 H       
  21 H21           -1.7614    -0.0463     1.2516 H       
  22 H22           -2.0818    -0.5460    -1.7421 H       
  23 H23           -2.7973     1.7840    -1.9023 H       
  24 H24           -2.5914     2.0051    -0.1460 H       
  25 H25           -0.5961     2.8682    -1.5304 H       
  26 H26           -0.9537     0.5315    -2.9854 H       
  27 H27            0.6599     1.2909    -2.8291 H       
  28 H28            1.3898    -0.5128    -1.6001 H       
  29 H29           -0.2238    -1.2723    -1.7564 H       
  30 H30            1.8655     1.6904    -0.8967 H       
  31 H31            1.3022     3.1171     0.0064 H       
  32 H32            1.8825     1.6809     0.8831 H       
  33 H33           -5.7861    -0.7875     0.9102 H       
  34 H34           -6.5295    -1.2024    -3.2989 H       
  35 H35           -8.8861    -1.7545    -2.7451 H       
  36 H36           -9.5945    -1.7978    -0.3893 H       
@<TRIPOS>BOND
   1    1    2 1
   2    1   12 1
   3    1    6 1
   4    2    3 1
   5    2    8 1
   6    2   19 1
   7    3    4 1
   8    3   20 1
   9    3   21 1
  10    4    5 1
  11    4    9 1
  12    4   22 1
  13    5    6 1
  14    5   23 1
  15    5   24 1
  16    6    7 1
  17    6   25 1
  18    7    8 1
  19    7   26 1
  20    7   27 1
  21    8   28 1
  22    8   29 1
  23    9   10 1
  24   10   11 2
  25   10   14 1
  26   12   30 1
  27   12   31 1
  28   12   32 1
  29   13   14 ar
  30   13   18 ar
  31   13   33 1
  32   14   15 ar
  33   15   16 ar
  34   15   34 1
  35   16   17 ar
  36   16   35 1
  37   17   18 ar
  38   17   36 1

#	End of record

