#	Name: ASD03081294
#	Creating user name:	WinNT
#	Creation time:	15. 06. 2019 20:27

#	Modifying user name:	WinNT
#	Modification time:	15. 06. 2019 20:27

#	Program:	/corina/corina34_cracker 3.40 0067  02.08.2006

@<TRIPOS>MOLECULE
ASD03081294
  27   29    0    0    0
SMALL
NO_CHARGES


@<TRIPOS>ATOM
   1 C1             0.0021    -0.0041     0.0020 C.1     
   2 C2            -0.0173     1.4278     0.0099 C.ar    
   3 C3             1.1792     2.1428     0.0023 C.ar    
   4 C4             1.1510     3.5358     0.0096 C.ar    
   5 C5            -0.0747     4.2065     0.0244 C.ar    
   6 C6            -1.2560     3.4922     0.0318 C.ar    
   7 C7            -1.2357     2.1115     0.0194 C.ar    
   8 N8             0.0175    -1.1399    -0.0042 N.1     
   9 O9             2.5330     5.6455     0.0078 O.3     
  10 C10            2.4144     4.3022     0.0021 C.2     
  11 N11            3.6282     3.7999    -0.0108 N.2     
  12 N12            4.4869     4.7580    -0.0134 N.2     
  13 C13            3.8554     5.9099    -0.0022 C.2     
  14 C14            3.6894     8.4003     0.0101 C.ar    
  15 C15            4.4792     7.2492    -0.0016 C.ar    
  16 C16            5.8726     7.3855    -0.0124 C.ar    
  17 C17            6.4067     8.6622    -0.0109 C.ar    
  18 C18            5.5554     9.7522     0.0011 C.ar    
  19 N19            4.2455     9.5938     0.0106 N.ar    
  20 H20            2.1239     1.6194    -0.0088 H       
  21 H21           -0.0980     5.2862     0.0304 H       
  22 H22           -2.2006     4.0157     0.0433 H       
  23 H23           -2.1636     1.5589     0.0211 H       
  24 H24            2.6131     8.3112     0.0140 H       
  25 H25            6.5141     6.5167    -0.0213 H       
  26 H26            7.4770     8.8058    -0.0186 H       
  27 H27            5.9697    10.7496     0.0023 H       
@<TRIPOS>BOND
   1    1    2 1
   2    1    8 3
   3    2    3 ar
   4    2    7 ar
   5    3    4 ar
   6    3   20 1
   7    4    5 ar
   8    4   10 1
   9    5    6 ar
  10    5   21 1
  11    6    7 ar
  12    6   22 1
  13    7   23 1
  14    9   10 1
  15    9   13 1
  16   10   11 2
  17   11   12 1
  18   12   13 2
  19   13   15 1
  20   14   15 ar
  21   14   19 ar
  22   14   24 1
  23   15   16 ar
  24   16   17 ar
  25   16   25 1
  26   17   18 ar
  27   17   26 1
  28   18   19 ar
  29   18   27 1

#	End of record

