#	Name: ASD01940450
#	Creating user name:	WinNT
#	Creation time:	15. 06. 2019 20:12

#	Modifying user name:	WinNT
#	Modification time:	15. 06. 2019 20:12

#	Program:	/corina/corina34_cracker 3.40 0067  02.08.2006

@<TRIPOS>MOLECULE
ASD01940450
  29   30    0    0    0
SMALL
NO_CHARGES


@<TRIPOS>ATOM
   1 S1            -0.0209     1.6894     0.0113 S.3     
   2 N2             0.0021    -0.0041     0.0020 N.2     
   3 C3             1.2238    -0.4072    -0.0118 C.2     
   4 C4             2.2690     0.5988    -0.0164 C.ar    
   5 C5             1.7320     1.9024    -0.0043 C.ar    
   6 C6             2.5565     3.0223    -0.0068 C.ar    
   7 C7             3.9111     2.8748    -0.0217 C.ar    
   8 C8             4.4779     1.5904    -0.0340 C.ar    
   9 C9             3.6710     0.4614    -0.0298 C.ar    
  10 C10            5.9445     1.4397    -0.0505 C.2     
  11 O11            6.4411     0.3308    -0.0612 O.2     
  12 O12            6.7341     2.5316    -0.0537 O.3     
  13 Br13           4.4528    -1.2603    -0.0467 Br      
  14 C14            8.1686     2.3077    -0.0703 C.3     
  15 C15            8.5478     1.5225    -1.3275 C.3     
  16 C16            8.8950     3.6543    -0.0716 C.3     
  17 C17            8.5747     1.5104     1.1708 C.3     
  18 H18            1.4634    -1.4603    -0.0194 H       
  19 H19            2.1223     4.0111     0.0027 H       
  20 H20            4.5490     3.7463    -0.0243 H       
  21 H21            8.2585     2.0905    -2.2117 H       
  22 H22            9.6247     1.3544    -1.3399 H       
  23 H23            8.0303     0.5632    -1.3266 H       
  24 H24            8.6248     4.2137     0.8241 H       
  25 H25            9.9719     3.4862    -0.0840 H       
  26 H26            8.6057     4.2223    -0.9557 H       
  27 H27            8.0572     0.5511     1.1717 H       
  28 H28            9.6516     1.3423     1.1584 H       
  29 H29            8.3046     2.0698     2.0665 H       
@<TRIPOS>BOND
   1    1    2 1
   2    1    5 1
   3    2    3 2
   4    3    4 1
   5    3   18 1
   6    4    5 ar
   7    4    9 ar
   8    5    6 ar
   9    6    7 ar
  10    6   19 1
  11    7    8 ar
  12    7   20 1
  13    8    9 ar
  14    8   10 1
  15    9   13 1
  16   10   11 2
  17   10   12 1
  18   12   14 1
  19   14   15 1
  20   14   17 1
  21   14   16 1
  22   15   21 1
  23   15   22 1
  24   15   23 1
  25   16   24 1
  26   16   25 1
  27   16   26 1
  28   17   27 1
  29   17   28 1
  30   17   29 1

#	End of record

