#	Name: ASD00844839
#	Creating user name:	WinNT
#	Creation time:	15. 06. 2019 18:51

#	Modifying user name:	WinNT
#	Modification time:	15. 06. 2019 18:51

#	Program:	/corina/corina34_cracker 3.40 0067  02.08.2006

@<TRIPOS>MOLECULE
ASD00844839
  93   98    0    0    0
SMALL
NO_CHARGES


@<TRIPOS>ATOM
   1 F1             5.6871    -2.0314    -2.1435 F       
   2 C2             0.6602     1.3189    -0.6294 C.ar    
   3 C3             0.9378    -0.0214    -0.8541 C.ar    
   4 C4             0.8459    -0.9309     0.1897 C.ar    
   5 C5             0.4785    -0.4999     1.4495 C.ar    
   6 C6             0.2018     0.8368     1.6708 C.ar    
   7 C7             0.2930     1.7451     0.6325 C.ar    
   8 C8             1.1464    -2.3880    -0.0509 C.3     
   9 C9             0.8539    -3.2020     1.1915 C.2     
  10 C10            0.3359    -2.9119    -1.2381 C.3     
  11 C11           -1.1272    -2.6322    -1.0102 C.2     
  12 N12           -2.0421    -3.0599    -1.9026 N.am    
  13 O13           -1.4814    -2.0221    -0.0237 O.2     
  14 C14           -3.4574    -2.6928    -1.7581 C.3     
  15 C15           -4.3026    -3.9703    -1.7775 C.3     
  16 C16           -3.9863    -4.7673    -3.0451 C.3     
  17 C17           -2.5086    -5.1658    -3.0437 C.3     
  18 C18           -1.6422    -3.8972    -3.0418 C.3     
  19 C19           -4.8538    -6.0270    -3.0850 C.3     
  20 C20           -6.3326    -5.6299    -3.0882 C.3     
  21 C21           -7.1941    -6.8907    -3.1896 C.3     
  22 N22           -6.8606    -7.6150    -4.4227 N.3     
  23 C23           -5.4574    -8.0478    -4.4214 C.3     
  24 C24           -4.5441    -6.8215    -4.3568 C.3     
  25 H25           -7.4807    -8.3990    -4.5605 H       
  26 O26           -0.2228    -3.3223     1.7369 O.2     
  27 N27            2.0108    -3.7668     1.5760 N.am    
  28 C28            2.6256    -2.5920    -0.2846 C.ar    
  29 C29            3.0701    -3.4290     0.7312 C.ar    
  30 C30            3.4943    -2.1241    -1.2446 C.ar    
  31 C31            4.8309    -2.4885    -1.2038 C.ar    
  32 C32            5.2859    -3.3228    -0.1954 C.ar    
  33 C33            4.4145    -3.7920     0.7675 C.ar    
  34 Cl34           6.9597    -3.7805    -0.1424 Cl      
  35 C35            1.8748    -6.4016     2.3593 C.ar    
  36 C36            0.6240    -6.7665     1.8822 C.ar    
  37 C37            2.8962    -7.3314     2.4055 C.ar    
  38 C38            2.6750    -8.6259     1.9764 C.ar    
  39 C39            1.4256    -8.9958     1.4983 C.ar    
  40 C40            0.3994    -8.0652     1.4515 C.ar    
  41 O41            1.2085   -10.2693     1.0768 O.3     
  42 O42           -0.3801    -5.8519     1.8375 O.3     
  43 C43            2.3111   -11.1751     1.1540 C.3     
  44 C44           -1.6414    -6.2973     1.3346 C.3     
  45 C45           -2.6390    -5.1376     1.3606 C.3     
  46 O46            1.2987    -0.4431    -2.0945 O.3     
  47 C47            1.2748     0.5281    -3.1425 C.3     
  48 C48            1.7899    -0.1051    -4.4365 C.3     
  49 F49            3.0670    -0.6339    -4.2208 F       
  50 F50            0.9221    -1.1284    -4.8326 F       
  51 S51            2.1631    -4.7497     2.9001 S.o2    
  52 O52            3.5280    -4.6878     3.2909 O.2     
  53 O53            1.0897    -4.4193     3.7707 O.2     
  54 H54            0.7353     2.0295    -1.4393 H       
  55 H55            0.4068    -1.2074     2.2623 H       
  56 H56           -0.0861     1.1718     2.6563 H       
  57 H57            0.0764     2.7885     0.8079 H       
  58 H58            0.6635    -2.4130    -2.1502 H       
  59 H59            0.4893    -3.9866    -1.3368 H       
  60 H60           -3.6050    -2.1714    -0.8124 H       
  61 H61           -3.7534    -2.0463    -2.5843 H       
  62 H62           -4.0696    -4.5741    -0.9005 H       
  63 H63           -5.3603    -3.7070    -1.7679 H       
  64 H64           -4.1962    -4.1541    -3.9215 H       
  65 H65           -2.2924    -5.7583    -2.1548 H       
  66 H66           -2.2894    -5.7533    -3.9353 H       
  67 H67           -1.7914    -3.3514    -3.9734 H       
  68 H68           -0.5922    -4.1719    -2.9410 H       
  69 H69           -4.6436    -6.6419    -2.2100 H       
  70 H70           -6.5693    -5.1008    -2.1651 H       
  71 H71           -6.5337    -4.9822    -3.9415 H       
  72 H72           -7.0027    -7.5316    -2.3289 H       
  73 H73           -8.2473    -6.6106    -3.2065 H       
  74 H74           -5.2741    -8.6832    -3.5550 H       
  75 H75           -5.2492    -8.6080    -5.3330 H       
  76 H76           -4.7170    -6.1925    -5.2300 H       
  77 H77           -3.5029    -7.1437    -4.3401 H       
  78 H78            3.1348    -1.4743    -2.0288 H       
  79 H79            4.7761    -4.4421     1.5505 H       
  80 H80            3.8691    -7.0455     2.7772 H       
  81 H81            3.4750    -9.3505     2.0128 H       
  82 H82           -0.5736    -8.3512     1.0801 H       
  83 H83            2.0031   -12.1544     0.7877 H       
  84 H84            3.1325   -10.8005     0.5432 H       
  85 H85            2.6387   -11.2613     2.1900 H       
  86 H86           -1.5202    -6.6495     0.3103 H       
  87 H87           -2.0138    -7.1109     1.9570 H       
  88 H88           -3.6011    -5.4773     0.9770 H       
  89 H89           -2.7602    -4.7853     2.3849 H       
  90 H90           -2.2666    -4.3239     0.7382 H       
  91 H91            0.2530     0.8776    -3.2906 H       
  92 H92            1.9113     1.3705    -2.8717 H       
  93 H93            1.8380     0.6533    -5.2180 H       
@<TRIPOS>BOND
   1    1   31 1
   2    2    3 ar
   3    2    7 ar
   4    2   54 1
   5    3    4 ar
   6    3   46 1
   7    4    5 ar
   8    4    8 1
   9    5    6 ar
  10    5   55 1
  11    6    7 ar
  12    6   56 1
  13    7   57 1
  14    8    9 1
  15    8   10 1
  16    8   28 1
  17    9   26 2
  18    9   27 am
  19   10   11 1
  20   10   58 1
  21   10   59 1
  22   11   12 am
  23   11   13 2
  24   12   14 1
  25   12   18 1
  26   14   15 1
  27   14   60 1
  28   14   61 1
  29   15   16 1
  30   15   62 1
  31   15   63 1
  32   16   17 1
  33   16   19 1
  34   16   64 1
  35   17   18 1
  36   17   65 1
  37   17   66 1
  38   18   67 1
  39   18   68 1
  40   19   20 1
  41   19   24 1
  42   19   69 1
  43   20   21 1
  44   20   70 1
  45   20   71 1
  46   21   22 1
  47   21   72 1
  48   21   73 1
  49   22   23 1
  50   22   25 1
  51   23   24 1
  52   23   74 1
  53   23   75 1
  54   24   76 1
  55   24   77 1
  56   27   51 am
  57   27   29 1
  58   28   29 ar
  59   28   30 ar
  60   29   33 ar
  61   30   31 ar
  62   30   78 1
  63   31   32 ar
  64   32   33 ar
  65   32   34 1
  66   33   79 1
  67   35   36 ar
  68   35   37 ar
  69   35   51 1
  70   36   42 1
  71   36   40 ar
  72   37   38 ar
  73   37   80 1
  74   38   39 ar
  75   38   81 1
  76   39   40 ar
  77   39   41 1
  78   40   82 1
  79   41   43 1
  80   42   44 1
  81   43   83 1
  82   43   84 1
  83   43   85 1
  84   44   45 1
  85   44   86 1
  86   44   87 1
  87   45   88 1
  88   45   89 1
  89   45   90 1
  90   46   47 1
  91   47   48 1
  92   47   91 1
  93   47   92 1
  94   48   49 1
  95   48   50 1
  96   48   93 1
  97   51   52 2
  98   51   53 2

#	End of record

