#	Name: ASD03731509
#	Creating user name:	WinNT
#	Creation time:	15. 06. 2019 20:45

#	Modifying user name:	WinNT
#	Modification time:	15. 06. 2019 20:45

#	Program:	/corina/corina34_cracker 3.40 0067  02.08.2006

@<TRIPOS>MOLECULE
ASD03731509
  66   71    0    0    0
SMALL
NO_CHARGES


@<TRIPOS>ATOM
   1 C1            -0.0184     1.5028     0.0103 C.2     
   2 C2             0.0021    -0.0041     0.0020 C.3     
   3 O3             1.0236     2.1234     0.0037 O.2     
   4 N4            -1.1946     2.1607     0.0195 N.am    
   5 C5            -1.2145     3.6256     0.0275 C.3     
   6 C6            -2.6637     4.1159     0.0371 C.3     
   7 C7            -2.6845     5.6457     0.0455 C.3     
   8 O8            -8.8979     2.7393     2.1988 O.3     
   9 C9           -10.3150     2.7928     2.4481 C.3     
  10 O10          -10.5201     4.1171     2.9744 O.3     
  11 C11           -9.5165     4.8794     2.4484 C.ar    
  12 C12           -8.5189     4.0315     1.9726 C.ar    
  13 C13           -9.3717     6.2503     2.3343 C.ar    
  14 C14           -8.2322     6.7925     1.7475 C.ar    
  15 C15           -7.2388     5.9357     1.2835 C.ar    
  16 C16           -7.3830     4.5682     1.3902 C.ar    
  17 O17           -7.9033     8.0972     1.5243 O.3     
  18 C18           -6.1403     6.8084     0.7378 C.3     
  19 C19           -6.4846     8.1968     1.2939 C.3     
  20 N20           -4.0722     6.1152     0.0546 N.am    
  21 C21           -4.7795     6.3508     1.1777 C.2     
  22 C22           -6.0970     6.8011    -0.7615 C.ar    
  23 C23           -7.0126     7.1140    -1.7413 C.ar    
  24 C24           -6.6642     7.0046    -3.0758 C.ar    
  25 C25           -5.3947     6.5797    -3.4231 C.ar    
  26 C26           -4.4744     6.2642    -2.4454 C.ar    
  27 C27           -4.8162     6.3718    -1.0995 C.ar    
  28 O28           -4.3925     6.2192     2.3196 O.2     
  29 C29            1.4295    -0.4870    -0.0142 C.ar    
  30 C30            2.1315    -0.6165     1.1752 C.ar    
  31 C31            3.4448    -1.0614     1.1604 C.ar    
  32 C32            4.0540    -1.3760    -0.0390 C.ar    
  33 C33            3.3521    -1.2470    -1.2281 C.ar    
  34 C34            2.0370    -0.8061    -1.2128 C.ar    
  35 O35            3.9518    -1.5567    -2.4086 O.3     
  36 C36            5.3061    -2.0086    -2.3494 C.3     
  37 O37            1.5318    -0.3068     2.3558 O.3     
  38 C38            2.3139    -0.4638     3.5414 C.3     
  39 H39           -0.4983    -0.3791     0.8948 H       
  40 H40           -0.5153    -0.3696    -0.8850 H       
  41 H41           -2.0280     1.6644     0.0207 H       
  42 H42           -0.7014     3.9910     0.9171 H       
  43 H43           -0.7098     4.0007    -0.8628 H       
  44 H44           -3.1768     3.7505    -0.8525 H       
  45 H45           -3.1683     3.7408     0.9274 H       
  46 H46           -2.1714     6.0112     0.9350 H       
  47 H47           -2.1798     6.0209    -0.8449 H       
  48 H48          -10.8722     2.6586     1.5209 H       
  49 H49          -10.6034     2.0402     3.1818 H       
  50 H50          -10.1480     6.9043     2.7032 H       
  51 H51           -6.6078     3.9142     1.0188 H       
  52 H52           -6.2650     8.9729     0.5607 H       
  53 H53           -5.9530     8.3828     2.2271 H       
  54 H54           -8.0034     7.4455    -1.4678 H       
  55 H55           -7.3818     7.2508    -3.8445 H       
  56 H56           -5.1228     6.4942    -4.4648 H       
  57 H57           -3.4852     5.9325    -2.7244 H       
  58 H58            3.9916    -1.1615     2.0863 H       
  59 H59            5.0770    -1.7221    -0.0507 H       
  60 H60            1.4890    -0.7095    -2.1384 H       
  61 H61            5.6628    -2.2206    -3.3574 H       
  62 H62            5.9280    -1.2349    -1.8992 H       
  63 H63            5.3606    -2.9151    -1.7466 H       
  64 H64            2.6263    -1.5038     3.6356 H       
  65 H65            3.1943     0.1763     3.4834 H       
  66 H66            1.7176    -0.1835     4.4098 H       
@<TRIPOS>BOND
   1    1    2 1
   2    1    3 2
   3    1    4 am
   4    2   29 1
   5    2   39 1
   6    2   40 1
   7    4    5 1
   8    4   41 1
   9    5    6 1
  10    5   42 1
  11    5   43 1
  12    6    7 1
  13    6   44 1
  14    6   45 1
  15    7   20 1
  16    7   46 1
  17    7   47 1
  18    8    9 1
  19    8   12 1
  20    9   10 1
  21    9   48 1
  22    9   49 1
  23   10   11 1
  24   11   12 ar
  25   11   13 ar
  26   12   16 ar
  27   13   14 ar
  28   13   50 1
  29   14   15 ar
  30   14   17 1
  31   15   16 ar
  32   15   18 1
  33   16   51 1
  34   17   19 1
  35   18   19 1
  36   18   21 1
  37   18   22 1
  38   19   52 1
  39   19   53 1
  40   20   21 am
  41   20   27 1
  42   21   28 2
  43   22   23 ar
  44   22   27 ar
  45   23   24 ar
  46   23   54 1
  47   24   25 ar
  48   24   55 1
  49   25   26 ar
  50   25   56 1
  51   26   27 ar
  52   26   57 1
  53   29   30 ar
  54   29   34 ar
  55   30   31 ar
  56   30   37 1
  57   31   32 ar
  58   31   58 1
  59   32   33 ar
  60   32   59 1
  61   33   34 ar
  62   33   35 1
  63   34   60 1
  64   35   36 1
  65   36   61 1
  66   36   62 1
  67   36   63 1
  68   37   38 1
  69   38   64 1
  70   38   65 1
  71   38   66 1

#	End of record

