#	Name: ASD01150985
#	Creating user name:	WinNT
#	Creation time:	15. 06. 2019 19:05

#	Modifying user name:	WinNT
#	Modification time:	15. 06. 2019 19:05

#	Program:	/corina/corina34_cracker 3.40 0067  02.08.2006

@<TRIPOS>MOLECULE
ASD01150985
  52   53    0    0    0
SMALL
NO_CHARGES


@<TRIPOS>ATOM
   1 C1            -0.0155     1.2932     0.0092 C.2     
   2 N2             0.0021    -0.0041     0.0020 N.2     
   3 C3            -1.2836    -0.4575     0.0127 C.2     
   4 C4            -2.1002     0.6606     0.0270 C.2     
   5 O5            -1.2848     1.7301     0.0295 O.3     
   6 C6             1.2053     2.1768     0.0022 C.3     
   7 N7            -3.4809     0.6747     0.0405 N.am    
   8 C8            -1.7172    -1.8571     0.0092 C.2     
   9 O9            -2.9034    -2.1264     0.0194 O.2     
  10 O10           -0.8011    -2.8470    -0.0054 O.3     
  11 C11           -1.3028    -4.2096    -0.0081 C.3     
  12 C12           -0.1255    -5.1865    -0.0252 C.3     
  13 C13           -4.1428     1.8487     0.0536 C.2     
  14 C14           -5.6205     1.8637     0.0681 C.ar    
  15 O15           -3.5243     2.8950     0.0536 O.2     
  16 C16            2.0535     1.8844     1.2416 C.3     
  17 C17            2.0290     1.8987    -1.2567 C.3     
  18 C18           -6.3091     3.0781     0.0817 C.ar    
  19 C19           -7.6886     3.0850     0.0952 C.ar    
  20 C20           -8.3895     1.8920     0.0953 C.ar    
  21 C21           -7.7132     0.6850     0.0823 C.ar    
  22 C22           -6.3340     0.6638     0.0624 C.ar    
  23 C23           -9.8963     1.9074     0.1100 C.3     
  24 C24          -10.4111     2.6409    -1.1301 C.3     
  25 C25          -10.4211     0.4702     0.1070 C.3     
  26 C26          -10.3867     2.6267     1.3682 C.3     
  27 H27            0.8972     3.2223     0.0112 H       
  28 H28           -3.9745    -0.1604     0.0405 H       
  29 H29           -1.9017    -4.3780     0.8870 H       
  30 H30           -1.9193    -4.3680    -0.8929 H       
  31 H31            0.4734    -5.0182    -0.9202 H       
  32 H32            0.4911    -5.0281     0.8597 H       
  33 H33           -0.5021    -6.2094    -0.0271 H       
  34 H34            2.9365     2.5234     1.2366 H       
  35 H35            1.4667     2.0825     2.1385 H       
  36 H36            2.3616     0.8389     1.2326 H       
  37 H37            1.4247     2.1070    -2.1397 H       
  38 H38            2.9120     2.5377    -1.2617 H       
  39 H39            2.3371     0.8531    -1.2657 H       
  40 H40           -5.7632     4.0099     0.0820 H       
  41 H41           -8.2226     4.0237     0.1061 H       
  42 H42           -8.2663    -0.2426     0.0831 H       
  43 H43           -5.8073    -0.2790     0.0523 H       
  44 H44          -10.0617     2.1284    -2.0264 H       
  45 H45          -11.5010     2.6520    -1.1194 H       
  46 H46          -10.0372     3.6648    -1.1279 H       
  47 H47          -10.0544    -0.0524     0.9905 H       
  48 H48          -11.5110     0.4813     0.1177 H       
  49 H49          -10.0718    -0.0423    -0.7894 H       
  50 H50          -10.0129     3.6506     1.3704 H       
  51 H51          -11.4766     2.6378     1.3789 H       
  52 H52          -10.0200     2.1041     2.2517 H       
@<TRIPOS>BOND
   1    1    2 2
   2    1    6 1
   3    1    5 1
   4    2    3 1
   5    3    4 2
   6    3    8 1
   7    4    5 1
   8    4    7 1
   9    6   16 1
  10    6   17 1
  11    6   27 1
  12    7   13 am
  13    7   28 1
  14    8    9 2
  15    8   10 1
  16   10   11 1
  17   11   12 1
  18   11   29 1
  19   11   30 1
  20   12   31 1
  21   12   32 1
  22   12   33 1
  23   13   14 1
  24   13   15 2
  25   14   18 ar
  26   14   22 ar
  27   16   34 1
  28   16   35 1
  29   16   36 1
  30   17   37 1
  31   17   38 1
  32   17   39 1
  33   18   19 ar
  34   18   40 1
  35   19   20 ar
  36   19   41 1
  37   20   21 ar
  38   20   23 1
  39   21   22 ar
  40   21   42 1
  41   22   43 1
  42   23   24 1
  43   23   25 1
  44   23   26 1
  45   24   44 1
  46   24   45 1
  47   24   46 1
  48   25   47 1
  49   25   48 1
  50   25   49 1
  51   26   50 1
  52   26   51 1
  53   26   52 1

#	End of record

