#	Name: ASD01208879
#	Creating user name:	WinNT
#	Creation time:	15. 06. 2019 19:10

#	Modifying user name:	WinNT
#	Modification time:	15. 06. 2019 19:10

#	Program:	/corina/corina34_cracker 3.40 0067  02.08.2006

@<TRIPOS>MOLECULE
ASD01208879
  55   58    0    0    0
SMALL
NO_CHARGES


@<TRIPOS>ATOM
   1 C1            -0.2601     1.7862     0.5527 C.2     
   2 C2            -0.2290     0.3259     0.3252 C.ar    
   3 C3             0.9388    -0.2864    -0.1319 C.ar    
   4 C4             0.9637    -1.6548    -0.3438 C.ar    
   5 C5            -0.1704    -2.4169    -0.1027 C.ar    
   6 C6            -1.3336    -1.8124     0.3518 C.ar    
   7 C7            -1.3653    -0.4449     0.5724 C.ar    
   8 O8             0.7325     2.4555     0.3415 O.2     
   9 N9            -1.3905     2.3763     0.9889 N.am    
  10 S10           -2.7806     4.6251     1.7525 S.3     
  11 C11           -1.4197     3.7484     1.2026 C.2     
  12 N12           -0.4189     4.5507     1.0146 N.2     
  13 C13           -0.6226     5.8298     1.2686 C.2     
  14 C14           -1.8541     6.1223     1.6913 C.2     
  15 O15           -2.4417    -2.5633     0.5860 O.3     
  16 C16           -3.4402    -2.5307    -0.3341 C.ar    
  17 C17           -4.6119    -3.2425    -0.1104 C.ar    
  18 C18           -5.6273    -3.2119    -1.0416 C.ar    
  19 C19           -5.4774    -2.4637    -2.2109 C.ar    
  20 C20           -4.2983    -1.7492    -2.4320 C.ar    
  21 C21           -3.2894    -1.7809    -1.4938 C.ar    
  22 O22           -6.5546    -1.7524    -4.3785 O.3     
  23 C23           -6.5636    -2.4286    -3.2122 C.2     
  24 N24           -7.7172    -3.0499    -3.1319 N.2     
  25 N25           -8.4124    -2.7912    -4.1831 N.2     
  26 C26           -7.7364    -2.0013    -4.9694 C.2     
  27 C27           -8.1964    -1.4643    -6.3002 C.3     
  28 O28            2.1005    -2.2519    -0.7890 O.3     
  29 C29            3.1044    -3.9997    -2.1223 C.3     
  30 C30            2.0227    -3.6444    -1.1004 C.3     
  31 C31            2.2356    -4.4646     0.1736 C.3     
  32 O32            4.3939    -3.8152    -1.5347 O.3     
  33 C33            5.4809    -4.1213    -2.4104 C.3     
  34 H34            1.8219     0.3061    -0.3206 H       
  35 H35           -0.1478    -3.4837    -0.2696 H       
  36 H36           -2.2697     0.0243     0.9304 H       
  37 H37           -2.1837     1.8428     1.1536 H       
  38 H38            0.1452     6.5791     1.1443 H       
  39 H39           -2.2191     7.1051     1.9506 H       
  40 H40           -4.7272    -3.8210     0.7944 H       
  41 H41           -6.5377    -3.7661    -0.8673 H       
  42 H42           -4.1785    -1.1697    -3.3354 H       
  43 H43           -2.3786    -1.2255    -1.6623 H       
  44 H44           -7.8997    -2.1523    -7.0918 H       
  45 H45           -9.2815    -1.3621    -6.2954 H       
  46 H46           -7.7405    -0.4899    -6.4759 H       
  47 H47            2.9893    -5.0401    -2.4265 H       
  48 H48            3.0067    -3.3532    -2.9945 H       
  49 H49            1.0410    -3.8692    -1.5174 H       
  50 H50            3.2172    -4.2398     0.5906 H       
  51 H51            1.4649    -4.2115     0.9017 H       
  52 H52            2.1762    -5.5267    -0.0639 H       
  53 H53            6.4243    -3.9559    -1.8901 H       
  54 H54            5.4150    -5.1642    -2.7206 H       
  55 H55            5.4325    -3.4773    -3.2885 H       
@<TRIPOS>BOND
   1    1    2 1
   2    1    8 2
   3    1    9 am
   4    2    3 ar
   5    2    7 ar
   6    3    4 ar
   7    3   34 1
   8    4    5 ar
   9    4   28 1
  10    5    6 ar
  11    5   35 1
  12    6    7 ar
  13    6   15 1
  14    7   36 1
  15    9   11 1
  16    9   37 1
  17   10   11 1
  18   10   14 1
  19   11   12 2
  20   12   13 1
  21   13   14 2
  22   13   38 1
  23   14   39 1
  24   15   16 1
  25   16   17 ar
  26   16   21 ar
  27   17   18 ar
  28   17   40 1
  29   18   19 ar
  30   18   41 1
  31   19   20 ar
  32   19   23 1
  33   20   21 ar
  34   20   42 1
  35   21   43 1
  36   22   23 1
  37   22   26 1
  38   23   24 2
  39   24   25 1
  40   25   26 2
  41   26   27 1
  42   27   44 1
  43   27   45 1
  44   27   46 1
  45   28   30 1
  46   29   30 1
  47   29   32 1
  48   29   47 1
  49   29   48 1
  50   30   31 1
  51   30   49 1
  52   31   50 1
  53   31   51 1
  54   31   52 1
  55   32   33 1
  56   33   53 1
  57   33   54 1
  58   33   55 1

#	End of record

