#	Name: ASD03731184
#	Creating user name:	WinNT
#	Creation time:	15. 06. 2019 20:45

#	Modifying user name:	WinNT
#	Modification time:	15. 06. 2019 20:45

#	Program:	/corina/corina34_cracker 3.40 0067  02.08.2006

@<TRIPOS>MOLECULE
ASD03731184
  57   63    0    0    0
SMALL
NO_CHARGES


@<TRIPOS>ATOM
   1 N1            -0.0162     1.3436     0.0094 N.am    
   2 C2             0.0558     0.0126     0.2092 C.2     
   3 O3             1.1397    -0.5296     0.3075 O.2     
   4 N4            -1.0736    -0.7172     0.3001 N.am    
   5 C5            -0.9953    -2.1639     0.5172 C.3     
   6 C6            -2.4083    -2.7472     0.5817 C.3     
   7 O7             2.5526    -7.0755     3.4707 O.3     
   8 C8             3.0234    -8.3615     3.9151 C.3     
   9 O9             1.8597    -8.9650     4.5105 O.3     
  10 C10            0.7899    -8.3992     3.8777 C.ar    
  11 C11            1.2164    -7.2369     3.2394 C.ar    
  12 C12           -0.5346    -8.7889     3.7925 C.ar    
  13 C13           -1.4492    -8.0257     3.0730 C.ar    
  14 C14           -1.0131    -6.8622     2.4466 C.ar    
  15 C15            0.3082    -6.4742     2.5246 C.ar    
  16 O16           -2.7784    -8.2373     2.8520 O.3     
  17 C17           -2.2201    -6.2529     1.7850 C.3     
  18 C18           -3.3923    -7.0037     2.4313 C.3     
  19 N19           -2.3301    -4.1939     0.7988 N.am    
  20 C20           -2.3081    -4.7719     2.0164 C.2     
  21 C21           -2.2008    -6.4222     0.2947 C.ar    
  22 C22           -2.1332    -7.5172    -0.5376 C.ar    
  23 C23           -2.1352    -7.3452    -1.9104 C.ar    
  24 C24           -2.2046    -6.0713    -2.4444 C.ar    
  25 C25           -2.2714    -4.9714    -1.6148 C.ar    
  26 C26           -2.2704    -5.1350    -0.2318 C.ar    
  27 O27           -2.3512    -4.2066     3.0886 O.2     
  28 O28            4.7115     4.1908    -0.0932 O.3     
  29 C29            5.3963     3.3728    -1.0602 C.3     
  30 O30            4.7481     2.0922    -0.9455 O.3     
  31 C31            3.4847     2.3612    -0.5040 C.ar    
  32 C32            3.4615     3.6517     0.0203 C.ar    
  33 C33            2.3304     1.5966    -0.5068 C.ar    
  34 C34            1.1525     2.1168     0.0124 C.ar    
  35 C35            1.1325     3.4028     0.5341 C.ar    
  36 C36            2.2844     4.1669     0.5373 C.ar    
  37 H37           -0.8766     1.7656    -0.1404 H       
  38 H38           -1.9382    -0.2847     0.2217 H       
  39 H39           -0.4488    -2.6257    -0.3050 H       
  40 H40           -0.4770    -2.3630     1.4552 H       
  41 H41           -2.9549    -2.2854     1.4039 H       
  42 H42           -2.9267    -2.5481    -0.3563 H       
  43 H43            3.3723    -8.9546     3.0698 H       
  44 H44            3.8152    -8.2446     4.6551 H       
  45 H45           -0.8611    -9.6915     4.2876 H       
  46 H46            0.6352    -5.5731     2.0271 H       
  47 H47           -4.1803    -7.1924     1.7023 H       
  48 H48           -3.7799    -6.4524     3.2880 H       
  49 H49           -2.0789    -8.5110    -0.1184 H       
  50 H50           -2.0831    -8.2038    -2.5635 H       
  51 H51           -2.2060    -5.9371    -3.5160 H       
  52 H52           -2.3248    -3.9797    -2.0393 H       
  53 H53            5.2686     3.7781    -2.0639 H       
  54 H54            6.4543     3.2901    -0.8113 H       
  55 H55            2.3461     0.5961    -0.9131 H       
  56 H56            0.2159     3.8070     0.9375 H       
  57 H57            2.2664     5.1673     0.9437 H       
@<TRIPOS>BOND
   1    1    2 am
   2    1   34 1
   3    1   37 1
   4    2    3 2
   5    2    4 am
   6    4    5 1
   7    4   38 1
   8    5    6 1
   9    5   39 1
  10    5   40 1
  11    6   19 1
  12    6   41 1
  13    6   42 1
  14    7    8 1
  15    7   11 1
  16    8    9 1
  17    8   43 1
  18    8   44 1
  19    9   10 1
  20   10   11 ar
  21   10   12 ar
  22   11   15 ar
  23   12   13 ar
  24   12   45 1
  25   13   14 ar
  26   13   16 1
  27   14   15 ar
  28   14   17 1
  29   15   46 1
  30   16   18 1
  31   17   18 1
  32   17   20 1
  33   17   21 1
  34   18   47 1
  35   18   48 1
  36   19   20 am
  37   19   26 1
  38   20   27 2
  39   21   22 ar
  40   21   26 ar
  41   22   23 ar
  42   22   49 1
  43   23   24 ar
  44   23   50 1
  45   24   25 ar
  46   24   51 1
  47   25   26 ar
  48   25   52 1
  49   28   29 1
  50   28   32 1
  51   29   30 1
  52   29   53 1
  53   29   54 1
  54   30   31 1
  55   31   32 ar
  56   31   33 ar
  57   32   36 ar
  58   33   34 ar
  59   33   55 1
  60   34   35 ar
  61   35   36 ar
  62   35   56 1
  63   36   57 1

#	End of record

