#	Name: ASD01410526
#	Creating user name:	WinNT
#	Creation time:	15. 06. 2019 19:18

#	Modifying user name:	WinNT
#	Modification time:	15. 06. 2019 19:18

#	Program:	/corina/corina34_cracker 3.40 0067  02.08.2006

@<TRIPOS>MOLECULE
ASD01410526
  77   80    0    0    0
SMALL
NO_CHARGES


@<TRIPOS>ATOM
   1 C1             2.8339     5.4877    -1.8068 C.ar    
   2 C2             3.6084     5.3037    -2.9438 C.ar    
   3 C3             4.5993     4.3418    -2.9379 C.ar    
   4 N4             4.8157     3.6004    -1.8683 N.ar    
   5 C5             4.0986     3.7461    -0.7661 C.ar    
   6 C6             3.0856     4.6941    -0.7010 C.ar    
   7 O7             4.3552     2.9620     0.3109 O.3     
   8 C8             5.2835     1.9770     0.1770 C.ar    
   9 C9             6.6379     2.2789     0.2950 C.ar    
  10 C10            7.5890     1.2845     0.1609 C.ar    
  11 C11            7.1986    -0.0224    -0.0925 C.ar    
  12 C12            5.8344    -0.3321    -0.2123 C.ar    
  13 C13            4.8797     0.6794    -0.0700 C.ar    
  14 F14            7.0244     3.5499     0.5412 F       
  15 N15            8.1571    -1.0242    -0.2280 N.am    
  16 C16            8.6787    -1.6104     0.8678 C.2     
  17 C17            8.5981    -1.4405    -1.5616 C.3     
  18 O18            9.4732    -2.5228     0.7490 O.2     
  19 C19            8.2850    -1.1440     2.2134 C.ar    
  20 C20            9.1613    -1.2911     3.2905 C.ar    
  21 C21            8.7880    -0.8539     4.5440 C.ar    
  22 C22            7.5468    -0.2704     4.7357 C.ar    
  23 C23            6.6733    -0.1218     3.6715 C.ar    
  24 C24            7.0374    -0.5493     2.4120 C.ar    
  25 C25            3.3703     6.1442    -4.1717 C.3     
  26 C26            7.7992    -0.6814    -2.6230 C.3     
  27 C27           10.0874    -1.1309    -1.7260 C.3     
  28 Br28           7.0424     0.3252     6.4581 Br      
  29 C29            5.6129    -0.5013    -3.5888 C.3     
  30 O30            6.4489    -1.1491    -2.6278 O.3     
  31 O31           10.8501    -2.0002    -0.8865 O.3     
  32 C32           12.2618    -1.7929    -0.9650 C.3     
  33 N33            4.1996     7.3549    -4.1048 N.3     
  34 C34            4.1769     8.0796    -5.3818 C.3     
  35 C35            5.5742     7.0296    -3.7032 C.3     
  36 C36            6.3680     8.3226    -3.5030 C.3     
  37 C37            6.3735     9.1200    -4.8102 C.3     
  38 C38            4.9291     9.4039    -5.2317 C.3     
  39 F39            4.9244    10.0848    -6.4538 F       
  40 F40            4.3036    10.1884    -4.2568 F       
  41 C41            5.4110    -1.7164    -0.4816 C.2     
  42 O42            6.2311    -2.6134    -0.4830 O.2     
  43 O43            4.1140    -1.9889    -0.7266 O.3     
  44 C44            2.2714     4.8566     0.5566 C.3     
  45 F45            1.3224     5.8675     0.3705 F       
  46 F46            1.6198     3.6535     0.8490 F       
  47 F47            3.1159     5.1994     1.6179 F       
  48 H48            2.0556     6.2361    -1.7839 H       
  49 H49            5.2045     4.1944    -3.8201 H       
  50 H50            8.6377     1.5256     0.2532 H       
  51 H51            3.8287     0.4479    -0.1606 H       
  52 H52            8.4343    -2.5115    -1.6806 H       
  53 H53           10.1292    -1.7466     3.1423 H       
  54 H54            9.4648    -0.9671     5.3779 H       
  55 H55            5.7066     0.3337     3.8274 H       
  56 H56            6.3554    -0.4329     1.5827 H       
  57 H57            3.6344     5.5716    -5.0608 H       
  58 H58            2.3186     6.4265    -4.2204 H       
  59 H59            7.8136     0.3845    -2.3953 H       
  60 H60            8.2455    -0.8496    -3.6030 H       
  61 H61           10.3775    -1.2831    -2.7656 H       
  62 H62           10.2765    -0.0952    -1.4439 H       
  63 H63            5.5819     0.5683    -3.3811 H       
  64 H64            6.0138    -0.6659    -4.5889 H       
  65 H65            4.6050    -0.9123    -3.5293 H       
  66 H66           12.5970    -1.9588    -1.9888 H       
  67 H67           12.4960    -0.7709    -0.6671 H       
  68 H68           12.7691    -2.4908    -0.2990 H       
  69 H69            4.6566     7.4746    -6.1512 H       
  70 H70            3.1442     8.2788    -5.6680 H       
  71 H71            5.5563     6.4663    -2.7702 H       
  72 H72            6.0473     6.4296    -4.4805 H       
  73 H73            5.9033     8.9168    -2.7162 H       
  74 H74            7.3925     8.0806    -3.2201 H       
  75 H75            6.9010    10.0620    -4.6600 H       
  76 H76            6.8728     8.5417    -5.5875 H       
  77 H77            3.8842    -2.9124    -0.8979 H       
@<TRIPOS>BOND
   1    1    2 ar
   2    1    6 ar
   3    1   48 1
   4    2    3 ar
   5    2   25 1
   6    3    4 ar
   7    3   49 1
   8    4    5 ar
   9    5    6 ar
  10    5    7 1
  11    6   44 1
  12    7    8 1
  13    8    9 ar
  14    8   13 ar
  15    9   10 ar
  16    9   14 1
  17   10   11 ar
  18   10   50 1
  19   11   12 ar
  20   11   15 1
  21   12   13 ar
  22   12   41 1
  23   13   51 1
  24   15   16 am
  25   15   17 1
  26   16   18 2
  27   16   19 1
  28   17   27 1
  29   17   26 1
  30   17   52 1
  31   19   20 ar
  32   19   24 ar
  33   20   21 ar
  34   20   53 1
  35   21   22 ar
  36   21   54 1
  37   22   23 ar
  38   22   28 1
  39   23   24 ar
  40   23   55 1
  41   24   56 1
  42   25   33 1
  43   25   57 1
  44   25   58 1
  45   26   30 1
  46   26   59 1
  47   26   60 1
  48   27   31 1
  49   27   61 1
  50   27   62 1
  51   29   30 1
  52   29   63 1
  53   29   64 1
  54   29   65 1
  55   31   32 1
  56   32   66 1
  57   32   67 1
  58   32   68 1
  59   33   34 1
  60   33   35 1
  61   34   38 1
  62   34   69 1
  63   34   70 1
  64   35   36 1
  65   35   71 1
  66   35   72 1
  67   36   37 1
  68   36   73 1
  69   36   74 1
  70   37   38 1
  71   37   75 1
  72   37   76 1
  73   38   39 1
  74   38   40 1
  75   41   42 2
  76   41   43 1
  77   43   77 1
  78   44   45 1
  79   44   46 1
  80   44   47 1

#	End of record

