#	Name: ASD01918613
#	Creating user name:	WinNT
#	Creation time:	15. 06. 2019 20:11

#	Modifying user name:	WinNT
#	Modification time:	15. 06. 2019 20:11

#	Program:	/corina/corina34_cracker 3.40 0067  02.08.2006

@<TRIPOS>MOLECULE
ASD01918613
  36   38    0    0    0
SMALL
NO_CHARGES


@<TRIPOS>ATOM
   1 C1             0.0341     1.4503    -0.8908 C.3     
   2 C2             0.0398    -0.0560    -0.8455 C.2     
   3 N3            -1.0004    -0.7868    -0.6440 N.2     
   4 C4            -0.8234    -2.1025    -0.6348 C.2     
   5 C5             0.4576    -2.4852    -0.8443 C.2     
   6 S6             1.4269    -1.0304    -1.0620 S.3     
   7 C7            -1.8913    -3.0325    -0.4220 C.1     
   8 C8            -2.7668    -3.7950    -0.2476 C.1     
   9 C9            -3.8347    -4.7250    -0.0348 C.ar    
  10 C10           -5.1380    -4.2603     0.1707 C.ar    
  11 C11           -6.1686    -5.1538     0.3754 C.ar    
  12 C12           -5.9214    -6.5157     0.3796 C.ar    
  13 F13           -6.9361    -7.3846     0.5808 F       
  14 C14           -4.6220    -6.9941     0.1753 C.ar    
  15 C15           -3.5782    -6.0957    -0.0377 C.ar    
  16 C16           -4.3587    -8.4474     0.1798 C.2     
  17 O17           -5.2714    -9.2299     0.3612 O.2     
  18 N18           -3.1068    -8.9061    -0.0171 N.am    
  19 C19           -2.8396   -10.2753     0.0847 C.ar    
  20 C20           -3.7849   -11.2121    -0.3252 C.ar    
  21 C21           -3.4740   -12.5568    -0.2046 C.ar    
  22 C22           -2.2459   -12.9220     0.3143 C.ar    
  23 N23           -1.3721   -12.0099     0.6936 N.ar    
  24 C24           -1.6251   -10.7207     0.5908 C.ar    
  25 H25            1.0446     1.8119    -1.0809 H       
  26 H26           -0.6284     1.7873    -1.6880 H       
  27 H27           -0.3180     1.8412     0.0639 H       
  28 H28            0.8204    -3.5019    -0.8763 H       
  29 H29           -5.3378    -3.1989     0.1693 H       
  30 H30           -7.1728    -4.7892     0.5335 H       
  31 H31           -2.5742    -6.4592    -0.2000 H       
  32 H32           -2.3911    -8.2867    -0.2294 H       
  33 H33           -4.7370   -10.8981    -0.7268 H       
  34 H34           -4.1832   -13.3111    -0.5122 H       
  35 H35           -1.9987   -13.9689     0.4107 H       
  36 H36           -0.8824   -10.0032     0.9073 H       
@<TRIPOS>BOND
   1    1    2 1
   2    1   25 1
   3    1   26 1
   4    1   27 1
   5    2    6 1
   6    2    3 2
   7    3    4 1
   8    4    5 2
   9    4    7 1
  10    5    6 1
  11    5   28 1
  12    7    8 3
  13    8    9 1
  14    9   15 ar
  15    9   10 ar
  16   10   11 ar
  17   10   29 1
  18   11   12 ar
  19   11   30 1
  20   12   13 1
  21   12   14 ar
  22   14   15 ar
  23   14   16 1
  24   15   31 1
  25   16   17 2
  26   16   18 am
  27   18   19 1
  28   18   32 1
  29   19   24 ar
  30   19   20 ar
  31   20   21 ar
  32   20   33 1
  33   21   22 ar
  34   21   34 1
  35   22   23 ar
  36   22   35 1
  37   23   24 ar
  38   24   36 1

#	End of record

