#	Name: ASD01812747
#	Creating user name:	WinNT
#	Creation time:	15. 06. 2019 19:29

#	Modifying user name:	WinNT
#	Modification time:	15. 06. 2019 19:29

#	Program:	/corina/corina34_cracker 3.40 0067  02.08.2006

@<TRIPOS>MOLECULE
ASD01812747
  46   49    0    0    0
SMALL
NO_CHARGES


@<TRIPOS>ATOM
   1 C1            -0.0167     1.3764     0.0226 C.ar    
   2 C2             0.0019    -0.0040     0.0169 C.ar    
   3 C3             1.2085    -0.6873    -0.0073 C.ar    
   4 C4             2.3937     0.0073    -0.0261 C.ar    
   5 C5             2.3937     1.4056    -0.0210 C.ar    
   6 C6             1.1718     2.0915     0.0039 C.ar    
   7 C7             3.8406    -0.4179    -0.0541 C.3     
   8 N8             4.6307     0.8186    -0.0640 N.am    
   9 C9             3.7911     1.8681    -0.0449 C.2     
  10 C10            6.0934     0.8964    -0.0901 C.3     
  11 C11            6.5694     0.9280    -1.5196 C.ar    
  12 C12            6.7241     2.1380    -2.1698 C.ar    
  13 C13            7.1611     2.1675    -3.4808 C.ar    
  14 C14            7.4436     0.9859    -4.1421 C.ar    
  15 C15            7.2886    -0.2247    -3.4911 C.ar    
  16 C16            6.8566    -0.2529    -2.1784 C.ar    
  17 O17            1.1515     3.4479     0.0091 O.3     
  18 O18            4.1366     3.0339    -0.0466 O.2     
  19 C19           -0.1276     4.0779    -0.0868 C.3     
  20 C20            0.0363     5.4818    -0.6771 C.3     
  21 C21           -1.3291     6.1756    -0.7025 C.3     
  22 C22           -1.9043     6.2052     0.7159 C.3     
  23 O23           -2.0017     4.8705     1.2170 O.3     
  24 C24           -0.7492     4.1885     1.3079 C.3     
  25 O25            0.5478     5.3841    -2.0078 O.3     
  26 Br26           8.0409     1.0254    -5.9359 Br      
  27 H27           -0.9603     1.9016     0.0373 H       
  28 H28           -0.9273    -0.5542     0.0315 H       
  29 H29            1.2164    -1.7672    -0.0110 H       
  30 H30            4.0757    -1.0057     0.8333 H       
  31 H31            4.0430    -0.9992    -0.9537 H       
  32 H32            6.4182     1.8027     0.4211 H       
  33 H33            6.5126     0.0252     0.4133 H       
  34 H34            6.5032     3.0605    -1.6535 H       
  35 H35            7.2816     3.1129    -3.9888 H       
  36 H36            7.5087    -1.1476    -4.0072 H       
  37 H37            6.7395    -1.1979    -1.6687 H       
  38 H38           -0.7789     3.4861    -0.7299 H       
  39 H39            0.7266     6.0581    -0.0611 H       
  40 H40           -1.2128     7.1952    -1.0698 H       
  41 H41           -2.0047     5.6261    -1.3582 H       
  42 H42           -1.2486     6.7891     1.3619 H       
  43 H43           -2.8949     6.6596     0.6970 H       
  44 H44           -0.9076     3.1901     1.7155 H       
  45 H45           -0.0784     4.7460     1.9617 H       
  46 H46            0.6766     6.2379    -2.4433 H       
@<TRIPOS>BOND
   1    1    2 ar
   2    1    6 ar
   3    1   27 1
   4    2    3 ar
   5    2   28 1
   6    3    4 ar
   7    3   29 1
   8    4    7 1
   9    4    5 ar
  10    5    6 ar
  11    5    9 1
  12    6   17 1
  13    7    8 1
  14    7   30 1
  15    7   31 1
  16    8    9 am
  17    8   10 1
  18    9   18 2
  19   10   11 1
  20   10   32 1
  21   10   33 1
  22   11   12 ar
  23   11   16 ar
  24   12   13 ar
  25   12   34 1
  26   13   14 ar
  27   13   35 1
  28   14   15 ar
  29   14   26 1
  30   15   16 ar
  31   15   36 1
  32   16   37 1
  33   17   19 1
  34   19   20 1
  35   19   24 1
  36   19   38 1
  37   20   21 1
  38   20   25 1
  39   20   39 1
  40   21   22 1
  41   21   40 1
  42   21   41 1
  43   22   23 1
  44   22   42 1
  45   22   43 1
  46   23   24 1
  47   24   44 1
  48   24   45 1
  49   25   46 1

#	End of record

