#	Name: ASD04930014
#	Creating user name:	WinNT
#	Creation time:	15. 06. 2019 20:56

#	Modifying user name:	WinNT
#	Modification time:	15. 06. 2019 20:56

#	Program:	/corina/corina34_cracker 3.40 0067  02.08.2006

@<TRIPOS>MOLECULE
ASD04930014
  35   37    0    0    0
SMALL
NO_CHARGES


@<TRIPOS>ATOM
   1 C1            -0.5982     1.3832     2.2577 C.ar    
   2 C2            -0.4826     0.0107     2.0902 C.ar    
   3 C3            -1.4605    -0.7064     1.4287 C.ar    
   4 C4            -2.5705    -0.0483     0.9268 C.ar    
   5 C5            -2.6859     1.3484     1.0935 C.ar    
   6 C6            -1.6977     2.0577     1.7676 C.ar    
   7 N7            -3.5913    -0.7119     0.2623 N.am    
   8 C8            -4.5374    -0.0115    -0.3938 C.2     
   9 O9            -4.4971     1.3311    -0.4883 O.3     
  10 C10           -3.8832     1.9951     0.5274 C.2     
  11 O11           -4.2975     3.0603     0.9435 O.2     
  12 O12           -5.4564    -0.6110    -0.9173 O.2     
  13 H13            0.1757     1.9268     2.7792 H       
  14 C14           -3.6371    -2.0702     0.2724 C.2     
  15 C15           -4.9605    -2.7785     0.4071 C.3     
  16 C16           -4.7227    -4.2853     0.5258 C.3     
  17 C17           -6.0663    -5.0044     0.6625 C.3     
  18 C18           -6.7886    -4.5019     1.9141 C.3     
  19 C19           -7.0264    -2.9951     1.7954 C.3     
  20 C20           -5.6828    -2.2760     1.6587 C.3     
  21 H21            0.3829    -0.5032     2.4816 H       
  22 H22           -1.3596    -1.7744     1.3035 H       
  23 H23           -1.7862     3.1260     1.8995 H       
  24 H24           -2.7252    -2.6420     0.1840 H       
  25 H25           -5.5724    -2.5754    -0.4718 H       
  26 H26           -4.2081    -4.6433    -0.3659 H       
  27 H27           -4.1108    -4.4884     1.4047 H       
  28 H28           -6.6782    -4.8012    -0.2163 H       
  29 H29           -5.8969    -6.0778     0.7471 H       
  30 H30           -7.7458    -5.0141     2.0115 H       
  31 H31           -6.1767    -4.7050     2.7930 H       
  32 H32           -7.6383    -2.7920     0.9166 H       
  33 H33           -7.5410    -2.6371     2.6871 H       
  34 H34           -5.0709    -2.4792     2.5376 H       
  35 H35           -5.8522    -1.2026     1.5742 H       
@<TRIPOS>BOND
   1    1    2 ar
   2    1   13 1
   3    1    6 ar
   4    2    3 ar
   5    2   21 1
   6    3    4 ar
   7    3   22 1
   8    4    5 ar
   9    4    7 1
  10    5    6 ar
  11    5   10 1
  12    6   23 1
  13    7    8 am
  14    7   14 1
  15    8    9 1
  16    8   12 2
  17    9   10 1
  18   10   11 2
  19   14   15 1
  20   14   24 1
  21   15   16 1
  22   15   20 1
  23   15   25 1
  24   16   17 1
  25   16   26 1
  26   16   27 1
  27   17   18 1
  28   17   28 1
  29   17   29 1
  30   18   19 1
  31   18   30 1
  32   18   31 1
  33   19   20 1
  34   19   32 1
  35   19   33 1
  36   20   34 1
  37   20   35 1

#	End of record

