#	Name: ASD03570029
#	Creating user name:	WinNT
#	Creation time:	15. 06. 2019 20:43

#	Modifying user name:	WinNT
#	Modification time:	15. 06. 2019 20:43

#	Program:	/corina/corina34_cracker 3.40 0067  02.08.2006

@<TRIPOS>MOLECULE
ASD03570029
  13   13    0    0    0
SMALL
NO_CHARGES


@<TRIPOS>ATOM
   1 C1            -0.0167     1.3802     0.0096 C.ar    
   2 C2             0.0021    -0.0041     0.0020 C.ar    
   3 C3             1.2051    -0.6809    -0.0132 C.ar    
   4 C4             2.4045     0.0336    -0.0208 C.ar    
   5 C5             2.3788     1.4295    -0.0131 C.ar    
   6 C6             1.1692     2.0945     0.0021 C.ar    
   7 Br7           -1.6237    -0.9698     0.0130 Br      
   8 Br8            1.1319     3.9851     0.0127 Br      
   9 N9             3.5887    -0.6249    -0.0353 N.1     
  10 N10            4.4918    -1.1272    -0.0463 N.1     
  11 H11           -0.9605     1.9051     0.0170 H       
  12 H12            1.2184    -1.7608    -0.0187 H       
  13 H13            3.3032     1.9879    -0.0186 H       
@<TRIPOS>BOND
   1    1    2 ar
   2    1    6 ar
   3    1   11 1
   4    2    3 ar
   5    2    7 1
   6    3    4 ar
   7    3   12 1
   8    4    5 ar
   9    4    9 1
  10    5    6 ar
  11    5   13 1
  12    6    8 1
  13    9   10 3

#	End of record

