#	Name: ASD03330457
#	Creating user name:	WinNT
#	Creation time:	15. 06. 2019 20:37

#	Modifying user name:	WinNT
#	Modification time:	15. 06. 2019 20:37

#	Program:	/corina/corina34_cracker 3.40 0067  02.08.2006

@<TRIPOS>MOLECULE
ASD03330457
  60   62    0    0    0
SMALL
NO_CHARGES


@<TRIPOS>ATOM
   1 C1            -1.0150     2.1983    -2.3612 C.3     
   2 N2            -0.8819     0.8384    -1.8200 N.3     
   3 C3            -0.0975    -0.0204    -2.7255 C.3     
   4 C4             1.1708     0.7122    -3.0799 C.2     
   5 N5             1.3552     2.0429    -2.8753 N.pl3   
   6 C6             0.3368     2.9201    -2.2908 C.3     
   7 C7             2.3097     0.2291    -3.6362 C.2     
   8 N8             3.1745     1.2615    -3.7628 N.2     
   9 C9             2.6057     2.3547    -3.3059 C.2     
  10 C10            3.2232     3.6987    -3.2669 C.ar    
  11 C11            2.5599    -1.1685    -4.0309 C.2     
  12 O12            1.6985    -2.0108    -3.8649 O.2     
  13 C13            3.9922    -2.9026    -4.9682 C.3     
  14 N14            3.7434    -1.5133    -4.5758 N.am    
  15 C15           -2.1995     0.2496    -1.5459 C.3     
  16 C16            3.1923     4.4494    -2.0919 C.ar    
  17 C17            4.4862    -3.6944    -3.7558 C.3     
  18 C18            3.3746    -3.7674    -2.7070 C.3     
  19 C19            4.8690    -5.1099    -4.1925 C.3     
  20 C20            5.7089    -2.9977    -3.1554 C.3     
  21 C21            5.0386    -2.9388    -6.0521 C.2     
  22 O22            5.7191    -1.9591    -6.2710 O.2     
  23 N23            5.2182    -4.0600    -6.7782 N.am    
  24 C24            6.2861    -4.1212    -7.7792 C.3     
  25 C25            3.7709     5.7043    -2.0623 C.ar    
  26 C26            4.3801     6.2152    -3.1969 C.ar    
  27 C27            4.4124     5.4740    -4.3644 C.ar    
  28 C28            3.8435     4.2177    -4.4039 C.ar    
  29 F29            3.7421     6.4338    -0.9255 F       
  30 F30            4.5393     4.1429    -6.6720 F       
  31 F31            4.5637     2.2126    -5.4503 F       
  32 C32            3.8807     3.4123    -5.6771 C.3     
  33 F33            2.5737     3.1338    -6.0911 F       
  34 H34           -1.3436     2.1447    -3.3992 H       
  35 H35           -1.7514     2.7503    -1.7771 H       
  36 H36            0.1459    -0.9578    -2.2254 H       
  37 H37           -0.6711    -0.2228    -3.6301 H       
  38 H38            0.2862     3.8515    -2.8547 H       
  39 H39            0.5868     3.1320    -1.2512 H       
  40 H40            3.0685    -3.3461    -5.3400 H       
  41 H41            4.4305    -0.8415    -4.7082 H       
  42 H42           -2.8016     0.2675    -2.4544 H       
  43 H43           -2.0749    -0.7808    -1.2129 H       
  44 H44           -2.6998     0.8251    -0.7671 H       
  45 H45            2.7172     4.0513    -1.2075 H       
  46 H46            2.5035    -4.2637    -3.1347 H       
  47 H47            3.7265    -4.3314    -1.8432 H       
  48 H48            3.1019    -2.7590    -2.3958 H       
  49 H49            5.5831    -5.0559    -5.0143 H       
  50 H50            5.3201    -5.6395    -3.3534 H       
  51 H51            3.9766    -5.6426    -4.5210 H       
  52 H52            5.4361    -1.9892    -2.8443 H       
  53 H53            6.0608    -3.5617    -2.2916 H       
  54 H54            6.5008    -2.9456    -3.9026 H       
  55 H55            4.6403    -4.8264    -6.6380 H       
  56 H56            7.2491    -3.9652    -7.2931 H       
  57 H57            6.2765    -5.0987    -8.2614 H       
  58 H58            6.1271    -3.3451    -8.5280 H       
  59 H59            4.8311     7.1962    -3.1698 H       
  60 H60            4.8884     5.8778    -5.2457 H       
@<TRIPOS>BOND
   1    1    2 1
   2    1    6 1
   3    1   34 1
   4    1   35 1
   5    2    3 1
   6    2   15 1
   7    3    4 1
   8    3   36 1
   9    3   37 1
  10    4    5 1
  11    4    7 2
  12    5    6 1
  13    5    9 1
  14    6   38 1
  15    6   39 1
  16    7    8 1
  17    7   11 1
  18    8    9 2
  19    9   10 1
  20   10   16 ar
  21   10   28 ar
  22   11   12 2
  23   11   14 am
  24   13   14 1
  25   13   17 1
  26   13   21 1
  27   13   40 1
  28   14   41 1
  29   15   42 1
  30   15   43 1
  31   15   44 1
  32   16   25 ar
  33   16   45 1
  34   17   18 1
  35   17   19 1
  36   17   20 1
  37   18   46 1
  38   18   47 1
  39   18   48 1
  40   19   49 1
  41   19   50 1
  42   19   51 1
  43   20   52 1
  44   20   53 1
  45   20   54 1
  46   21   22 2
  47   21   23 am
  48   23   24 1
  49   23   55 1
  50   24   56 1
  51   24   57 1
  52   24   58 1
  53   25   26 ar
  54   25   29 1
  55   26   27 ar
  56   26   59 1
  57   27   28 ar
  58   27   60 1
  59   28   32 1
  60   30   32 1
  61   31   32 1
  62   32   33 1

#	End of record

