#	Name: ASD01380014
#	Creating user name:	WinNT
#	Creation time:	15. 06. 2019 19:16

#	Modifying user name:	WinNT
#	Modification time:	15. 06. 2019 19:16

#	Program:	/corina/corina34_cracker 3.40 0067  02.08.2006

@<TRIPOS>MOLECULE
ASD01380014
  60   63    0    0    0
SMALL
NO_CHARGES


@<TRIPOS>ATOM
   1 O1             0.1799     1.4986    -0.6155 O.3     
   2 C2             0.2686     0.0747    -0.5339 C.3     
   3 C3            -1.1164    -0.5488    -0.2342 C.3     
   4 O4            -0.9765    -1.7040     0.6343 O.3     
   5 C5            -1.0591    -1.4852     1.9615 C.2     
   6 O6            -1.2430    -0.3598     2.3815 O.2     
   7 C7            -0.9265    -2.6102     2.9030 C.ar    
   8 C8            -0.8342    -3.9203     2.4248 C.ar    
   9 C9            -0.7098    -4.9685     3.3116 C.ar    
  10 Cl10          -0.5953    -6.5950     2.7155 Cl      
  11 C11           -0.6751    -4.7302     4.6773 C.ar    
  12 C12           -0.7656    -3.4423     5.1644 C.ar    
  13 C13           -0.8861    -2.3727     4.2864 C.ar    
  14 N14           -0.9768    -1.0756     4.7748 N.pl3   
  15 C15           -1.6460    -0.9748    -1.6172 C.3     
  16 O16           -0.6673    -0.5753    -2.5912 O.3     
  17 C17            0.6085    -0.5385    -1.9162 C.3     
  18 N18            1.1496    -1.8911    -1.7616 N.pl3   
  19 C19            0.4389    -3.0532    -1.8047 C.2     
  20 N20            1.2387    -4.0656    -1.6304 N.2     
  21 C21            2.5036    -3.6136    -1.4660 C.2     
  22 C22            2.4612    -2.2187    -1.5535 C.2     
  23 N23            3.5934    -1.5128    -1.4243 N.2     
  24 C24            4.7377    -2.1021    -1.2179 C.2     
  25 N25            4.8491    -3.4511    -1.1231 N.am    
  26 C26            3.7567    -4.2378    -1.2454 C.2     
  27 O27            3.8459    -5.4506    -1.1614 O.2     
  28 C28           -2.9778    -0.2773    -1.9017 C.3     
  29 O29           -3.5180    -0.7654    -3.1313 O.3     
  30 P30           -4.9156    -0.2490    -3.7413 P.3     
  31 O31           -4.8817     1.2247    -3.8734 O.2     
  32 O32           -5.1468    -0.9125    -5.1899 O.3     
  33 P33           -6.0673    -0.5393    -6.4570 P.3     
  34 O34           -5.9662     0.9118    -6.7298 O.2     
  35 O35           -5.5661    -1.3638    -7.7458 O.3     
  36 P36           -5.7504    -1.1768    -9.3342 P.3     
  37 O37           -7.1336    -0.7357    -9.6218 O.2     
  38 O38           -4.7117    -0.0686    -9.8682 O.3     
  39 O39           -5.4688    -2.5778   -10.0758 O.3     
  40 O40           -7.5988    -0.9201    -6.1384 O.3     
  41 O41           -6.1190    -0.6722    -2.7590 O.3     
  42 H42            1.0224     1.9351    -0.8017 H       
  43 H43            1.0007    -0.2253     0.2159 H       
  44 H44           -1.7774     0.1900     0.2188 H       
  45 H45           -0.8607    -4.1112     1.3621 H       
  46 H46           -0.5770    -5.5580     5.3640 H       
  47 H47           -0.7385    -3.2654     6.2295 H       
  48 H48           -1.0583    -0.9212     5.7290 H       
  49 H49           -0.9587    -0.3241     4.1617 H       
  50 H50           -1.7781    -2.0563    -1.6465 H       
  51 H51            1.3102     0.0973    -2.4561 H       
  52 H52           -0.6276    -3.1237    -1.9596 H       
  53 H53            5.6266    -1.4966    -1.1194 H       
  54 H54            5.7183    -3.8535    -0.9696 H       
  55 H55           -3.6763    -0.4833    -1.0907 H       
  56 H56           -2.8159     0.7980    -1.9774 H       
  57 H57           -3.7838    -0.2921    -9.7130 H       
  58 H58           -5.5619    -2.5394   -11.0376 H       
  59 H59           -7.7398    -1.8580    -5.9497 H       
  60 H60           -6.2010    -1.6265    -2.6259 H       
@<TRIPOS>BOND
   1    1    2 1
   2    1   42 1
   3    2    3 1
   4    2   17 1
   5    2   43 1
   6    3    4 1
   7    3   15 1
   8    3   44 1
   9    4    5 1
  10    5    6 2
  11    5    7 1
  12    7    8 ar
  13    7   13 ar
  14    8    9 ar
  15    8   45 1
  16    9   10 1
  17    9   11 ar
  18   11   12 ar
  19   11   46 1
  20   12   13 ar
  21   12   47 1
  22   13   14 1
  23   14   48 1
  24   14   49 1
  25   15   16 1
  26   15   28 1
  27   15   50 1
  28   16   17 1
  29   17   18 1
  30   17   51 1
  31   18   19 1
  32   18   22 1
  33   19   20 2
  34   19   52 1
  35   20   21 1
  36   21   22 2
  37   21   26 1
  38   22   23 1
  39   23   24 2
  40   24   25 1
  41   24   53 1
  42   25   26 am
  43   25   54 1
  44   26   27 2
  45   28   29 1
  46   28   55 1
  47   28   56 1
  48   29   30 1
  49   30   31 2
  50   30   32 1
  51   30   41 1
  52   32   33 1
  53   33   34 2
  54   33   35 1
  55   33   40 1
  56   35   36 1
  57   36   37 2
  58   36   38 1
  59   36   39 1
  60   38   57 1
  61   39   58 1
  62   40   59 1
  63   41   60 1

#	End of record

