#	Name: ASD01800023
#	Creating user name:	WinNT
#	Creation time:	15. 06. 2019 19:23

#	Modifying user name:	WinNT
#	Modification time:	15. 06. 2019 19:23

#	Program:	/corina/corina34_cracker 3.40 0067  02.08.2006

@<TRIPOS>MOLECULE
ASD01800023
  58   61    0    0    0
SMALL
NO_CHARGES


@<TRIPOS>ATOM
   1 C1            -0.2531     0.8533     0.3094 C.ar    
   2 C2             0.0007    -0.4891     0.5750 C.ar    
   3 C3             1.2964    -0.9880     0.4580 C.ar    
   4 C4             2.3319    -0.1490     0.0781 C.ar    
   5 C5             2.0825     1.1883    -0.1866 C.ar    
   6 C6             0.7889     1.6932    -0.0723 C.ar    
   7 O7             3.5951    -0.6387    -0.0348 O.3     
   8 C8             3.8702    -1.3742    -1.1289 C.2     
   9 N9             5.0697    -1.9765    -1.2519 N.am    
  10 C10            5.3690    -2.7766    -2.4420 C.3     
  11 C11            6.8894    -2.8305    -2.6722 C.3     
  12 C12            7.2947    -4.3169    -2.5931 C.3     
  13 C13            5.9919    -5.0842    -2.9295 C.3     
  14 C14            4.9033    -4.2321    -2.2310 C.3     
  15 O15            3.0371    -1.4949    -2.0052 O.2     
  16 C16           -1.1072    -1.3879     0.9827 C.ar    
  17 C17           -0.8537    -2.7323     1.2488 C.ar    
  18 C18           -1.8855    -3.5653     1.6275 C.ar    
  19 C19           -3.1756    -3.0659     1.7439 C.ar    
  20 C20           -3.4312    -1.7272     1.4795 C.ar    
  21 C21           -2.4024    -0.8881     1.1059 C.ar    
  22 C22            0.5226     3.1250    -0.3563 C.ar    
  23 C23            1.5658     3.9669    -0.7378 C.ar    
  24 C24            1.3154     5.2972    -1.0011 C.ar    
  25 C25            0.0256     5.7981    -0.8865 C.ar    
  26 C26           -1.0155     4.9619    -0.5067 C.ar    
  27 C27           -0.7721     3.6294    -0.2477 C.ar    
  28 O28           -4.1903    -3.8891     2.1168 O.3     
  29 C29           -5.4926    -3.3094     2.2167 C.3     
  30 O30           -0.2181     7.1093    -1.1461 O.3     
  31 C31           -1.5679     7.5579    -1.0087 C.3     
  32 H32           -1.2573     1.2414     0.3951 H       
  33 H33            1.4940    -2.0297     0.6639 H       
  34 H34            2.8917     1.8398    -0.4821 H       
  35 H35            5.7347    -1.8802    -0.5524 H       
  36 H36            4.8743    -2.3482    -3.3137 H       
  37 H37            7.1326    -2.4291    -3.6560 H       
  38 H38            7.4046    -2.2614    -1.8985 H       
  39 H39            8.0694    -4.5407    -3.3265 H       
  40 H40            7.6358    -4.5664    -1.5884 H       
  41 H41            5.8278    -5.1131    -4.0067 H       
  42 H42            6.0190    -6.0919    -2.5147 H       
  43 H43            4.8582    -4.4679    -1.1678 H       
  44 H44            3.9328    -4.3940    -2.7002 H       
  45 H45            0.1496    -3.1214     1.1581 H       
  46 H46           -1.6897    -4.6073     1.8335 H       
  47 H47           -4.4358    -1.3415     1.5705 H       
  48 H48           -2.6017     0.1533     0.9007 H       
  49 H49            2.5694     3.5779    -0.8267 H       
  50 H50            2.1234     5.9501    -1.2964 H       
  51 H51           -2.0177     5.3543    -0.4181 H       
  52 H52           -1.5824     2.9793     0.0474 H       
  53 H53           -5.4781    -2.5088     2.9562 H       
  54 H54           -5.7852    -2.9041     1.2481 H       
  55 H55           -6.2078    -4.0732     2.5220 H       
  56 H56           -2.2075     7.0001    -1.6927 H       
  57 H57           -1.9023     7.3951     0.0159 H       
  58 H58           -1.6233     8.6206    -1.2445 H       
@<TRIPOS>BOND
   1    1    2 ar
   2    1    6 ar
   3    1   32 1
   4    2    3 ar
   5    2   16 1
   6    3    4 ar
   7    3   33 1
   8    4    5 ar
   9    4    7 1
  10    5    6 ar
  11    5   34 1
  12    6   22 1
  13    7    8 1
  14    8    9 am
  15    8   15 2
  16    9   10 1
  17    9   35 1
  18   10   11 1
  19   10   14 1
  20   10   36 1
  21   11   12 1
  22   11   37 1
  23   11   38 1
  24   12   13 1
  25   12   39 1
  26   12   40 1
  27   13   14 1
  28   13   41 1
  29   13   42 1
  30   14   43 1
  31   14   44 1
  32   16   17 ar
  33   16   21 ar
  34   17   18 ar
  35   17   45 1
  36   18   19 ar
  37   18   46 1
  38   19   20 ar
  39   19   28 1
  40   20   21 ar
  41   20   47 1
  42   21   48 1
  43   22   23 ar
  44   22   27 ar
  45   23   24 ar
  46   23   49 1
  47   24   25 ar
  48   24   50 1
  49   25   26 ar
  50   25   30 1
  51   26   27 ar
  52   26   51 1
  53   27   52 1
  54   28   29 1
  55   29   53 1
  56   29   54 1
  57   29   55 1
  58   30   31 1
  59   31   56 1
  60   31   57 1
  61   31   58 1

#	End of record

