#	Name: ASD01948003
#	Creating user name:	WinNT
#	Creation time:	15. 06. 2019 20:13

#	Modifying user name:	WinNT
#	Modification time:	15. 06. 2019 20:13

#	Program:	/corina/corina34_cracker 3.40 0067  02.08.2006

@<TRIPOS>MOLECULE
ASD01948003
  56   63    0    0    0
SMALL
NO_CHARGES


@<TRIPOS>ATOM
   1 C1             0.2971     1.6726    -1.0634 C.ar    
   2 C2             0.3013     0.4387    -0.3715 C.ar    
   3 C3             1.4984    -0.2612    -0.2333 C.ar    
   4 C4             2.6724     0.2233    -0.8211 C.ar    
   5 C5             2.6555     1.4192    -1.5512 C.ar    
   6 C6             1.4710     2.1426    -1.6475 C.ar    
   7 N7             3.9436    -0.3237    -0.8311 N.pl3   
   8 C8             4.7543     0.4535    -1.6218 C.ar    
   9 C9             4.0105     1.5641    -2.0859 C.ar    
  10 C10           -0.7144    -0.3927     0.2667 C.ar    
  11 C11           -0.0490    -1.5368     0.7720 C.ar    
  12 N12            1.2895    -1.4254     0.4950 N.pl3   
  13 C13            6.0918     0.2960    -1.9825 C.ar    
  14 C14            6.6464     1.2707    -2.7948 C.ar    
  15 C15            5.9197     2.3609    -3.2391 C.ar    
  16 C16            4.5883     2.5373    -2.9005 C.ar    
  17 C17           -2.0917    -0.2238     0.4225 C.ar    
  18 C18           -2.7742    -1.2288     1.0856 C.ar    
  19 C19           -2.1272    -2.3512     1.5730 C.ar    
  20 C20           -0.7626    -2.5364     1.4325 C.ar    
  21 C21            1.1233     3.4557    -2.3055 C.3     
  22 N22           -0.3025     3.6802    -2.0427 N.am    
  23 C23           -0.7737     2.6466    -1.3254 C.2     
  24 O24           -1.9227     2.5341    -0.9430 O.2     
  25 C25            2.3663    -2.3177     0.9362 C.3     
  26 C26            4.3353    -1.5000    -0.0476 C.3     
  27 O27            3.5667    -1.5743     1.1540 O.3     
  28 C28            2.6923    -3.3106    -0.1980 C.3     
  29 C29            3.9857    -2.7732    -0.8445 C.3     
  30 C30            5.8294    -1.4490     0.2778 C.3     
  31 C31            5.0929    -3.7880    -0.7209 C.2     
  32 O32            3.7572    -2.4517    -2.2179 O.3     
  33 O33            5.6719    -3.9254     0.3306 O.2     
  34 O34            5.4359    -4.5393    -1.7791 O.3     
  35 C35            6.5110    -5.4962    -1.5874 C.3     
  36 H36            6.6708    -0.5500    -1.6426 H       
  37 H37            7.6808     1.1769    -3.0911 H       
  38 H38            6.4036     3.0942    -3.8671 H       
  39 H39            4.0243     3.3895    -3.2501 H       
  40 H40           -2.6005     0.6503     0.0436 H       
  41 H41           -3.8408    -1.1345     1.2270 H       
  42 H42           -2.7067    -3.1082     2.0805 H       
  43 H43           -0.2715    -3.4178     1.8176 H       
  44 H44            1.7158     4.2609    -1.8711 H       
  45 H45            1.3016     3.3957    -3.3791 H       
  46 H46           -0.8190     4.4460    -2.3389 H       
  47 H47            2.0748    -2.8436     1.8453 H       
  48 H48            2.8588    -4.3081     0.2086 H       
  49 H49            1.8837    -3.3291    -0.9286 H       
  50 H50            6.1072    -0.4311     0.5514 H       
  51 H51            6.0431    -2.1200     1.1099 H       
  52 H52            6.4024    -1.7597    -0.5958 H       
  53 H53            3.5331    -3.2145    -2.7684 H       
  54 H54            6.6870    -6.0361    -2.5178 H       
  55 H55            7.4193    -4.9687    -1.2961 H       
  56 H56            6.2339    -6.2021    -0.8045 H       
@<TRIPOS>BOND
   1    1    2 ar
   2    1    6 ar
   3    1   23 1
   4    2    3 ar
   5    2   10 1
   6    3    4 ar
   7    3   12 1
   8    4    5 ar
   9    4    7 1
  10    5    6 ar
  11    5    9 1
  12    6   21 1
  13    7    8 1
  14    7   26 1
  15    8    9 ar
  16    8   13 ar
  17    9   16 ar
  18   10   11 ar
  19   10   17 ar
  20   11   12 1
  21   11   20 ar
  22   12   25 1
  23   13   14 ar
  24   13   36 1
  25   14   15 ar
  26   14   37 1
  27   15   16 ar
  28   15   38 1
  29   16   39 1
  30   17   18 ar
  31   17   40 1
  32   18   19 ar
  33   18   41 1
  34   19   20 ar
  35   19   42 1
  36   20   43 1
  37   21   22 1
  38   21   44 1
  39   21   45 1
  40   22   23 am
  41   22   46 1
  42   23   24 2
  43   25   27 1
  44   25   28 1
  45   25   47 1
  46   26   27 1
  47   26   29 1
  48   26   30 1
  49   28   29 1
  50   28   48 1
  51   28   49 1
  52   29   31 1
  53   29   32 1
  54   30   50 1
  55   30   51 1
  56   30   52 1
  57   31   33 2
  58   31   34 1
  59   32   53 1
  60   34   35 1
  61   35   54 1
  62   35   55 1
  63   35   56 1

#	End of record

