#	Name: ASD01140531
#	Creating user name:	WinNT
#	Creation time:	15. 06. 2019 19:01

#	Modifying user name:	WinNT
#	Modification time:	15. 06. 2019 19:01

#	Program:	/corina/corina34_cracker 3.40 0067  02.08.2006

@<TRIPOS>MOLECULE
ASD01140531
  75   79    0    0    0
SMALL
NO_CHARGES


@<TRIPOS>ATOM
   1 C1            -0.0914     1.4941     0.6553 C.3     
   2 C2            -0.6580     0.1282     0.2630 C.3     
   3 C3            -0.3319    -0.8930     1.3545 C.3     
   4 C4             1.1858    -0.9980     1.5173 C.3     
   5 C5             1.7491     0.3696     1.9151 C.3     
   6 C6             1.4261     1.3890     0.8211 C.3     
   7 C7             1.5155    -2.0337     2.5920 C.3     
   8 C8             3.0325    -2.1243     2.7850 C.3     
   9 C9             3.5597    -0.7542     3.2049 C.3     
  10 C10            3.2619     0.2540     2.0813 C.3     
  11 C11            5.0589    -0.7662     3.4174 C.3     
  12 C12            5.4540     0.6202     3.9966 C.3     
  13 C13            5.3237     1.6431     2.8801 C.3     
  14 C14            3.8764     1.5898     2.4084 C.2     
  15 C15            5.5607    -1.7169     4.5117 C.3     
  16 C16            6.9313    -1.1054     4.9070 C.3     
  17 C17            6.8691     0.3928     4.5227 C.3     
  18 N18           -0.6935     1.9282     1.9230 N.3     
  19 C19           -2.1604     1.8522     1.8628 C.3     
  20 C20           -2.7430     2.2551     3.2200 C.3     
  21 O21           -2.2823     3.5653     3.5610 O.3     
  22 C22           -0.8580     3.6752     3.6291 C.3     
  23 C23           -0.2563     3.2867     2.2760 C.3     
  24 C24           -4.2710     2.2554     3.1403 C.3     
  25 C25           -2.2865     1.2590     4.2879 C.3     
  26 O26           -0.0749    -0.2923    -0.9720 O.3     
  27 H27            1.6300    -1.3110     0.5724 H       
  28 C28            1.1181     0.8184     3.2348 C.3     
  29 H29            3.0611    -0.4369     4.1208 H       
  30 H30            3.6984    -0.1076     1.1502 H       
  31 O31            3.2308     2.6043     2.2977 O.2     
  32 C32            4.5176     0.9878     5.1493 C.3     
  33 H33            5.5740    -0.9629     2.4772 H       
  34 C34            7.1192     1.2528     5.7347 C.2     
  35 O35            6.8728     0.8279     6.8379 O.2     
  36 C36            7.6767     2.6432     5.5700 C.3     
  37 H37           -0.3222     2.2205    -0.1239 H       
  38 H38           -1.7392     0.2032     0.1471 H       
  39 H39           -0.7770    -0.5727     2.2965 H       
  40 H40           -0.7354    -1.8660     1.0741 H       
  41 H41            1.8730     1.0668    -0.1194 H       
  42 H42            1.8294     2.3623     1.1007 H       
  43 H43            1.0481    -1.7407     3.5321 H       
  44 H44            1.1310    -3.0068     2.2866 H       
  45 H45            3.2588    -2.8559     3.5606 H       
  46 H46            3.5025    -2.4250     1.8486 H       
  47 H47            5.5570     2.6388     3.2571 H       
  48 H48            5.9935     1.3870     2.0592 H       
  49 H49            4.8797    -1.7182     5.3628 H       
  50 H50            5.6880    -2.7250     4.1174 H       
  51 H51            7.0920    -1.2100     5.9800 H       
  52 H52            7.7334    -1.5992     4.3584 H       
  53 H53            7.6005     0.6135     3.7453 H       
  54 H54           -2.5287     2.5302     1.0928 H       
  55 H55           -2.4626     0.8322     1.6252 H       
  56 H56           -0.5832     4.7025     3.8682 H       
  57 H57           -0.4780     3.0069     4.4018 H       
  58 H58            0.8315     3.3139     2.3401 H       
  59 H59           -0.5941     3.9877     1.5127 H       
  60 H60           -4.6213     1.2575     2.8766 H       
  61 H61           -4.6852     2.5423     4.1068 H       
  62 H62           -4.5950     2.9667     2.3806 H       
  63 H63           -1.1980     1.2611     4.3451 H       
  64 H64           -2.7016     1.5464     5.2539 H       
  65 H65           -2.6347     0.2600     4.0255 H       
  66 H66           -0.3888    -1.1526    -1.2824 H       
  67 H67            1.4892     0.1924     4.0463 H       
  68 H68            1.3816     1.8582     3.4284 H       
  69 H69            0.0341     0.7242     3.1697 H       
  70 H70            4.5059     0.1790     5.8800 H       
  71 H71            4.8696     1.9028     5.6257 H       
  72 H72            3.5101     1.1434     4.7635 H       
  73 H73            7.8337     2.8486     4.5111 H       
  74 H74            6.9733     3.3677     5.9802 H       
  75 H75            8.6265     2.7189     6.0995 H       
@<TRIPOS>BOND
   1    1    2 1
   2    1    6 1
   3    1   18 1
   4    1   37 1
   5    2    3 1
   6    2   26 1
   7    2   38 1
   8    3    4 1
   9    3   39 1
  10    3   40 1
  11    4    5 1
  12    4    7 1
  13    4   27 1
  14    5    6 1
  15    5   10 1
  16    5   28 1
  17    6   41 1
  18    6   42 1
  19    7    8 1
  20    7   43 1
  21    7   44 1
  22    8    9 1
  23    8   45 1
  24    8   46 1
  25    9   10 1
  26    9   29 1
  27    9   11 1
  28   10   30 1
  29   10   14 1
  30   11   15 1
  31   11   33 1
  32   11   12 1
  33   12   13 1
  34   12   32 1
  35   12   17 1
  36   13   14 1
  37   13   47 1
  38   13   48 1
  39   14   31 2
  40   15   16 1
  41   15   49 1
  42   15   50 1
  43   16   17 1
  44   16   51 1
  45   16   52 1
  46   17   34 1
  47   17   53 1
  48   18   19 1
  49   18   23 1
  50   19   20 1
  51   19   54 1
  52   19   55 1
  53   20   21 1
  54   20   24 1
  55   20   25 1
  56   21   22 1
  57   22   23 1
  58   22   56 1
  59   22   57 1
  60   23   58 1
  61   23   59 1
  62   24   60 1
  63   24   61 1
  64   24   62 1
  65   25   63 1
  66   25   64 1
  67   25   65 1
  68   26   66 1
  69   28   67 1
  70   28   68 1
  71   28   69 1
  72   32   70 1
  73   32   71 1
  74   32   72 1
  75   34   35 2
  76   34   36 1
  77   36   73 1
  78   36   74 1
  79   36   75 1

#	End of record

