#	Name: ASD01813507
#	Creating user name:	WinNT
#	Creation time:	15. 06. 2019 19:30

#	Modifying user name:	WinNT
#	Modification time:	15. 06. 2019 19:30

#	Program:	/corina/corina34_cracker 3.40 0067  02.08.2006

@<TRIPOS>MOLECULE
ASD01813507
  51   54    0    0    0
SMALL
NO_CHARGES


@<TRIPOS>ATOM
   1 O1            -0.0173     1.4248     0.0099 O.3     
   2 C2             0.0021    -0.0041     0.0020 C.3     
   3 H3             0.5123    -0.3556    -0.8948 H       
   4 C4             0.7421    -0.5109     1.2415 C.3     
   5 C5             0.7628    -2.0407     1.2331 C.3     
   6 C6            -0.6726    -2.5703     1.2440 C.3     
   7 C7            -1.4126    -2.0635     0.0045 C.3     
   8 C8            -1.4333    -0.5336     0.0129 C.3     
   9 H9            -1.9435    -0.1821     0.9097 H       
  10 N10           -2.1419    -0.0483    -1.1740 N.am    
  11 C11           -3.4850     0.0621    -1.1588 C.2     
  12 O12           -4.1098    -0.2416    -0.1582 O.2     
  13 C13           -4.1702     0.5314    -2.3066 C.2     
  14 C14           -5.5131     0.6411    -2.2728 C.2     
  15 N15           -6.1922     1.0899    -3.3858 N.pl3   
  16 C16           -7.5954     1.5016    -3.2969 C.3     
  17 C17           -7.6680     2.9729    -2.9794 C.ar    
  18 C18           -7.9033     3.3892    -1.6826 C.ar    
  19 C19           -7.9703     4.7387    -1.3896 C.ar    
  20 C20           -7.8022     5.6744    -2.3929 C.ar    
  21 C21           -7.5664     5.2608    -3.6925 C.ar    
  22 F22           -7.4018     6.1747    -4.6737 F       
  23 C23           -7.4935     3.9075    -3.9853 C.ar    
  24 F24           -7.2580     3.5014    -5.2521 F       
  25 C25           -5.5001     1.1415    -4.6075 C.ar    
  26 C26           -6.1762     1.3089    -5.8015 C.ar    
  27 C27           -5.4687     1.3547    -6.9916 C.ar    
  28 C28           -4.0929     1.2333    -6.9851 C.ar    
  29 C29           -3.4115     1.0664    -5.7908 C.ar    
  30 C30           -4.1108     1.0202    -4.5986 C.ar    
  31 O31           -3.4569     0.8664    -3.4161 O.3     
  32 H32            0.8606     1.8301     0.0037 H       
  33 H33            1.7647    -0.1336     1.2338 H       
  34 H34            0.2319    -0.1594     2.1383 H       
  35 H35            1.2730    -2.3923     0.3363 H       
  36 H36            1.2900    -2.4018     2.1162 H       
  37 H37           -0.6578    -3.6602     1.2380 H       
  38 H38           -1.1828    -2.2188     2.1408 H       
  39 H39           -0.9024    -2.4150    -0.8923 H       
  40 H40           -2.4352    -2.4408     0.0122 H       
  41 H41           -1.6443     0.1935    -1.9708 H       
  42 H42           -6.0556     0.3780    -1.3767 H       
  43 H43           -8.0911     1.3103    -4.2487 H       
  44 H44           -8.0911     0.9348    -2.5088 H       
  45 H45           -8.0354     2.6595    -0.8974 H       
  46 H46           -8.1546     5.0621    -0.3758 H       
  47 H47           -7.8551     6.7283    -2.1628 H       
  48 H48           -7.2521     1.4032    -5.8065 H       
  49 H49           -5.9939     1.4852    -7.9263 H       
  50 H50           -3.5457     1.2691    -7.9155 H       
  51 H51           -2.3357     0.9717    -5.7906 H       
@<TRIPOS>BOND
   1    1    2 1
   2    1   32 1
   3    2    3 1
   4    2    8 1
   5    2    4 1
   6    4    5 1
   7    4   33 1
   8    4   34 1
   9    5    6 1
  10    5   35 1
  11    5   36 1
  12    6    7 1
  13    6   37 1
  14    6   38 1
  15    7    8 1
  16    7   39 1
  17    7   40 1
  18    8    9 1
  19    8   10 1
  20   10   11 am
  21   10   41 1
  22   11   12 2
  23   11   13 1
  24   13   31 1
  25   13   14 2
  26   14   15 1
  27   14   42 1
  28   15   16 1
  29   15   25 1
  30   16   17 1
  31   16   43 1
  32   16   44 1
  33   17   23 ar
  34   17   18 ar
  35   18   19 ar
  36   18   45 1
  37   19   20 ar
  38   19   46 1
  39   20   21 ar
  40   20   47 1
  41   21   22 1
  42   21   23 ar
  43   23   24 1
  44   25   30 ar
  45   25   26 ar
  46   26   27 ar
  47   26   48 1
  48   27   28 ar
  49   27   49 1
  50   28   29 ar
  51   28   50 1
  52   29   30 ar
  53   29   51 1
  54   30   31 1

#	End of record

