#	Name: ASD03731293
#	Creating user name:	WinNT
#	Creation time:	15. 06. 2019 20:45

#	Modifying user name:	WinNT
#	Modification time:	15. 06. 2019 20:45

#	Program:	/corina/corina34_cracker 3.40 0067  02.08.2006

@<TRIPOS>MOLECULE
ASD03731293
  57   62    0    0    0
SMALL
NO_CHARGES


@<TRIPOS>ATOM
   1 N1            -0.0162     1.3436     0.0094 N.am    
   2 C2            -0.1466     0.0022     0.0233 C.2     
   3 O3             0.8377    -0.7053    -0.0717 O.2     
   4 N4            -1.3680    -0.5550     0.1426 N.am    
   5 C5            -1.5097    -2.0130     0.1577 C.3     
   6 C6            -2.9880    -2.3803     0.3017 C.3     
   7 O7             1.4307    -7.7831     2.0268 O.3     
   8 C8             1.7212    -9.1766     2.2431 C.3     
   9 O9             0.5318    -9.6794     2.8798 O.3     
  10 C10           -0.4824    -8.8722     2.4498 C.ar    
  11 C11            0.0710    -7.7059     1.9263 C.ar    
  12 C12           -1.8552    -9.0415     2.4620 C.ar    
  13 C13           -2.6922    -8.0519     1.9554 C.ar    
  14 C14           -2.1281    -6.8877     1.4427 C.ar    
  15 C15           -0.7594    -6.7185     1.4235 C.ar    
  16 O16           -4.0524    -8.0263     1.8578 O.3     
  17 C17           -3.2726    -6.0131     1.0054 C.3     
  18 C18           -4.4901    -6.6661     1.6738 C.3     
  19 N19           -3.1297    -3.8383     0.3168 N.am    
  20 C20           -3.0948    -4.5862     1.4377 C.2     
  21 C21           -3.4141    -5.9619    -0.4870 C.ar    
  22 C22           -3.6019    -6.9197    -1.4583 C.ar    
  23 C23           -3.6978    -6.5490    -2.7878 C.ar    
  24 C24           -3.6039    -5.2145    -3.1387 C.ar    
  25 C25           -3.4149    -4.2514    -2.1696 C.ar    
  26 C26           -3.3176    -4.6154    -0.8287 C.ar    
  27 O27           -2.9488    -4.1851     2.5730 O.2     
  28 C28            1.2578     1.9227    -0.0005 C.ar    
  29 C29            1.4802     3.1031    -0.6977 C.ar    
  30 C30            2.7384     3.6720    -0.7056 C.ar    
  31 C31            3.7765     3.0676    -0.0202 C.ar    
  32 C32            3.5585     1.8923     0.6745 C.ar    
  33 C33            2.3007     1.3215     0.6914 C.ar    
  34 C34            2.9808     4.9525    -1.4623 C.3     
  35 H35           -0.8054     1.9075     0.0023 H       
  36 H36           -2.1532     0.0095     0.2184 H       
  37 H37           -1.1220    -2.4254    -0.7738 H       
  38 H38           -0.9498    -2.4238     0.9978 H       
  39 H39           -3.3757    -1.9679     1.2332 H       
  40 H40           -3.5479    -1.9695    -0.5384 H       
  41 H41            1.8912    -9.6843     1.2937 H       
  42 H42            2.5841    -9.2904     2.8993 H       
  43 H43           -2.2804    -9.9478     2.8675 H       
  44 H44           -0.3343    -5.8134     1.0155 H       
  45 H45           -5.3601    -6.6247     1.0185 H       
  46 H46           -4.7039    -6.1952     2.6333 H       
  47 H47           -3.6747    -7.9613    -1.1821 H       
  48 H48           -3.8460    -7.2999    -3.5498 H       
  49 H49           -3.6787    -4.9251    -4.1765 H       
  50 H50           -3.3420    -3.2114    -2.4514 H       
  51 H51            0.6700     3.5753    -1.2335 H       
  52 H52            4.7597     3.5145    -0.0279 H       
  53 H53            4.3712     1.4226     1.2085 H       
  54 H54            2.1297     0.4061     1.2384 H       
  55 H55            2.7996     5.8029    -0.8049 H       
  56 H56            4.0126     4.9777    -1.8129 H       
  57 H57            2.3055     5.0032    -2.3165 H       
@<TRIPOS>BOND
   1    1    2 am
   2    1   28 1
   3    1   35 1
   4    2    3 2
   5    2    4 am
   6    4    5 1
   7    4   36 1
   8    5    6 1
   9    5   37 1
  10    5   38 1
  11    6   19 1
  12    6   39 1
  13    6   40 1
  14    7    8 1
  15    7   11 1
  16    8    9 1
  17    8   41 1
  18    8   42 1
  19    9   10 1
  20   10   11 ar
  21   10   12 ar
  22   11   15 ar
  23   12   13 ar
  24   12   43 1
  25   13   14 ar
  26   13   16 1
  27   14   15 ar
  28   14   17 1
  29   15   44 1
  30   16   18 1
  31   17   18 1
  32   17   20 1
  33   17   21 1
  34   18   45 1
  35   18   46 1
  36   19   20 am
  37   19   26 1
  38   20   27 2
  39   21   22 ar
  40   21   26 ar
  41   22   23 ar
  42   22   47 1
  43   23   24 ar
  44   23   48 1
  45   24   25 ar
  46   24   49 1
  47   25   26 ar
  48   25   50 1
  49   28   29 ar
  50   28   33 ar
  51   29   30 ar
  52   29   51 1
  53   30   31 ar
  54   30   34 1
  55   31   32 ar
  56   31   52 1
  57   32   33 ar
  58   32   53 1
  59   33   54 1
  60   34   55 1
  61   34   56 1
  62   34   57 1

#	End of record

