#	Name: ASD05313175
#	Creating user name:	WinNT
#	Creation time:	15. 06. 2019 20:58

#	Modifying user name:	WinNT
#	Modification time:	15. 06. 2019 20:58

#	Program:	/corina/corina34_cracker 3.40 0067  02.08.2006

@<TRIPOS>MOLECULE
ASD05313175
  39   42    0    0    0
SMALL
NO_CHARGES


@<TRIPOS>ATOM
   1 C1             0.5819    -0.4450    -1.7729 C.ar    
   2 C2            -0.2809    -0.1921    -0.6973 C.ar    
   3 C3             0.1061     0.7355     0.2734 C.ar    
   4 C4             1.3307     1.3668     0.1290 C.ar    
   5 C5             2.1264     1.0643    -0.9595 C.ar    
   6 N6             1.7400     0.1844    -1.8643 N.ar    
   7 O7             0.2281    -1.3455    -2.7227 O.3     
   8 C8            -3.6862    -1.3557    -0.3170 C.2     
   9 C9            -5.1608    -1.1732    -0.0487 C.3     
  10 N10           -2.7825    -0.3339    -0.2964 N.pl3   
  11 N11           -5.3358     0.1946     0.4757 N.am    
  12 C12           -4.6027     1.2883    -0.1796 C.3     
  13 C13           -3.0959     1.0637    -0.0048 C.3     
  14 N14           -1.7907    -2.1827    -0.7692 N.2     
  15 N15           -3.0418    -2.4449    -0.6047 N.2     
  16 C16           -1.5777    -0.8940    -0.5922 C.2     
  17 C17           -6.1454     0.4353     1.5260 C.2     
  18 O18           -6.2067     1.5519     2.0029 O.2     
  19 C19           -6.9582    -0.6576     2.0977 C.ar    
  20 C20           -7.0117    -0.8419     3.4818 C.ar    
  21 C21           -7.7751    -1.8667     4.0097 C.ar    
  22 C22           -8.4849    -2.7090     3.1676 C.ar    
  23 C23           -8.4337    -2.5293     1.7954 C.ar    
  24 C24           -7.6809    -1.5069     1.2574 C.ar    
  25 F25           -7.8290    -2.0479     5.3474 F       
  26 Cl26          -9.4413    -3.9944     3.8360 Cl      
  27 Cl27          -6.1217     0.2124     4.5355 Cl      
  28 H28           -0.5338     0.9552     1.1152 H       
  29 H29            1.6606     2.0894     0.8608 H       
  30 H30            3.0810     1.5568    -1.0722 H       
  31 H31           -0.3268    -0.9791    -3.4248 H       
  32 H32           -5.7249    -1.2920    -0.9738 H       
  33 H33           -5.4975    -1.9007     0.6898 H       
  34 H34           -4.8475     1.3053    -1.2416 H       
  35 H35           -4.8841     2.2384     0.2746 H       
  36 H36           -2.8095     1.2948     1.0212 H       
  37 H37           -2.5493     1.7104    -0.6911 H       
  38 H38           -8.9884    -3.1893     1.1448 H       
  39 H39           -7.6463    -1.3663     0.1872 H       
@<TRIPOS>BOND
   1    1    2 ar
   2    1    6 ar
   3    1    7 1
   4    2    3 ar
   5    2   16 1
   6    3    4 ar
   7    3   28 1
   8    4    5 ar
   9    4   29 1
  10    5    6 ar
  11    5   30 1
  12    7   31 1
  13    8    9 1
  14    8   10 1
  15    8   15 2
  16    9   11 1
  17    9   32 1
  18    9   33 1
  19   10   13 1
  20   10   16 1
  21   11   12 1
  22   11   17 am
  23   12   13 1
  24   12   34 1
  25   12   35 1
  26   13   36 1
  27   13   37 1
  28   14   15 1
  29   14   16 2
  30   17   18 2
  31   17   19 1
  32   19   20 ar
  33   19   24 ar
  34   20   21 ar
  35   20   27 1
  36   21   22 ar
  37   21   25 1
  38   22   23 ar
  39   22   26 1
  40   23   24 ar
  41   23   38 1
  42   24   39 1

#	End of record

