#	Name: ASD09740637
#	Creating user name:	WinNT
#	Creation time:	15. 06. 2019 21:23

#	Modifying user name:	WinNT
#	Modification time:	15. 06. 2019 21:23

#	Program:	/corina/corina34_cracker 3.40 0067  02.08.2006

@<TRIPOS>MOLECULE
ASD09740637
  57   60    0    0    0
SMALL
NO_CHARGES


@<TRIPOS>ATOM
   1 N1            -0.0216     1.0784     1.4520 N.2     
   2 N2             0.0255    -0.1644     1.2435 N.2     
   3 C3             1.1117     1.7133     1.5889 C.2     
   4 S4             2.4151     0.5351     1.4241 S.3     
   5 C5             1.2033    -0.7242     1.1799 C.2     
   6 C6             1.2737     3.1612     1.8375 C.ar    
   7 C7             0.1516     3.9787     1.9466 C.ar    
   8 C8             2.5530     3.7090     1.9687 C.ar    
   9 C9             2.7099     5.0586     2.2006 C.ar    
  10 C10            1.5994     5.8836     2.3054 C.ar    
  11 C11            0.3103     5.3436     2.1810 C.ar    
  12 O12            1.7596     7.2111     2.5341 O.3     
  13 C13            3.0912     7.6726     2.7709 C.3     
  14 C14            3.7834     7.9409     1.4331 C.3     
  15 C15            3.0453     8.9644     3.5895 C.3     
  16 C16           -0.8379     6.1926     2.2883 C.1     
  17 N17           -1.7487     6.8661     2.3734 N.1     
  18 C18            1.4738    -2.1585     0.9454 C.ar    
  19 C19            0.4127    -3.0506     0.7670 C.ar    
  20 C20            0.6718    -4.3880     0.5480 C.ar    
  21 C21            1.9811    -4.8410     0.5060 C.ar    
  22 C22            3.0341    -3.9626     0.6821 C.ar    
  23 C23            2.7884    -2.6223     0.8961 C.ar    
  24 C24           -1.0817    -2.8107     0.7683 C.3     
  25 C25           -1.6913    -4.0590     0.0956 C.3     
  26 C26           -0.6311    -5.1422     0.3869 C.3     
  27 N27           -0.5404    -6.0796    -0.7353 N.am    
  28 C28           -0.0943    -7.3348    -0.5304 C.2     
  29 O29            0.3171    -7.6625     0.5658 O.2     
  30 N30           -0.1043    -8.2268    -1.5407 N.am    
  31 C31            0.2692    -9.6211    -1.2906 C.3     
  32 C32           -0.4886    -7.8020    -2.8891 C.3     
  33 H33           -0.8378     3.5569     1.8495 H       
  34 H34            3.4217     3.0724     1.8885 H       
  35 H35            3.7011     5.4755     2.3014 H       
  36 H36            3.6464     6.9131     3.3214 H       
  37 H37            4.7991     8.2928     1.6137 H       
  38 H38            3.8161     7.0206     0.8499 H       
  39 H39            3.2282     8.7003     0.8826 H       
  40 H40            2.5521     8.7732     4.5425 H       
  41 H41            4.0609     9.3163     3.7701 H       
  42 H42            2.4901     9.7238     3.0389 H       
  43 H43            2.1803    -5.8886     0.3346 H       
  44 H44            4.0507    -4.3256     0.6477 H       
  45 H45            3.6107    -1.9358     1.0337 H       
  46 H46           -1.4485    -2.7145     1.7902 H       
  47 H47           -1.3217    -1.9161     0.1937 H       
  48 H48           -2.6461    -4.3184     0.5529 H       
  49 H49           -1.8035    -3.9052    -0.9776 H       
  50 H50           -0.8764    -5.6740     1.3062 H       
  51 H51           -0.8014    -5.7969    -1.6257 H       
  52 H52           -0.6190   -10.1922    -1.0199 H       
  53 H53            0.7135   -10.0454    -2.1909 H       
  54 H54            0.9907    -9.6632    -0.4747 H       
  55 H55           -0.6402    -6.7227    -2.9007 H       
  56 H56            0.3016    -8.0655    -3.5921 H       
  57 H57           -1.4133    -8.3019    -3.1778 H       
@<TRIPOS>BOND
   1    1    2 1
   2    1    3 2
   3    2    5 2
   4    3    4 1
   5    3    6 1
   6    4    5 1
   7    5   18 1
   8    6    7 ar
   9    6    8 ar
  10    7   11 ar
  11    7   33 1
  12    8    9 ar
  13    8   34 1
  14    9   10 ar
  15    9   35 1
  16   10   11 ar
  17   10   12 1
  18   11   16 1
  19   12   13 1
  20   13   14 1
  21   13   15 1
  22   13   36 1
  23   14   37 1
  24   14   38 1
  25   14   39 1
  26   15   40 1
  27   15   41 1
  28   15   42 1
  29   16   17 3
  30   18   19 ar
  31   18   23 ar
  32   19   20 ar
  33   19   24 1
  34   20   21 ar
  35   20   26 1
  36   21   22 ar
  37   21   43 1
  38   22   23 ar
  39   22   44 1
  40   23   45 1
  41   24   25 1
  42   24   46 1
  43   24   47 1
  44   25   26 1
  45   25   48 1
  46   25   49 1
  47   26   27 1
  48   26   50 1
  49   27   28 am
  50   27   51 1
  51   28   29 2
  52   28   30 am
  53   30   31 1
  54   30   32 1
  55   31   52 1
  56   31   53 1
  57   31   54 1
  58   32   55 1
  59   32   56 1
  60   32   57 1

#	End of record

