#	Name: ASD04910084
#	Creating user name:	WinNT
#	Creation time:	15. 06. 2019 20:55

#	Modifying user name:	WinNT
#	Modification time:	15. 06. 2019 20:55

#	Program:	/corina/corina34_cracker 3.40 0067  02.08.2006

@<TRIPOS>MOLECULE
ASD04910084
  41   42    0    0    0
SMALL
NO_CHARGES


@<TRIPOS>ATOM
   1 C1            -0.1629     1.4793     0.1048 C.2     
   2 C2            -0.1036     0.0037     0.0682 C.ar    
   3 C3             1.1302    -0.6474     0.0100 C.ar    
   4 C4             1.1783    -2.0256    -0.0235 C.ar    
   5 C5             0.0075    -2.7626    -0.0001 C.ar    
   6 C6            -1.2186    -2.1238     0.0570 C.ar    
   7 C7            -1.2810    -0.7464     0.0973 C.ar    
   8 O8             0.8632     2.1291     0.0844 O.2     
   9 O9            -1.3551     2.1045     0.1553 O.3     
  10 C10            0.0679    -4.2679    -0.0375 C.3     
  11 C11           -0.1124    -4.8209     1.3776 C.3     
  12 C12            0.0729    -6.3395     1.3592 C.3     
  13 C13           -0.1074    -6.8925     2.7743 C.3     
  14 O14           -0.9737    -4.7657    -0.8798 O.3     
  15 C15           -0.7107    -5.8993    -1.5818 C.ar    
  16 C16           -1.7038    -6.4842    -2.3541 C.ar    
  17 C17           -1.4341    -7.6361    -3.0673 C.ar    
  18 C18           -0.1753    -8.2066    -3.0115 C.ar    
  19 C19            0.8163    -7.6252    -2.2422 C.ar    
  20 C20            0.5527    -6.4700    -1.5319 C.ar    
  21 I21            0.2298    -9.9544    -4.0932 I       
  22 C22           -1.3374     3.5560     0.1892 C.3     
  23 H23            2.0448    -0.0733    -0.0091 H       
  24 H24            2.1319    -2.5304    -0.0685 H       
  25 H25           -2.1287    -2.7051     0.0743 H       
  26 H26           -2.2384    -0.2491     0.1468 H       
  27 H27            1.0346    -4.5831    -0.4303 H       
  28 H28            0.6280    -4.3725     2.0400 H       
  29 H29           -1.1134    -4.5813     1.7365 H       
  30 H30           -0.6676    -6.7879     0.6968 H       
  31 H31            1.0738    -6.5791     1.0003 H       
  32 H32            0.0246    -7.9744     2.7612 H       
  33 H33            0.6330    -6.4441     3.4367 H       
  34 H34           -1.1084    -6.6529     3.1332 H       
  35 H35           -2.6870    -6.0395    -2.3974 H       
  36 H36           -2.2069    -8.0918    -3.6686 H       
  37 H37            1.7983    -8.0725    -2.1997 H       
  38 H38            1.3284    -6.0141    -0.9345 H       
  39 H39           -0.7927     3.8923     1.0714 H       
  40 H40           -0.8460     3.9343    -0.7072 H       
  41 H41           -2.3600     3.9310     0.2287 H       
@<TRIPOS>BOND
   1    1    2 1
   2    1    8 2
   3    1    9 1
   4    2    3 ar
   5    2    7 ar
   6    3    4 ar
   7    3   23 1
   8    4    5 ar
   9    4   24 1
  10    5    6 ar
  11    5   10 1
  12    6    7 ar
  13    6   25 1
  14    7   26 1
  15    9   22 1
  16   10   11 1
  17   10   14 1
  18   10   27 1
  19   11   12 1
  20   11   28 1
  21   11   29 1
  22   12   13 1
  23   12   30 1
  24   12   31 1
  25   13   32 1
  26   13   33 1
  27   13   34 1
  28   14   15 1
  29   15   16 ar
  30   15   20 ar
  31   16   17 ar
  32   16   35 1
  33   17   18 ar
  34   17   36 1
  35   18   19 ar
  36   18   21 1
  37   19   20 ar
  38   19   37 1
  39   20   38 1
  40   22   39 1
  41   22   40 1
  42   22   41 1

#	End of record

