#	Name: ASD01840315
#	Creating user name:	WinNT
#	Creation time:	15. 06. 2019 19:37

#	Modifying user name:	WinNT
#	Modification time:	15. 06. 2019 19:37

#	Program:	/corina/corina34_cracker 3.40 0067  02.08.2006

@<TRIPOS>MOLECULE
ASD01840315
  59   64    0    0    0
SMALL
NO_CHARGES


@<TRIPOS>ATOM
   1 C1            -0.0187     1.5258     0.0104 C.3     
   2 C2             0.0021    -0.0041     0.0020 C.3     
   3 C3            -1.4281    -0.5471    -0.0221 C.3     
   4 N4            -2.1174    -0.0544    -1.2173 N.pl3   
   5 C5            -2.7311    -0.8154    -2.1460 C.2     
   6 C6            -3.2461     0.0231    -3.0920 C.2     
   7 C7            -2.9256     1.3411    -2.7108 C.2     
   8 N8            -2.2578     1.2881    -1.5889 N.2     
   9 C9            -4.0044    -0.3799    -4.3017 C.ar    
  10 C10           -3.5111    -1.3724    -5.1505 C.ar    
  11 C11           -4.2548    -1.7145    -6.2666 C.ar    
  12 C12           -5.4578    -1.0686    -6.5090 C.ar    
  13 F13           -6.1838    -1.4030    -7.5982 F       
  14 N14           -5.9053    -0.1333    -5.6934 N.ar    
  15 C15           -5.2320     0.2258    -4.6085 C.ar    
  16 C16           -5.7773     1.2773    -3.7177 C.ar    
  17 C17           -5.5705     1.2003    -2.3402 C.ar    
  18 C18           -6.0784     2.1803    -1.5078 C.ar    
  19 C19           -6.7894     3.2347    -2.0352 C.ar    
  20 C20           -7.4594     4.4372    -1.4175 C.3     
  21 N21           -8.0530     5.1920    -2.5267 N.am    
  22 C22           -8.8080     6.4411    -2.4008 C.3     
  23 C23           -9.1723     7.1795    -3.6904 C.3     
  24 C24          -10.2552     6.4450    -2.8974 C.3     
  25 C25           -7.7898     4.5493    -3.6774 C.2     
  26 O26           -8.1469     4.9213    -4.7782 O.2     
  27 C27           -7.0058     3.3271    -3.4134 C.ar    
  28 C28           -6.4905     2.3442    -4.2566 C.ar    
  29 C29            0.7833    -0.5152    -1.2261 C.3     
  30 C30            2.2135    -0.7684    -0.6880 C.3     
  31 C31            1.9501    -1.3392     0.7276 C.3     
  32 C32            0.7439    -0.5280     1.2442 C.3     
  33 H33            1.0039     1.9031     0.0027 H       
  34 H34           -0.5459     1.8868    -0.8726 H       
  35 H35           -0.5289     1.8773     0.9072 H       
  36 H36           -1.4028    -1.6367    -0.0406 H       
  37 H37           -1.9595    -0.2110     0.8682 H       
  38 H38           -2.8018    -1.8931    -2.1424 H       
  39 H39           -3.1899     2.2390    -3.2496 H       
  40 H40           -2.5712    -1.8615    -4.9415 H       
  41 H41           -3.9008    -2.4781    -6.9434 H       
  42 H42           -5.0134     0.3741    -1.9236 H       
  43 H43           -5.9174     2.1185    -0.4417 H       
  44 H44           -8.2368     4.1175    -0.7236 H       
  45 H45           -6.7229     5.0509    -0.8987 H       
  46 H46           -8.5754     7.0447    -1.5234 H       
  47 H47           -9.1792     8.2691    -3.6617 H       
  48 H48           -8.8502     6.7359    -4.6325 H       
  49 H49          -10.6455     5.5182    -3.3178 H       
  50 H50          -10.9745     7.0514    -2.3470 H       
  51 H51           -6.6475     2.4080    -5.3232 H       
  52 H52            0.3460    -1.4418    -1.5978 H       
  53 H53            0.7992     0.2417    -2.0102 H       
  54 H54            2.7358    -1.4975    -1.3075 H       
  55 H55            2.7752     0.1639    -0.6302 H       
  56 H56            1.7011    -2.3989     0.6713 H       
  57 H57            2.8174    -1.1837     1.3691 H       
  58 H58            1.0891     0.3076     1.8530 H       
  59 H59            0.0853    -1.1698     1.8293 H       
@<TRIPOS>BOND
   1    1    2 1
   2    1   33 1
   3    1   34 1
   4    1   35 1
   5    2   32 1
   6    2    3 1
   7    2   29 1
   8    3    4 1
   9    3   36 1
  10    3   37 1
  11    4    8 1
  12    4    5 1
  13    5    6 2
  14    5   38 1
  15    6    7 1
  16    6    9 1
  17    7    8 2
  18    7   39 1
  19    9   15 ar
  20    9   10 ar
  21   10   11 ar
  22   10   40 1
  23   11   12 ar
  24   11   41 1
  25   12   13 1
  26   12   14 ar
  27   14   15 ar
  28   15   16 1
  29   16   28 ar
  30   16   17 ar
  31   17   18 ar
  32   17   42 1
  33   18   19 ar
  34   18   43 1
  35   19   27 ar
  36   19   20 1
  37   20   21 1
  38   20   44 1
  39   20   45 1
  40   21   22 1
  41   21   25 am
  42   22   24 1
  43   22   23 1
  44   22   46 1
  45   23   24 1
  46   23   47 1
  47   23   48 1
  48   24   49 1
  49   24   50 1
  50   25   26 2
  51   25   27 1
  52   27   28 ar
  53   28   51 1
  54   29   30 1
  55   29   52 1
  56   29   53 1
  57   30   31 1
  58   30   54 1
  59   30   55 1
  60   31   32 1
  61   31   56 1
  62   31   57 1
  63   32   58 1
  64   32   59 1

#	End of record

