#	Name: ASD00111119
#	Creating user name:	WinNT
#	Creation time:	15. 06. 2019 18:31

#	Modifying user name:	WinNT
#	Modification time:	15. 06. 2019 18:31

#	Program:	/corina/corina34_cracker 3.40 0067  02.08.2006

@<TRIPOS>MOLECULE
ASD00111119
  33   34    0    0    0
SMALL
NO_CHARGES


@<TRIPOS>ATOM
   1 N1             0.2934     1.5590     0.0548 N.am    
   2 C2             0.1637     0.1069    -0.0171 C.3     
   3 C3             0.6302    -0.5204     1.3012 C.3     
   4 C4             2.1404    -0.6030     1.2904 C.ar    
   5 C5             2.8972     0.5386     1.3933 C.ar    
   6 C6             2.2273     1.8889     1.5185 C.3     
   7 C7             1.5783     2.2409     0.1753 C.3     
   8 C8             4.2779     0.4631     1.3844 C.ar    
   9 C9             4.8984    -0.7731     1.2707 C.ar    
  10 C10            4.1321    -1.9245     1.1665 C.ar    
  11 C11            2.7528    -1.8391     1.1764 C.ar    
  12 C12            0.1720     0.3491     2.4739 C.3     
  13 O13            6.2549    -0.8552     1.2611 O.3     
  14 C14           -0.8269     2.3063     0.0020 C.2     
  15 O15           -1.9094     1.7697    -0.1030 O.2     
  16 C16           -0.7344     3.8088     0.0732 C.3     
  17 F17           -2.0185     4.3591    -0.0005 F       
  18 F18           -0.1356     4.1824     1.2811 F       
  19 F19            0.0368     4.2797    -0.9948 F       
  20 H20           -0.8792    -0.1556    -0.1945 H       
  21 H21            0.7762    -0.2717    -0.8354 H       
  22 H22            0.2098    -1.5213     1.3989 H       
  23 H23            1.4628     1.8474     2.2942 H       
  24 H24            2.9709     2.6437     1.7744 H       
  25 H25            2.2332     1.9264    -0.6373 H       
  26 H26            1.4236     3.3184     0.1188 H       
  27 H27            4.8708     1.3622     1.4652 H       
  28 H28            4.6131    -2.8874     1.0772 H       
  29 H29            2.1543    -2.7344     1.0951 H       
  30 H30           -0.7894    -0.0115     2.8396 H       
  31 H31            0.9088     0.2958     3.2753 H       
  32 H32            0.0702     1.3823     2.1420 H       
  33 H33            6.6489    -0.9592     2.1380 H       
@<TRIPOS>BOND
   1    1    2 1
   2    1    7 1
   3    1   14 am
   4    2    3 1
   5    2   20 1
   6    2   21 1
   7    3    4 1
   8    3   12 1
   9    3   22 1
  10    4    5 ar
  11    4   11 ar
  12    5    6 1
  13    5    8 ar
  14    6    7 1
  15    6   23 1
  16    6   24 1
  17    7   25 1
  18    7   26 1
  19    8    9 ar
  20    8   27 1
  21    9   10 ar
  22    9   13 1
  23   10   11 ar
  24   10   28 1
  25   11   29 1
  26   12   30 1
  27   12   31 1
  28   12   32 1
  29   13   33 1
  30   14   15 2
  31   14   16 1
  32   16   17 1
  33   16   18 1
  34   16   19 1

#	End of record

