#	Name: ASD01914769
#	Creating user name:	WinNT
#	Creation time:	15. 06. 2019 20:04

#	Modifying user name:	WinNT
#	Modification time:	15. 06. 2019 20:04

#	Program:	/corina/corina34_cracker 3.40 0067  02.08.2006

@<TRIPOS>MOLECULE
ASD01914769
  47   49    0    0    0
SMALL
NO_CHARGES


@<TRIPOS>ATOM
   1 C1            -0.0178     1.4608     0.0101 C.3     
   2 N2             0.0021    -0.0041     0.0020 N.pl3   
   3 C3            -1.0692    -0.7130     0.5147 C.ar    
   4 N4            -1.0308    -2.0381     0.4977 N.ar    
   5 N5            -2.1014    -0.0475     1.0135 N.ar    
   6 C6            -3.1435    -0.6867     1.5128 C.ar    
   7 C7            -3.1462    -2.0879     1.5097 C.ar    
   8 C8            -2.0327    -2.7519     0.9777 C.ar    
   9 C9            -4.2550    -2.8220     2.0410 C.1     
  10 C10           -5.1641    -3.4238     2.4765 C.1     
  11 C11           -6.2730    -4.1578     3.0077 C.ar    
  12 C12           -6.2599    -5.5551     2.9970 C.ar    
  13 C13           -7.3314    -6.2553     3.5104 C.ar    
  14 C14           -8.4180    -5.5775     4.0348 C.ar    
  15 C15           -8.4381    -4.1939     4.0488 C.ar    
  16 C16           -7.3710    -3.4803     3.5446 C.ar    
  17 C17            1.4176     1.9904    -0.0008 C.3     
  18 C18           -0.7578     1.9676    -1.2295 C.3     
  19 C19           -0.7785     3.4974    -1.2210 C.3     
  20 C20            0.6569     4.0270    -1.2319 C.3     
  21 C21            1.3968     3.5202     0.0076 C.3     
  22 O22            0.6375     5.4559    -1.2240 O.3     
  23 C23            0.6807     4.0136     1.2664 C.3     
  24 C24            2.8322     4.0498    -0.0032 C.3     
  25 H25           -0.5280     1.8123     0.9069 H       
  26 H26            0.7665    -0.4767    -0.3629 H       
  27 H27           -3.9808    -0.1378     1.9178 H       
  28 H28           -1.9964    -3.8311     0.9566 H       
  29 H29           -5.4128    -6.0854     2.5874 H       
  30 H30           -7.3227    -7.3353     3.5028 H       
  31 H31           -9.2546    -6.1311     4.4348 H       
  32 H32           -9.2896    -3.6717     4.4593 H       
  33 H33           -7.3880    -2.4005     3.5562 H       
  34 H34            1.9448     1.6293     0.8823 H       
  35 H35            1.9278     1.6388    -0.8976 H       
  36 H36           -0.2476     1.6161    -2.1262 H       
  37 H37           -1.7804     1.5903    -1.2217 H       
  38 H38           -1.3057     3.8585    -2.1041 H       
  39 H39           -1.2887     3.8490    -0.3242 H       
  40 H40            1.1670     3.6755    -2.1287 H       
  41 H41            0.1832     5.8472    -1.9827 H       
  42 H42           -0.3419     3.6363     1.2742 H       
  43 H43            1.2079     3.6525     2.1495 H       
  44 H44            0.6659     5.1035     1.2724 H       
  45 H45            2.8174     5.1397     0.0028 H       
  46 H46            3.3594     3.6887     0.8798 H       
  47 H47            3.3424     3.6983    -0.9000 H       
@<TRIPOS>BOND
   1    1    2 1
   2    1   17 1
   3    1   18 1
   4    1   25 1
   5    2    3 1
   6    2   26 1
   7    3    4 ar
   8    3    5 ar
   9    4    8 ar
  10    5    6 ar
  11    6    7 ar
  12    6   27 1
  13    7    8 ar
  14    7    9 1
  15    8   28 1
  16    9   10 3
  17   10   11 1
  18   11   12 ar
  19   11   16 ar
  20   12   13 ar
  21   12   29 1
  22   13   14 ar
  23   13   30 1
  24   14   15 ar
  25   14   31 1
  26   15   16 ar
  27   15   32 1
  28   16   33 1
  29   17   21 1
  30   17   34 1
  31   17   35 1
  32   18   19 1
  33   18   36 1
  34   18   37 1
  35   19   20 1
  36   19   38 1
  37   19   39 1
  38   20   21 1
  39   20   22 1
  40   20   40 1
  41   21   23 1
  42   21   24 1
  43   22   41 1
  44   23   42 1
  45   23   43 1
  46   23   44 1
  47   24   45 1
  48   24   46 1
  49   24   47 1

#	End of record

