#	Name: ASD01914313
#	Creating user name:	WinNT
#	Creation time:	15. 06. 2019 20:03

#	Modifying user name:	WinNT
#	Modification time:	15. 06. 2019 20:03

#	Program:	/corina/corina34_cracker 3.40 0067  02.08.2006

@<TRIPOS>MOLECULE
ASD01914313
  56   60    0    0    0
SMALL
NO_CHARGES


@<TRIPOS>ATOM
   1 C1            -0.0597     1.5369     0.2072 C.2     
   2 C2            -0.0158     0.0434     0.0111 C.3     
   3 N3             1.0857     2.2466     0.2366 N.am    
   4 C4             1.0655     3.7049     0.4268 C.3     
   5 C5             2.0295     4.0609     1.5636 C.3     
   6 N6             3.3523     3.4903     1.2764 N.3     
   7 C7             3.3009     2.0229     1.2298 C.3     
   8 C8             2.3894     1.5826     0.0854 C.3     
   9 C9             4.2903     3.9247     2.1967 C.ar    
  10 N10            5.5432     3.5072     2.0894 N.ar    
  11 C11            6.4641     3.9034     2.9523 C.ar    
  12 C12            6.1047     4.7650     3.9768 C.ar    
  13 C13            4.7856     5.1822     4.0596 C.ar    
  14 N14            3.9153     4.7525     3.1608 N.ar    
  15 C15           -2.2082    -0.6066    -1.0622 C.2     
  16 N16           -3.3456    -1.1277    -0.6632 N.2     
  17 C17           -3.2857    -1.3586     0.6608 C.2     
  18 C18           -2.0609    -0.9648     1.1025 C.2     
  19 N19           -1.3802    -0.4901     0.0164 N.pl3   
  20 C20           -1.8773    -0.2167    -2.4501 C.ar    
  21 C21           -0.8262     0.6668    -2.6981 C.ar    
  22 C22           -0.5223     1.0261    -3.9950 C.ar    
  23 C23           -1.2573     0.5124    -5.0486 C.ar    
  24 C24           -2.3010    -0.3637    -4.8094 C.ar    
  25 C25           -2.6113    -0.7354    -3.5175 C.ar    
  26 C26           -4.3668    -1.9411     1.4937 C.ar    
  27 C27           -5.5796    -2.3037     0.9109 C.ar    
  28 C28           -6.5820    -2.8455     1.6891 C.ar    
  29 C29           -6.3843    -3.0287     3.0480 C.ar    
  30 C30           -5.1804    -2.6692     3.6317 C.ar    
  31 C31           -4.1703    -2.1325     2.8599 C.ar    
  32 F32           -7.3686    -3.5591     3.8063 F       
  33 O33           -1.1259     2.1009     0.3335 O.2     
  34 H34            0.4595    -0.1840    -0.9431 H       
  35 H35            0.5558    -0.4126     0.8195 H       
  36 H36            1.3840     4.1984    -0.4914 H       
  37 H37            0.0572     4.0262     0.6877 H       
  38 H38            2.1109     5.1448     1.6454 H       
  39 H39            1.6528     3.6523     2.5013 H       
  40 H40            4.3044     1.6287     1.0695 H       
  41 H41            2.9065     1.6426     2.1721 H       
  42 H42            2.2558     0.5014     0.1207 H       
  43 H43            2.8376     1.8681    -0.8662 H       
  44 H44            7.4837     3.5593     2.8599 H       
  45 H45            6.8366     5.1038     4.6951 H       
  46 H46            4.4729     5.8531     4.8460 H       
  47 H47           -1.6960    -1.0171     2.1177 H       
  48 H48           -0.2519     1.0688    -1.8765 H       
  49 H49            0.2908     1.7102    -4.1882 H       
  50 H50           -1.0155     0.7967    -6.0620 H       
  51 H51           -2.8712    -0.7610    -5.6361 H       
  52 H52           -3.4234    -1.4229    -3.3324 H       
  53 H53           -5.7348    -2.1606    -0.1483 H       
  54 H54           -7.5222    -3.1268     1.2382 H       
  55 H55           -5.0308    -2.8131     4.6915 H       
  56 H56           -3.2303    -1.8570     3.3149 H       
@<TRIPOS>BOND
   1    1    2 1
   2    1    3 am
   3    1   33 2
   4    2   19 1
   5    2   34 1
   6    2   35 1
   7    3    4 1
   8    3    8 1
   9    4    5 1
  10    4   36 1
  11    4   37 1
  12    5    6 1
  13    5   38 1
  14    5   39 1
  15    6    7 1
  16    6    9 1
  17    7    8 1
  18    7   40 1
  19    7   41 1
  20    8   42 1
  21    8   43 1
  22    9   10 ar
  23    9   14 ar
  24   10   11 ar
  25   11   12 ar
  26   11   44 1
  27   12   13 ar
  28   12   45 1
  29   13   14 ar
  30   13   46 1
  31   15   16 2
  32   15   19 1
  33   15   20 1
  34   16   17 1
  35   17   18 2
  36   17   26 1
  37   18   19 1
  38   18   47 1
  39   20   21 ar
  40   20   25 ar
  41   21   22 ar
  42   21   48 1
  43   22   23 ar
  44   22   49 1
  45   23   24 ar
  46   23   50 1
  47   24   25 ar
  48   24   51 1
  49   25   52 1
  50   26   27 ar
  51   26   31 ar
  52   27   28 ar
  53   27   53 1
  54   28   29 ar
  55   28   54 1
  56   29   30 ar
  57   29   32 1
  58   30   31 ar
  59   30   55 1
  60   31   56 1

#	End of record

