#	Name: ASD01900169
#	Creating user name:	WinNT
#	Creation time:	15. 06. 2019 19:51

#	Modifying user name:	WinNT
#	Modification time:	15. 06. 2019 19:51

#	Program:	/corina/corina34_cracker 3.40 0067  02.08.2006

@<TRIPOS>MOLECULE
ASD01900169
  30   33    0    0    0
SMALL
NO_CHARGES


@<TRIPOS>ATOM
   1 N1            -0.0169     1.3936     0.0097 N.pl3   
   2 C2            -0.9187    -0.8355    -0.2606 C.ar    
   3 C3             0.0734     0.0137     0.2138 C.ar    
   4 C4             1.1594    -0.5304     0.8953 C.ar    
   5 C5             1.2043    -1.9037     1.0722 C.ar    
   6 C6             0.1785    -2.6830     0.5707 C.ar    
   7 N7            -0.8366    -2.1370    -0.0704 N.ar    
   8 N8             2.3460     1.6883    -0.1066 N.2     
   9 C9             1.1364     2.1571    -0.0859 C.2     
  10 S10            1.1869     3.9139    -0.1980 S.3     
  11 C11            2.9411     3.8647    -0.2735 C.2     
  12 C12            3.8837     5.0304    -0.4109 C.3     
  13 C13            5.2148     4.7756     0.2960 C.3     
  14 C14            5.7011     3.3762     0.0275 C.2     
  15 N15            6.9065     2.9058    -0.0464 N.2     
  16 N16            6.8343     1.5265    -0.3013 N.pl3   
  17 C17            5.5265     1.1774    -0.3851 C.2     
  18 C18            4.8064     2.2925    -0.1952 C.2     
  19 C19            3.3350     2.5593    -0.1958 C.2     
  20 H20           -0.8863     1.8164    -0.0690 H       
  21 H21           -1.7677    -0.4246    -0.7866 H       
  22 H22            1.9472     0.1026     1.2762 H       
  23 H23            2.0314    -2.3603     1.5955 H       
  24 H24            0.2089    -3.7541     0.7056 H       
  25 H25            4.0730     5.2105    -1.4691 H       
  26 H26            3.4172     5.9162     0.0201 H       
  27 H27            5.9556     5.4886    -0.0658 H       
  28 H28            5.0827     4.9099     1.3696 H       
  29 H29            7.5901     0.9267    -0.4009 H       
  30 H30            5.1378     0.1870    -0.5704 H       
@<TRIPOS>BOND
   1    1    3 1
   2    1    9 1
   3    1   20 1
   4    2    3 ar
   5    2    7 ar
   6    2   21 1
   7    3    4 ar
   8    4    5 ar
   9    4   22 1
  10    5    6 ar
  11    5   23 1
  12    6    7 ar
  13    6   24 1
  14    8    9 2
  15    8   19 1
  16    9   10 1
  17   10   11 1
  18   11   12 1
  19   11   19 2
  20   12   13 1
  21   12   25 1
  22   12   26 1
  23   13   14 1
  24   13   27 1
  25   13   28 1
  26   14   15 2
  27   14   18 1
  28   15   16 1
  29   16   17 1
  30   16   29 1
  31   17   18 2
  32   17   30 1
  33   18   19 1

#	End of record

