#	Name: ASD02448133
#	Creating user name:	WinNT
#	Creation time:	15. 06. 2019 20:21

#	Modifying user name:	WinNT
#	Modification time:	15. 06. 2019 20:21

#	Program:	/corina/corina34_cracker 3.40 0067  02.08.2006

@<TRIPOS>MOLECULE
ASD02448133
  85   91    0    0    0
SMALL
NO_CHARGES


@<TRIPOS>ATOM
   1 C1            -0.0482    -6.5832     3.1351 C.ar    
   2 C2             0.4380    -5.4516     2.5092 C.ar    
   3 C3             0.3486    -5.3268     1.1286 C.ar    
   4 C4            -0.2294    -6.3395     0.3780 C.ar    
   5 C5            -0.7172    -7.4755     1.0094 C.ar    
   6 C6            -0.6249    -7.5942     2.3906 C.ar    
   7 N7            -1.3006    -8.4975     0.2571 N.am    
   8 C8            -1.4126    -9.9208     0.6019 C.3     
   9 C9            -2.1093   -10.6878    -0.4754 C.2     
  10 N10           -2.4928    -9.9536    -1.5293 N.am    
  11 S11           -2.0363    -8.3799    -1.2357 S.o2    
  12 O12           -2.3114   -11.8814    -0.4019 O.2     
  13 O13           -3.2267    -7.6227    -1.0661 O.2     
  14 O14           -1.0178    -8.0571    -2.1726 O.2     
  15 N15            0.8420    -4.1777     0.4947 N.pl3   
  16 C16            1.7723    -4.1405    -0.5095 C.2     
  17 C17            0.4816    -2.8942     0.7585 C.2     
  18 N18            1.1495    -2.0984    -0.0291 N.2     
  19 C19            1.9549    -2.8317    -0.8243 C.2     
  20 C20            2.8770    -2.3027    -1.8592 C.ar    
  21 C21            2.9662    -0.9288    -2.0806 C.ar    
  22 C22            3.6613    -3.1768    -2.6095 C.ar    
  23 C23            4.5177    -2.6801    -3.5707 C.ar    
  24 C24            4.5992    -1.3155    -3.7908 C.ar    
  25 C25            3.8267    -0.4420    -3.0452 C.ar    
  26 C26           -0.5260    -2.4615     1.7922 C.3     
  27 C27           -1.8701    -2.2754     1.1365 C.ar    
  28 C28           -2.7140    -3.3595     0.9752 C.ar    
  29 C29           -2.2576    -1.0202     0.7034 C.ar    
  30 C30           -3.4878    -0.8438     0.1031 C.ar    
  31 C31           -4.3399    -1.9334    -0.0668 C.ar    
  32 C32           -3.9461    -3.1949     0.3754 C.ar    
  33 C33           -5.6635    -1.7500    -0.7114 C.ar    
  34 C34           -6.5147    -2.8406    -0.8807 C.ar    
  35 C35           -6.0605    -0.4858    -1.1436 C.ar    
  36 C36           -7.2917    -0.3184    -1.7420 C.ar    
  37 C37           -8.1353    -1.4075    -1.9140 C.ar    
  38 C38           -7.7447    -2.6670    -1.4798 C.ar    
  39 Cl39           5.6793    -0.6976    -5.0012 Cl      
  40 Cl40           1.9972     0.1674    -1.1462 Cl      
  41 O41           -9.3479    -1.2394    -2.5036 O.3     
  42 C42          -10.1653    -2.4025    -2.6490 C.3     
  43 C43          -11.4814    -2.0191    -3.3285 C.3     
  44 C44          -12.3566    -3.2643    -3.4843 C.3     
  45 C45          -13.7204    -2.8618    -4.0489 C.3     
  46 C46          -11.6788    -4.2477    -4.4406 C.3     
  47 C47          -12.5540    -5.4930    -4.5963 C.3     
  48 C48          -13.9179    -5.0904    -5.1610 C.3     
  49 C49          -14.5957    -4.1070    -4.2047 C.3     
  50 H50            0.0266    -6.6797     4.2081 H       
  51 H51            0.8878    -4.6630     3.0940 H       
  52 H52           -0.3003    -6.2444    -0.6954 H       
  53 H53           -1.0038    -8.4778     2.8826 H       
  54 H54           -0.4138   -10.3331     0.7449 H       
  55 H55           -1.9740   -10.0199     1.5309 H       
  56 H56           -2.9548   -10.2792    -2.3176 H       
  57 H57            2.2655    -4.9875    -0.9631 H       
  58 H58            3.5991    -4.2414    -2.4388 H       
  59 H59            5.1260    -3.3570    -4.1522 H       
  60 H60            3.8936     0.6215    -3.2209 H       
  61 H61           -0.6022    -3.2244     2.5670 H       
  62 H62           -0.2065    -1.5202     2.2393 H       
  63 H63           -2.4081    -4.3365     1.3189 H       
  64 H64           -1.5965    -0.1765     0.8356 H       
  65 H65           -3.7897     0.1368    -0.2340 H       
  66 H66           -4.6024    -4.0428     0.2460 H       
  67 H67           -6.2113    -3.8207    -0.5434 H       
  68 H68           -5.4049     0.3618    -1.0097 H       
  69 H69           -7.6000     0.6610    -2.0768 H       
  70 H70           -8.4030    -3.5124    -1.6150 H       
  71 H71           -9.6429    -3.1398    -3.2587 H       
  72 H72          -10.3735    -2.8254    -1.6663 H       
  73 H73          -12.0038    -1.2818    -2.7189 H       
  74 H74          -11.2732    -1.5961    -4.3113 H       
  75 H75          -12.4914    -3.7377    -2.5117 H       
  76 H76          -14.2033    -2.1612    -3.3677 H       
  77 H77          -13.5857    -2.3884    -5.0215 H       
  78 H78          -11.5441    -3.7744    -5.4131 H       
  79 H79          -10.7072    -4.5345    -4.0383 H       
  80 H80          -12.0712    -6.1936    -5.2776 H       
  81 H81          -12.6888    -5.9663    -3.6237 H       
  82 H82          -13.7831    -4.6171    -6.1335 H       
  83 H83          -14.5414    -5.9776    -5.2719 H       
  84 H84          -14.7304    -4.5804    -3.2321 H       
  85 H85          -15.5673    -3.8202    -4.6070 H       
@<TRIPOS>BOND
   1    1    2 ar
   2    1    6 ar
   3    1   50 1
   4    2    3 ar
   5    2   51 1
   6    3    4 ar
   7    3   15 1
   8    4    5 ar
   9    4   52 1
  10    5    6 ar
  11    5    7 1
  12    6   53 1
  13    7    8 1
  14    7   11 am
  15    8    9 1
  16    8   54 1
  17    8   55 1
  18    9   10 am
  19    9   12 2
  20   10   11 am
  21   10   56 1
  22   11   13 2
  23   11   14 2
  24   15   16 1
  25   15   17 1
  26   16   19 2
  27   16   57 1
  28   17   18 2
  29   17   26 1
  30   18   19 1
  31   19   20 1
  32   20   21 ar
  33   20   22 ar
  34   21   40 1
  35   21   25 ar
  36   22   23 ar
  37   22   58 1
  38   23   24 ar
  39   23   59 1
  40   24   25 ar
  41   24   39 1
  42   25   60 1
  43   26   27 1
  44   26   61 1
  45   26   62 1
  46   27   28 ar
  47   27   29 ar
  48   28   32 ar
  49   28   63 1
  50   29   30 ar
  51   29   64 1
  52   30   31 ar
  53   30   65 1
  54   31   32 ar
  55   31   33 1
  56   32   66 1
  57   33   34 ar
  58   33   35 ar
  59   34   38 ar
  60   34   67 1
  61   35   36 ar
  62   35   68 1
  63   36   37 ar
  64   36   69 1
  65   37   38 ar
  66   37   41 1
  67   38   70 1
  68   41   42 1
  69   42   43 1
  70   42   71 1
  71   42   72 1
  72   43   44 1
  73   43   73 1
  74   43   74 1
  75   44   45 1
  76   44   46 1
  77   44   75 1
  78   45   49 1
  79   45   76 1
  80   45   77 1
  81   46   47 1
  82   46   78 1
  83   46   79 1
  84   47   48 1
  85   47   80 1
  86   47   81 1
  87   48   49 1
  88   48   82 1
  89   48   83 1
  90   49   84 1
  91   49   85 1

#	End of record

