#	Name: ASD00451014
#	Creating user name:	WinNT
#	Creation time:	15. 06. 2019 18:36

#	Modifying user name:	WinNT
#	Modification time:	15. 06. 2019 18:36

#	Program:	/corina/corina34_cracker 3.40 0067  02.08.2006

@<TRIPOS>MOLECULE
ASD00451014
  48   51    0    0    0
SMALL
NO_CHARGES


@<TRIPOS>ATOM
   1 C1             0.0060     1.4671    -0.1675 C.ar    
   2 C2             0.0305     0.0808    -0.2363 C.ar    
   3 N3             1.2067     2.1890    -0.1438 N.am    
   4 C4            -1.2090     2.1384    -0.1279 C.ar    
   5 C5            -1.1532    -0.6303    -0.2596 C.ar    
   6 C6             2.2875     1.6789     0.4790 C.2     
   7 C7            -2.3918     1.4269    -0.1570 C.ar    
   8 C8            -2.3666     0.0406    -0.2142 C.ar    
   9 O9             2.1949     0.6404     1.1048 O.2     
  10 N10            3.4710     2.3198     0.4084 N.am    
  11 O11           -3.5316    -0.6596    -0.2433 O.3     
  12 C12            4.5612     1.8611     1.1572 C.ar    
  13 C13           -3.9215    -1.2959     0.8913 C.ar    
  14 C14            5.8566     2.1152     0.7270 C.ar    
  15 C15            4.3489     1.1561     2.3348 C.ar    
  16 C16           -5.1487    -1.9506     0.9593 C.ar    
  17 C17           -3.1025    -1.3170     2.0181 C.ar    
  18 C18            6.9306     1.6614     1.4677 C.ar    
  19 C19            5.4261     0.7047     3.0716 C.ar    
  20 N20           -6.1919    -2.1361     0.0544 N.am    
  21 C21           -5.5156    -2.5936     2.1418 C.ar    
  22 C22           -3.5336    -1.9742     3.1529 C.ar    
  23 C23            6.7163     0.9539     2.6373 C.ar    
  24 C24           -7.1506    -2.8608     0.6625 C.2     
  25 N25           -6.7715    -3.1456     1.9221 N.am    
  26 N26           -4.7047    -2.5812     3.1890 N.ar    
  27 Cl27           8.0683     0.3846     3.5656 Cl      
  28 O28           -8.2024    -3.2000     0.1531 O.2     
  29 H29            1.2600     3.0559    -0.5758 H       
  30 H30            3.5674     3.0989    -0.1614 H       
  31 H31           -6.2225    -1.8012    -0.8555 H       
  32 H32           -7.2863    -3.6558     2.5667 H       
  33 C33           -1.2365     3.6433    -0.0527 C.3     
  34 C34            8.3369     1.9368     1.0013 C.3     
  35 F35            8.2980     2.6612    -0.1949 F       
  36 F36            9.0139     2.6796     1.9745 F       
  37 F37            9.0042     0.7253     0.7914 F       
  38 H38            0.9751    -0.4416    -0.2720 H       
  39 H39           -1.1342    -1.7088    -0.3135 H       
  40 H40           -3.3368     1.9489    -0.1262 H       
  41 H41            6.0244     2.6668    -0.1863 H       
  42 H42            3.3423     0.9613     2.6741 H       
  43 H43           -2.1412    -0.8251     2.0038 H       
  44 H44            5.2615     0.1563     3.9874 H       
  45 H45           -2.9002    -1.9922     4.0275 H       
  46 H46           -1.2482     4.0573    -1.0609 H       
  47 H47           -2.1303     3.9641     0.4823 H       
  48 H48           -0.3507     3.9969     0.4750 H       
@<TRIPOS>BOND
   1    1    2 ar
   2    1    3 1
   3    1    4 ar
   4    2    5 ar
   5    2   38 1
   6    3   29 1
   7    3    6 am
   8    4   33 1
   9    4    7 ar
  10    5    8 ar
  11    5   39 1
  12    6    9 2
  13    6   10 am
  14    7    8 ar
  15    7   40 1
  16    8   11 1
  17   10   12 1
  18   10   30 1
  19   11   13 1
  20   12   14 ar
  21   12   15 ar
  22   13   16 ar
  23   13   17 ar
  24   14   18 ar
  25   14   41 1
  26   15   19 ar
  27   15   42 1
  28   16   20 1
  29   16   21 ar
  30   17   22 ar
  31   17   43 1
  32   18   23 ar
  33   18   34 1
  34   19   23 ar
  35   19   44 1
  36   20   31 1
  37   20   24 am
  38   21   26 ar
  39   21   25 1
  40   22   26 ar
  41   22   45 1
  42   23   27 1
  43   24   25 am
  44   24   28 2
  45   25   32 1
  46   33   46 1
  47   33   47 1
  48   33   48 1
  49   34   35 1
  50   34   36 1
  51   34   37 1

#	End of record

