#	Name: ASD00990126
#	Creating user name:	WinNT
#	Creation time:	15. 06. 2019 18:54

#	Modifying user name:	WinNT
#	Modification time:	15. 06. 2019 18:54

#	Program:	/corina/corina34_cracker 3.40 0067  02.08.2006

@<TRIPOS>MOLECULE
ASD00990126
  35   38    0    0    0
SMALL
NO_CHARGES


@<TRIPOS>ATOM
   1 C1            -0.0107     1.6086     0.1114 C.3     
   2 C2            -0.0184     0.0798     0.0511 C.3     
   3 H3             0.3971    -0.2627    -0.8966 H       
   4 C4            -1.4492    -0.4537     0.2301 C.3     
   5 C5            -1.3856    -1.3000     1.4817 C.ar    
   6 C6            -2.3616    -2.0287     2.1331 C.ar    
   7 C7            -2.0519    -2.7327     3.2822 C.ar    
   8 C8            -0.7618    -2.7059     3.7786 C.ar    
   9 C9             0.2157    -1.9796     3.1322 C.ar    
  10 C10           -0.0890    -1.2665     1.9711 C.ar    
  11 N11            0.7445    -0.4769     1.1715 N.am    
  12 C12            2.0553    -0.2596     1.3971 C.2     
  13 O13            2.5745    -0.6772     2.4139 O.2     
  14 C14            2.8615     0.4864     0.4085 C.2     
  15 N15            2.4407     0.8665    -0.7500 N.2     
  16 C16            3.2832     1.5340    -1.5391 C.ar    
  17 C17            3.0620     2.0503    -2.8379 C.ar    
  18 C18            4.0516     2.7104    -3.4961 C.ar    
  19 C19            5.2985     2.8926    -2.9111 C.ar    
  20 C20            5.5464     2.4028    -1.6501 C.ar    
  21 C21            4.5454     1.7228    -0.9562 C.ar    
  22 S22            4.5297     0.9898     0.6458 S.3     
  23 H23            1.0171     1.9642     0.1835 H       
  24 H24           -0.4716     2.0101    -0.7911 H       
  25 H25           -0.5722     1.9407     0.9846 H       
  26 H26           -2.1487     0.3713     0.3641 H       
  27 H27           -1.7378    -1.0629    -0.6265 H       
  28 H28           -3.3690    -2.0483     1.7443 H       
  29 H29           -2.8158    -3.3024     3.7905 H       
  30 H30           -0.5190    -3.2555     4.6761 H       
  31 H31            1.2214    -1.9623     3.5255 H       
  32 H32            2.0997     1.9187    -3.3100 H       
  33 H33            3.8661     3.0978    -4.4870 H       
  34 H34            6.0741     3.4193    -3.4474 H       
  35 H35            6.5163     2.5450    -1.1968 H       
@<TRIPOS>BOND
   1    1    2 1
   2    1   23 1
   3    1   24 1
   4    1   25 1
   5    2    3 1
   6    2   11 1
   7    2    4 1
   8    4    5 1
   9    4   26 1
  10    4   27 1
  11    5   10 ar
  12    5    6 ar
  13    6    7 ar
  14    6   28 1
  15    7    8 ar
  16    7   29 1
  17    8    9 ar
  18    8   30 1
  19    9   10 ar
  20    9   31 1
  21   10   11 1
  22   11   12 am
  23   12   13 2
  24   12   14 1
  25   14   22 1
  26   14   15 2
  27   15   16 1
  28   16   21 ar
  29   16   17 ar
  30   17   18 ar
  31   17   32 1
  32   18   19 ar
  33   18   33 1
  34   19   20 ar
  35   19   34 1
  36   20   21 ar
  37   20   35 1
  38   21   22 1

#	End of record

