#	Name: ASD03730163
#	Creating user name:	WinNT
#	Creation time:	15. 06. 2019 20:44

#	Modifying user name:	WinNT
#	Modification time:	15. 06. 2019 20:44

#	Program:	/corina/corina34_cracker 3.40 0067  02.08.2006

@<TRIPOS>MOLECULE
ASD03730163
  40   44    0    0    0
SMALL
NO_CHARGES


@<TRIPOS>ATOM
   1 C1            -0.0184     1.5028     0.0103 C.2     
   2 C2             0.0021    -0.0041     0.0020 C.3     
   3 C3            -0.8070    -0.5316     1.1886 C.3     
   4 O4             1.0191     2.1207     0.0037 O.2     
   5 O5             3.7040    -5.4235    -1.5338 O.3     
   6 C6             4.1499    -6.7775    -1.7362 C.3     
   7 O7             3.9120    -7.4099    -0.4647 O.3     
   8 C8             2.8800    -6.7172     0.1009 C.ar    
   9 C9             2.7532    -5.4955    -0.5562 C.ar    
  10 C10            2.0238    -7.0360     1.1396 C.ar    
  11 C11            1.0337    -6.1423     1.5369 C.ar    
  12 C12            0.9223    -4.9216     0.8783 C.ar    
  13 C13            1.7704    -4.6033    -0.1618 C.ar    
  14 O14            0.0883    -6.2657     2.5121 O.3     
  15 C15           -0.2033    -4.1762     1.5442 C.3     
  16 C16           -0.4245    -4.9610     2.8445 C.3     
  17 N17           -0.7871    -1.9965     1.1805 N.am    
  18 C18            0.1449    -2.7398     1.8096 C.2     
  19 C19           -1.4408    -4.1356     0.6977 C.ar    
  20 C20           -2.2403    -5.1049     0.1342 C.ar    
  21 C21           -3.3455    -4.7424    -0.6149 C.ar    
  22 C22           -3.6449    -3.4044    -0.7967 C.ar    
  23 C23           -2.8467    -2.4298    -0.2351 C.ar    
  24 C24           -1.7324    -2.7856     0.5208 C.ar    
  25 O25            1.0811    -2.3291     2.4623 O.2     
  26 H26           -0.9609     2.0300     0.0176 H       
  27 H27           -0.4361    -0.3683    -0.9272 H       
  28 H28            1.0315    -0.3539     0.0799 H       
  29 H29           -0.3688    -0.1674     2.1178 H       
  30 H30           -1.8364    -0.1818     1.1107 H       
  31 H31            3.5653    -7.2602    -2.5193 H       
  32 H32            5.2117    -6.7984    -1.9816 H       
  33 H33            2.1243    -7.9848     1.6457 H       
  34 H34            1.6680    -3.6557    -0.6696 H       
  35 H35           -1.4853    -5.0129     3.0896 H       
  36 H36            0.1423    -4.5196     3.6642 H       
  37 H37           -2.0044    -6.1491     0.2773 H       
  38 H38           -3.9732    -5.5023    -1.0563 H       
  39 H39           -4.5077    -3.1214    -1.3816 H       
  40 H40           -3.0867    -1.3871    -0.3820 H       
@<TRIPOS>BOND
   1    1    2 1
   2    1    4 2
   3    1   26 1
   4    2    3 1
   5    2   27 1
   6    2   28 1
   7    3   17 1
   8    3   29 1
   9    3   30 1
  10    5    6 1
  11    5    9 1
  12    6    7 1
  13    6   31 1
  14    6   32 1
  15    7    8 1
  16    8    9 ar
  17    8   10 ar
  18    9   13 ar
  19   10   11 ar
  20   10   33 1
  21   11   12 ar
  22   11   14 1
  23   12   13 ar
  24   12   15 1
  25   13   34 1
  26   14   16 1
  27   15   16 1
  28   15   18 1
  29   15   19 1
  30   16   35 1
  31   16   36 1
  32   17   18 am
  33   17   24 1
  34   18   25 2
  35   19   20 ar
  36   19   24 ar
  37   20   21 ar
  38   20   37 1
  39   21   22 ar
  40   21   38 1
  41   22   23 ar
  42   22   39 1
  43   23   24 ar
  44   23   40 1

#	End of record

