#	Name: ASD01914021
#	Creating user name:	WinNT
#	Creation time:	15. 06. 2019 20:02

#	Modifying user name:	WinNT
#	Modification time:	15. 06. 2019 20:02

#	Program:	/corina/corina34_cracker 3.40 0067  02.08.2006

@<TRIPOS>MOLECULE
ASD01914021
  46   49    0    0    0
SMALL
NO_CHARGES


@<TRIPOS>ATOM
   1 C1            -0.0167     1.3779     0.0096 C.ar    
   2 C2             0.0021    -0.0041     0.0020 C.ar    
   3 C3             1.2099    -0.6820    -0.0132 C.ar    
   4 C4             2.3810     1.4110    -0.0131 C.ar    
   5 C5             1.1694     2.0866     0.0021 C.ar    
   6 O6             3.5481     2.1071    -0.0210 O.3     
   7 C7             4.7574     1.3459    -0.0367 C.3     
   8 C8             5.9394     2.2807    -0.0434 C.ar    
   9 N9             7.1608     1.7823    -0.0579 N.ar    
  10 C10            8.2272     2.5549    -0.0644 C.ar    
  11 C11            8.0971     3.9440    -0.0556 C.ar    
  12 C12            6.8134     4.5029    -0.0403 C.ar    
  13 C13            5.7258     3.6477    -0.0401 C.ar    
  14 C14            9.2945     4.8111    -0.0619 C.2     
  15 N15           10.5248     4.2611    -0.0763 N.am    
  16 O16            9.1693     6.0202    -0.0542 O.2     
  17 C17           11.7113     5.1204    -0.0825 C.3     
  18 C18            2.3995     0.0240    -0.0208 C.ar    
  19 C19           12.0639     5.5135     1.3535 C.3     
  20 F20            1.2262    -2.0329    -0.0202 F       
  21 C21           11.0114     6.2834     2.1538 C.3     
  22 C22           11.3024     4.8179     2.4836 C.3     
  23 C23           12.8855     4.3641    -0.7071 C.3     
  24 C24           12.7277     3.8822    -2.1506 C.3     
  25 C25           13.6538     5.0580    -1.8336 C.3     
  26 H26           -0.9596     1.9044     0.0169 H       
  27 H27           -0.9262    -0.5561     0.0083 H       
  28 H28            1.1533     3.1665     0.0084 H       
  29 H29            4.7998     0.7130     0.8498 H       
  30 H30            4.7825     0.7220    -0.9301 H       
  31 H31            9.2110     2.1094    -0.0762 H       
  32 H32            6.6757     5.5741    -0.0331 H       
  33 H33            4.7208     4.0429    -0.0285 H       
  34 H34           10.6247     3.2963    -0.0824 H       
  35 H35           11.5064     6.0185    -0.6652 H       
  36 H36            3.3416    -0.5040    -0.0323 H       
  37 H37           13.1106     5.7613     1.5295 H       
  38 H38           11.3658     7.0373     2.8567 H       
  39 H39           10.0678     6.5097     1.6573 H       
  40 H40           10.5502     4.0802     2.2040 H       
  41 H41           11.8482     4.6078     3.4034 H       
  42 H42           13.4539     3.7320    -0.0248 H       
  43 H43           13.1927     2.9333    -2.4181 H       
  44 H44           11.7874     4.1040    -2.6553 H       
  45 H45           13.3228     6.0534    -2.1297 H       
  46 H46           14.7280     4.8828    -1.8925 H       
@<TRIPOS>BOND
   1    1    2 ar
   2    1    5 ar
   3    1   26 1
   4    2    3 ar
   5    2   27 1
   6    3   18 ar
   7    3   20 1
   8    4    5 ar
   9    4    6 1
  10    4   18 ar
  11    5   28 1
  12    6    7 1
  13    7    8 1
  14    7   29 1
  15    7   30 1
  16    8    9 ar
  17    8   13 ar
  18    9   10 ar
  19   10   11 ar
  20   10   31 1
  21   11   12 ar
  22   11   14 1
  23   12   13 ar
  24   12   32 1
  25   13   33 1
  26   14   15 am
  27   14   16 2
  28   15   17 1
  29   15   34 1
  30   17   19 1
  31   17   23 1
  32   17   35 1
  33   18   36 1
  34   19   21 1
  35   19   22 1
  36   19   37 1
  37   21   22 1
  38   21   38 1
  39   21   39 1
  40   22   40 1
  41   22   41 1
  42   23   24 1
  43   23   25 1
  44   23   42 1
  45   24   25 1
  46   24   43 1
  47   24   44 1
  48   25   45 1
  49   25   46 1

#	End of record

