#	Name: ASD01028114
#	Creating user name:	WinNT
#	Creation time:	15. 06. 2019 18:56

#	Modifying user name:	WinNT
#	Modification time:	15. 06. 2019 18:56

#	Program:	/corina/corina34_cracker 3.40 0067  02.08.2006

@<TRIPOS>MOLECULE
ASD01028114
  38   39    0    0    0
SMALL
NO_CHARGES


@<TRIPOS>ATOM
   1 N1            -0.0180     1.4760     0.0102 N.pl3   
   2 C2             0.0021    -0.0041     0.0020 C.ar    
   3 C3             0.0229    -0.7013     1.1959 C.ar    
   4 C4             0.0251     0.0474     2.5038 C.3     
   5 C5            -0.0057    -0.6898    -1.2016 C.ar    
   6 C6             0.0132    -2.0824    -1.2057 C.ar    
   7 C7             0.0398    -2.7749    -0.0057 C.ar    
   8 C8             0.0412    -2.0833     1.1926 C.ar    
   9 O9            -0.0301    -0.2501    -2.4936 O.3     
  10 C10            0.3861    -1.3748    -3.2906 C.3     
  11 O11            0.0005    -2.5151    -2.5005 O.3     
  12 Br12           0.0649    -4.6657    -0.0058 Br      
  13 N13           -1.3419     0.4808     2.8222 N.3     
  14 C14           -1.3785     1.2157     4.0936 C.3     
  15 C15           -2.8153     1.6497     4.3907 C.3     
  16 C16           -2.8534     2.4151     5.7149 C.3     
  17 C17           -4.2901     2.8491     6.0120 C.3     
  18 C18           -4.3282     3.6145     7.3362 C.3     
  19 O19           -5.6702     4.0199     7.6137 O.3     
  20 O20            1.0284     2.0993     0.0035 O.2     
  21 O21           -1.0810     2.0706     0.0184 O.2     
  22 H22            0.3930    -0.6053     3.2955 H       
  23 H23            0.6731     0.9200     2.4218 H       
  24 H24            0.0623    -2.6242     2.1271 H       
  25 H25           -0.1342    -1.3789    -4.2484 H       
  26 H26            1.4657    -1.3598    -3.4400 H       
  27 H27           -1.7294     1.0347     2.0731 H       
  28 H28           -1.0203     0.5711     4.8963 H       
  29 H29           -0.7403     2.0964     4.0227 H       
  30 H30           -3.1735     2.2943     3.5880 H       
  31 H31           -3.4536     0.7689     4.4616 H       
  32 H32           -2.4952     1.7705     6.5176 H       
  33 H33           -2.2151     3.2958     5.6440 H       
  34 H34           -4.6483     3.4937     5.2093 H       
  35 H35           -4.9284     1.9684     6.0829 H       
  36 H36           -3.9701     2.9699     8.1389 H       
  37 H37           -3.6900     4.4953     7.2653 H       
  38 H38           -5.7695     4.5116     8.4404 H       
@<TRIPOS>BOND
   1    1    2 1
   2    1   20 2
   3    1   21 2
   4    2    3 ar
   5    2    5 ar
   6    3    4 1
   7    3    8 ar
   8    4   13 1
   9    4   22 1
  10    4   23 1
  11    5    6 ar
  12    5    9 1
  13    6    7 ar
  14    6   11 1
  15    7    8 ar
  16    7   12 1
  17    8   24 1
  18    9   10 1
  19   10   11 1
  20   10   25 1
  21   10   26 1
  22   13   14 1
  23   13   27 1
  24   14   15 1
  25   14   28 1
  26   14   29 1
  27   15   16 1
  28   15   30 1
  29   15   31 1
  30   16   17 1
  31   16   32 1
  32   16   33 1
  33   17   18 1
  34   17   34 1
  35   17   35 1
  36   18   19 1
  37   18   36 1
  38   18   37 1
  39   19   38 1

#	End of record

