#	Name: ASD01840346
#	Creating user name:	WinNT
#	Creation time:	15. 06. 2019 19:37

#	Modifying user name:	WinNT
#	Modification time:	15. 06. 2019 19:37

#	Program:	/corina/corina34_cracker 3.40 0067  02.08.2006

@<TRIPOS>MOLECULE
ASD01840346
  45   49    0    0    0
SMALL
NO_CHARGES


@<TRIPOS>ATOM
   1 C1             0.2120     1.7192     0.1834 C.3     
   2 C2            -0.0202     0.2314     0.1237 C.2     
   3 C3            -0.3551    -0.3571    -1.0453 C.2     
   4 C4            -0.5714    -1.7511    -1.0945 C.2     
   5 N5            -0.9009    -2.5746    -2.0769 N.2     
   6 N6            -0.9816    -3.7754    -1.6230 N.2     
   7 C7            -0.7134    -3.7953    -0.3439 C.2     
   8 N8            -0.4442    -2.5130     0.0349 N.pl3   
   9 C9            -0.1040    -1.9539     1.2492 C.2     
  10 S10            0.1176    -2.7155     2.8202 S.3     
  11 C11            0.5062    -1.1887     3.5881 C.2     
  12 C12            0.8210    -1.0348     4.9589 C.2     
  13 O13            1.0790     0.0692     5.4043 O.2     
  14 N14            0.8354    -2.1097     5.7718 N.am    
  15 C15            1.1615    -1.9504     7.1911 C.3     
  16 C16           -0.0472    -2.1263     8.1280 C.3     
  17 N17            0.3251    -3.5574     8.1777 N.3     
  18 C18            1.7275    -3.2245     7.8436 C.3     
  19 C19            0.2251    -4.0562     9.4800 C.ar    
  20 C20           -0.7880    -3.6113    10.3189 C.ar    
  21 C21           -0.8859    -4.1048    11.6058 C.ar    
  22 C22            0.0250    -5.0421    12.0602 C.ar    
  23 F23           -0.0728    -5.5231    13.3189 F       
  24 C24            1.0383    -5.4886    11.2248 C.ar    
  25 F25            1.9265    -6.4040    11.6700 F       
  26 C26            1.1356    -5.0014     9.9343 C.ar    
  27 C27            0.4643    -0.1723     2.6857 C.2     
  28 N28            0.7308     1.1486     3.0222 N.pl3   
  29 C29            0.1228    -0.5902     1.3396 C.2     
  30 H30            1.2405     1.9145     0.4869 H       
  31 H31            0.0345     2.1543    -0.8001 H       
  32 H32           -0.4711     2.1648     0.9065 H       
  33 H33           -0.4576     0.2381    -1.9406 H       
  34 H34           -0.7063    -4.6661     0.2950 H       
  35 H35            0.6300    -2.9888     5.4171 H       
  36 H36            1.7494    -1.0552     7.3941 H       
  37 H37            0.0587    -1.6115     9.0829 H       
  38 H38           -1.0070    -1.9387     7.6466 H       
  39 H39            2.1858    -3.9144     7.1350 H       
  40 H40            2.3526    -3.0310     8.7154 H       
  41 H41           -1.4992    -2.8793     9.9656 H       
  42 H42           -1.6741    -3.7584    12.2578 H       
  43 H43            1.9216    -5.3521     9.2819 H       
  44 H44            0.8427     1.3989     3.9526 H       
  45 H45            0.8050     1.8208     2.3268 H       
@<TRIPOS>BOND
   1    1    2 1
   2    1   30 1
   3    1   31 1
   4    1   32 1
   5    2   29 1
   6    2    3 2
   7    3    4 1
   8    3   33 1
   9    4    8 1
  10    4    5 2
  11    5    6 1
  12    6    7 2
  13    7    8 1
  14    7   34 1
  15    8    9 1
  16    9   29 2
  17    9   10 1
  18   10   11 1
  19   11   12 1
  20   11   27 2
  21   12   13 2
  22   12   14 am
  23   14   15 1
  24   14   35 1
  25   15   18 1
  26   15   16 1
  27   15   36 1
  28   16   17 1
  29   16   37 1
  30   16   38 1
  31   17   18 1
  32   17   19 1
  33   18   39 1
  34   18   40 1
  35   19   26 ar
  36   19   20 ar
  37   20   21 ar
  38   20   41 1
  39   21   22 ar
  40   21   42 1
  41   22   23 1
  42   22   24 ar
  43   24   25 1
  44   24   26 ar
  45   26   43 1
  46   27   28 1
  47   27   29 1
  48   28   44 1
  49   28   45 1

#	End of record

