#	Name: ASD05430199
#	Creating user name:	WinNT
#	Creation time:	15. 06. 2019 21:00

#	Modifying user name:	WinNT
#	Modification time:	15. 06. 2019 21:00

#	Program:	/corina/corina34_cracker 3.40 0067  02.08.2006

@<TRIPOS>MOLECULE
ASD05430199
  65   70    0    0    0
SMALL
NO_CHARGES


@<TRIPOS>ATOM
   1 C1             0.4035     0.5778     1.8240 C.ar    
   2 C2             0.4728    -0.7677     1.4640 C.ar    
   3 C3             1.6274    -1.2760     0.8829 C.ar    
   4 C4             2.7097    -0.4531     0.6590 C.ar    
   5 C5             2.6473     0.8974     1.0170 C.ar    
   6 C6             1.4852     1.4090     1.6024 C.ar    
   7 C7             5.3372    -0.1340     1.3200 C.3     
   8 C8             5.0518     1.2812     0.8428 C.2     
   9 C9             3.8027     1.7780     0.7791 C.2     
  10 C10            6.5872    -0.0910     2.2087 C.3     
  11 C11            7.8530     0.4628     1.5420 C.3     
  12 N12            7.5202     1.7179     0.8718 N.pl3   
  13 C13            6.2372     2.0764     0.4535 C.2     
  14 C14           -0.7312     2.4601     2.7315 C.3     
  15 O15           -0.7301     1.0731     2.3878 O.3     
  16 N16           -0.6251    -1.6091     1.6894 N.pl3   
  17 C17           -1.3152    -1.7420     2.8518 C.2     
  18 C18           -1.2090    -2.4490     0.7768 C.2     
  19 C19           -2.2255    -3.0659     1.4091 C.2     
  20 N20           -2.2675    -2.6164     2.6721 N.2     
  21 C21           -3.1574    -4.0824     0.8013 C.3     
  22 C22           -2.0810     2.8316     3.3488 C.3     
  23 C23            6.3875     0.1971     3.6962 C.3     
  24 C24            6.7627    -1.2123     3.2330 C.3     
  25 C25            8.3957     2.8376     0.5183 C.3     
  26 O26            7.6262     3.5584    -0.4667 O.3     
  27 N27            6.2822     3.1319    -0.2909 N.2     
  28 C28            8.6683     3.7171     1.7402 C.3     
  29 O29            9.5234     4.7994     1.3669 O.3     
  30 C30            9.6863     2.3366    -0.0771 C.ar    
  31 C31           10.3977     1.3362     0.5586 C.ar    
  32 C32           10.1549     2.8738    -1.2616 C.ar    
  33 C33           11.3378     2.4145    -1.8091 C.ar    
  34 C34           12.0539     1.4162    -1.1705 C.ar    
  35 C35           11.5811     0.8756     0.0133 C.ar    
  36 F36           13.2104     0.9665    -1.7047 F       
  37 H37            1.6772    -2.3187     0.6062 H       
  38 H38            3.6064    -0.8512     0.2073 H       
  39 H39            1.4327     2.4514     1.8800 H       
  40 H40            4.4894    -0.5072     1.8944 H       
  41 H41            5.5167    -0.7828     0.4628 H       
  42 H42            3.6480     2.8228     0.5533 H       
  43 H43            8.6157     0.6439     2.2994 H       
  44 H44            8.2246    -0.2548     0.8104 H       
  45 H45            0.0638     2.6568     3.4509 H       
  46 H46           -0.5653     3.0569     1.8346 H       
  47 H47           -1.1101    -1.2131     3.7708 H       
  48 H48           -0.9111    -2.5890    -0.2518 H       
  49 H49           -2.7460    -5.0820     0.9412 H       
  50 H50           -4.1310    -4.0189     1.2873 H       
  51 H51           -3.2694    -3.8814    -0.2641 H       
  52 H52           -2.8759     2.6349     2.6294 H       
  53 H53           -2.2468     2.2349     4.2457 H       
  54 H54           -2.0818     3.8896     3.6110 H       
  55 H55            7.1554     0.7814     4.2032 H       
  56 H56            5.3675     0.3573     4.0453 H       
  57 H57            5.9894    -1.9792     3.2772 H       
  58 H58            7.7774    -1.5551     3.4352 H       
  59 H59            7.7265     4.1126     2.1206 H       
  60 H60            9.1521     3.1225     2.5152 H       
  61 H61            9.7388     5.3993     2.0941 H       
  62 H62           10.0287     0.9146     1.4819 H       
  63 H63            9.5962     3.6525    -1.7595 H       
  64 H64           11.7033     2.8338    -2.7348 H       
  65 H65           12.1390     0.0971     0.5124 H       
@<TRIPOS>BOND
   1    1    2 ar
   2    1    6 ar
   3    1   15 1
   4    2    3 ar
   5    2   16 1
   6    3    4 ar
   7    3   37 1
   8    4    5 ar
   9    4   38 1
  10    5    6 ar
  11    5    9 1
  12    6   39 1
  13    7    8 1
  14    7   10 1
  15    7   40 1
  16    7   41 1
  17    8    9 2
  18    8   13 1
  19    9   42 1
  20   10   11 1
  21   10   23 1
  22   10   24 1
  23   11   12 1
  24   11   43 1
  25   11   44 1
  26   12   13 1
  27   12   25 1
  28   13   27 2
  29   14   15 1
  30   14   22 1
  31   14   45 1
  32   14   46 1
  33   16   17 1
  34   16   18 1
  35   17   20 2
  36   17   47 1
  37   18   19 2
  38   18   48 1
  39   19   20 1
  40   19   21 1
  41   21   49 1
  42   21   50 1
  43   21   51 1
  44   22   52 1
  45   22   53 1
  46   22   54 1
  47   23   24 1
  48   23   55 1
  49   23   56 1
  50   24   57 1
  51   24   58 1
  52   25   26 1
  53   25   28 1
  54   25   30 1
  55   26   27 1
  56   28   29 1
  57   28   59 1
  58   28   60 1
  59   29   61 1
  60   30   31 ar
  61   30   32 ar
  62   31   35 ar
  63   31   62 1
  64   32   33 ar
  65   32   63 1
  66   33   34 ar
  67   33   64 1
  68   34   35 ar
  69   34   36 1
  70   35   65 1

#	End of record

