#	Name: ASD02198506
#	Creating user name:	WinNT
#	Creation time:	15. 06. 2019 20:19

#	Modifying user name:	WinNT
#	Modification time:	15. 06. 2019 20:19

#	Program:	/corina/corina34_cracker 3.40 0067  02.08.2006

@<TRIPOS>MOLECULE
ASD02198506
  39   42    0    0    0
SMALL
NO_CHARGES


@<TRIPOS>ATOM
   1 C1             0.3020     1.3092    -1.4736 C.2     
   2 C2             0.3406    -0.0445    -1.5403 C.2     
   3 N3             1.3925    -0.7338    -1.0407 N.pl3   
   4 N4             2.4012    -0.1726    -0.4834 N.2     
   5 C5             2.4912     1.1333    -0.3538 C.2     
   6 C6             1.3963     1.9728    -0.8660 C.2     
   7 C7             1.3782    -2.1293    -1.1369 C.ar    
   8 C8             0.2420    -4.2203    -0.8407 C.ar    
   9 C9             1.3498    -4.8896    -1.3273 C.ar    
  10 C10            2.4742    -4.1828    -1.7137 C.ar    
  11 C11            2.4917    -2.8054    -1.6200 C.ar    
  12 C12            3.6691     1.7459     0.2948 C.2     
  13 N13            4.6921     1.0864     0.9123 N.pl3   
  14 N14            5.5589     2.0970     1.3642 N.2     
  15 N15            5.0379     3.2224     1.0138 N.2     
  16 N16            3.9359     3.0332     0.3828 N.2     
  17 C17            4.8452    -0.2983     1.0637 C.ar    
  18 C18            3.7633    -1.0801     1.4459 C.ar    
  19 O19            1.4299     3.1904    -0.7716 O.2     
  20 C20            6.0777    -0.8920     0.8262 C.ar    
  21 C21            6.2254    -2.2570     0.9763 C.ar    
  22 C22            5.1475    -3.0322     1.3626 C.ar    
  23 C23            3.9173    -2.4446     1.5943 C.ar    
  24 C24            0.2528    -2.8425    -0.7443 C.ar    
  25 C25           -0.9811    -4.9945    -0.4214 C.3     
  26 F26           -0.8033    -6.3483    -0.7263 F       
  27 F27           -1.1758    -4.8485     0.9563 F       
  28 F28           -2.0995    -4.5055    -1.1048 F       
  29 H29           -0.5336     1.8638    -1.8745 H       
  30 H30           -0.4787    -0.5794    -1.9976 H       
  31 H31            1.3372    -5.9667    -1.4054 H       
  32 H32            3.3378    -4.7087    -2.0933 H       
  33 H33            3.3699    -2.2541    -1.9222 H       
  34 H34            2.8023    -0.6218     1.6273 H       
  35 H35            6.9199    -0.2871     0.5241 H       
  36 H36            7.1838    -2.7195     0.7914 H       
  37 H37            5.2654    -4.0995     1.4789 H       
  38 H38            3.0774    -3.0527     1.8962 H       
  39 H39           -0.6127    -2.3204    -0.3639 H       
@<TRIPOS>BOND
   1    1    2 2
   2    1    6 1
   3    1   29 1
   4    2    3 1
   5    2   30 1
   6    3    4 1
   7    3    7 1
   8    4    5 2
   9    5    6 1
  10    5   12 1
  11    6   19 2
  12    7   24 ar
  13    7   11 ar
  14    8    9 ar
  15    8   25 1
  16    8   24 ar
  17    9   10 ar
  18    9   31 1
  19   10   11 ar
  20   10   32 1
  21   11   33 1
  22   12   13 1
  23   12   16 2
  24   13   14 1
  25   13   17 1
  26   14   15 2
  27   15   16 1
  28   17   20 ar
  29   17   18 ar
  30   18   23 ar
  31   18   34 1
  32   20   21 ar
  33   20   35 1
  34   21   22 ar
  35   21   36 1
  36   22   23 ar
  37   22   37 1
  38   23   38 1
  39   24   39 1
  40   25   26 1
  41   25   27 1
  42   25   28 1

#	End of record

