#	Name: ASD01810884
#	Creating user name:	WinNT
#	Creation time:	15. 06. 2019 19:25

#	Modifying user name:	WinNT
#	Modification time:	15. 06. 2019 19:25

#	Program:	/corina/corina34_cracker 3.40 0067  02.08.2006

@<TRIPOS>MOLECULE
ASD01810884
  70   75    0    0    0
SMALL
NO_CHARGES


@<TRIPOS>ATOM
   1 C1            -7.9885     2.1102     2.4032 C.1     
   2 C2            -6.8240     2.9141     2.1835 C.ar    
   3 C3            -5.5747     2.4745     2.6257 C.ar    
   4 C4            -4.4570     3.2539     2.4107 C.ar    
   5 C5            -4.5720     4.4690     1.7589 C.ar    
   6 C6            -5.8069     4.9109     1.3184 C.ar    
   7 C7            -6.9318     4.1384     1.5208 C.ar    
   8 N8            -8.9123     1.4725     2.5776 N.1     
   9 N9            -1.9116     7.7526     1.5125 N.am    
  10 C10           -2.4024     7.2294     0.2303 C.3     
  11 C11           -3.6598     6.3931     0.4879 C.3     
  12 C12           -3.3465     5.3152     1.5281 C.3     
  13 C13           -2.9299     5.9784     2.8429 C.3     
  14 C14           -1.6642     6.8099     2.6120 C.3     
  15 F15           -2.3033     4.5076     1.0626 F       
  16 C16           -1.6874     9.0716     1.6753 C.2     
  17 C17           -1.2784     9.5945     2.9966 C.ar    
  18 C18           -2.0197    10.6080     3.6084 C.ar    
  19 C19           -1.6390    11.0970     4.8419 C.ar    
  20 C20           -0.5241    10.5885     5.4790 C.ar    
  21 C21            0.2254     9.5752     4.8789 C.ar    
  22 C22           -0.1561     9.0734     3.6368 C.ar    
  23 O23           -1.8214     9.8313     0.7360 O.2     
  24 N24            2.9036     8.6769     7.0433 N.2     
  25 N25            1.8339     9.3363     6.7726 N.2     
  26 C26            1.4197     9.0321     5.5628 C.2     
  27 N27            2.3029     8.1178     5.0560 N.pl3   
  28 C28            3.2316     7.9199     6.0308 C.2     
  29 O29            4.5414     6.4397     4.6288 O.3     
  30 C30            4.4201     6.9963     5.9559 C.3     
  31 C31            5.7296     7.7863     6.1738 C.3     
  32 C32            6.7354     7.1192     5.2091 C.3     
  33 C33            5.9146     6.0051     4.5225 C.3     
  34 C34           -3.2374    11.1691     2.9202 C.3     
  35 C35           -0.1154    11.1292     6.8250 C.3     
  36 C36            0.0937    12.6527     6.8393 C.3     
  37 C37           -0.5889    12.6544     8.2173 C.3     
  38 C38           -1.2978    11.3616     7.7804 C.3     
  39 H39           -5.4836     1.5266     3.1353 H       
  40 H40           -3.4901     2.9151     2.7523 H       
  41 H41           -5.8896     5.8605     0.8106 H       
  42 H42           -7.8944     4.4823     1.1722 H       
  43 H43           -2.6449     8.0588    -0.4340 H       
  44 H44           -1.6353     6.6045    -0.2270 H       
  45 H45           -4.4556     7.0381     0.8606 H       
  46 H46           -3.9790     5.9205    -0.4410 H       
  47 H47           -3.7325     6.6272     3.1934 H       
  48 H48           -2.7295     5.2106     3.5901 H       
  49 H49           -0.8368     6.1508     2.3489 H       
  50 H50           -1.4195     7.3626     3.5191 H       
  51 H51           -2.2153    11.8809     5.3106 H       
  52 H52            0.4183     8.2868     3.1699 H       
  53 H53            2.2731     7.6975     4.1822 H       
  54 H54            4.3299     6.1999     6.6946 H       
  55 H55            5.5902     8.8358     5.9144 H       
  56 H56            6.0675     7.6885     7.2055 H       
  57 H57            7.0933     7.8389     4.4728 H       
  58 H58            7.5706     6.6916     5.7639 H       
  59 H59            6.0537     5.0567     5.0414 H       
  60 H60            6.2031     5.9117     3.4756 H       
  61 H61           -4.1012    10.5425     3.1422 H       
  62 H62           -3.4220    12.1822     3.2774 H       
  63 H63           -3.0696    11.1884     1.8434 H       
  64 H64            0.7068    10.5715     7.2733 H       
  65 H65            1.1420    12.9493     6.8709 H       
  66 H66           -0.4730    13.1784     6.0707 H       
  67 H67            0.1032    12.5137     9.0475 H       
  68 H68           -1.2668    13.4946     8.3678 H       
  69 H69           -2.2448    11.5343     7.2691 H       
  70 H70           -1.3727    10.6158     8.5718 H       
@<TRIPOS>BOND
   1    1    2 1
   2    1    8 3
   3    2    3 ar
   4    2    7 ar
   5    3    4 ar
   6    3   39 1
   7    4    5 ar
   8    4   40 1
   9    5    6 ar
  10    5   12 1
  11    6    7 ar
  12    6   41 1
  13    7   42 1
  14    9   10 1
  15    9   14 1
  16    9   16 am
  17   10   11 1
  18   10   43 1
  19   10   44 1
  20   11   12 1
  21   11   45 1
  22   11   46 1
  23   12   13 1
  24   12   15 1
  25   13   14 1
  26   13   47 1
  27   13   48 1
  28   14   49 1
  29   14   50 1
  30   16   17 1
  31   16   23 2
  32   17   18 ar
  33   17   22 ar
  34   18   19 ar
  35   18   34 1
  36   19   20 ar
  37   19   51 1
  38   20   21 ar
  39   20   35 1
  40   21   22 ar
  41   21   26 1
  42   22   52 1
  43   24   25 1
  44   24   28 2
  45   25   26 2
  46   26   27 1
  47   27   28 1
  48   27   53 1
  49   28   30 1
  50   29   30 1
  51   29   33 1
  52   30   31 1
  53   30   54 1
  54   31   32 1
  55   31   55 1
  56   31   56 1
  57   32   33 1
  58   32   57 1
  59   32   58 1
  60   33   59 1
  61   33   60 1
  62   34   61 1
  63   34   62 1
  64   34   63 1
  65   35   36 1
  66   35   38 1
  67   35   64 1
  68   36   37 1
  69   36   65 1
  70   36   66 1
  71   37   38 1
  72   37   67 1
  73   37   68 1
  74   38   69 1
  75   38   70 1

#	End of record

