#	Name: ASD01882114
#	Creating user name:	WinNT
#	Creation time:	15. 06. 2019 19:43

#	Modifying user name:	WinNT
#	Modification time:	15. 06. 2019 19:43

#	Program:	/corina/corina34_cracker 3.40 0067  02.08.2006

@<TRIPOS>MOLECULE
ASD01882114
  57   60    0    0    0
SMALL
NO_CHARGES


@<TRIPOS>ATOM
   1 C1            -0.7599    -0.5750    -2.2779 C.2     
   2 C2            -0.4009    -1.1877    -1.0710 C.2     
   3 C3            -1.3754    -1.3448    -0.0679 C.2     
   4 C4            -2.6382    -0.9168    -0.2536 C.2     
   5 N5            -3.0327    -0.3151    -1.4127 N.pl3   
   6 C6            -2.1430    -0.1182    -2.4369 C.2     
   7 C7            -4.2377     0.1944    -1.8299 C.2     
   8 C8            -4.0561     0.6742    -3.0768 C.2     
   9 N9            -2.7798     0.4772    -3.4288 N.2     
  10 N10            0.8923    -1.6325    -0.8680 N.pl3   
  11 C11           -5.5222     0.2132    -1.0421 C.3     
  12 C12            1.1705    -3.0622    -0.6746 C.3     
  13 C13            1.9669    -3.2385     0.6221 C.3     
  14 C14            3.2163    -2.3561     0.5728 C.3     
  15 C15            2.8014    -0.8876     0.4567 C.3     
  16 C16            2.0152    -0.6852    -0.8475 C.3     
  17 C17            4.0199    -2.5527     1.8324 C.ar    
  18 C18            5.2800    -3.1177     1.7673 C.ar    
  19 C19            3.4994    -2.1630     3.0520 C.ar    
  20 C20            4.2366    -2.3434     4.2077 C.ar    
  21 C21            5.4939    -2.9138     4.1433 C.ar    
  22 C22            6.0168    -3.2985     2.9226 C.ar    
  23 C23            5.8501    -3.5369     0.4368 C.3     
  24 C24            5.9494    -2.3178    -0.4824 C.3     
  25 O25            7.1514    -4.0947     0.6305 O.3     
  26 C26            4.9362    -4.5844    -0.2024 C.3     
  27 C27           -6.3681    -1.0054    -1.4167 C.3     
  28 F28           -5.6579    -2.1743    -1.1226 F       
  29 F29           -7.5606    -0.9879    -0.6853 F       
  30 F30           -6.6594    -0.9683    -2.7845 F       
  31 C31            0.1997    -0.3943    -3.3253 C.1     
  32 N32            0.9610    -0.2511    -4.1563 N.1     
  33 H33           -1.1060    -1.8165     0.8656 H       
  34 H34           -3.3601    -1.0541     0.5379 H       
  35 H35           -4.8133     1.1423    -3.6882 H       
  36 H36           -5.2953     0.1843     0.0236 H       
  37 H37           -6.0756     1.1239    -1.2712 H       
  38 H38            0.2314    -3.6109    -0.6042 H       
  39 H39            1.7535    -3.4379    -1.5155 H       
  40 H40            1.3488    -2.9468     1.4712 H       
  41 H41            2.2626    -4.2823     0.7283 H       
  42 H42            3.8217    -2.6318    -0.2907 H       
  43 H43            2.1755    -0.6180     1.3073 H       
  44 H44            3.6912    -0.2580     0.4451 H       
  45 H45            2.6691    -0.8670    -1.7004 H       
  46 H46            1.6322     0.3345    -0.8888 H       
  47 H47            2.5170    -1.7173     3.1023 H       
  48 H48            3.8302    -2.0382     5.1606 H       
  49 H49            6.0699    -3.0544     5.0460 H       
  50 H50            6.9993    -3.7442     2.8723 H       
  51 H51            6.8020    -1.7072    -0.1853 H       
  52 H52            6.0812    -2.6492    -1.5124 H       
  53 H53            5.0357    -1.7286    -0.4044 H       
  54 H54            7.1643    -4.8729     1.2044 H       
  55 H55            3.9609    -4.1413    -0.4037 H       
  56 H56            5.3780    -4.9304    -1.1368 H       
  57 H57            4.8187    -5.4278     0.4781 H       
@<TRIPOS>BOND
   1    1    2 2
   2    1   31 1
   3    1    6 1
   4    2    3 1
   5    2   10 1
   6    3    4 2
   7    3   33 1
   8    4    5 1
   9    4   34 1
  10    5    6 1
  11    5    7 1
  12    6    9 2
  13    7    8 2
  14    7   11 1
  15    8    9 1
  16    8   35 1
  17   10   12 1
  18   10   16 1
  19   11   27 1
  20   11   36 1
  21   11   37 1
  22   12   13 1
  23   12   38 1
  24   12   39 1
  25   13   14 1
  26   13   40 1
  27   13   41 1
  28   14   15 1
  29   14   17 1
  30   14   42 1
  31   15   16 1
  32   15   43 1
  33   15   44 1
  34   16   45 1
  35   16   46 1
  36   17   18 ar
  37   17   19 ar
  38   18   23 1
  39   18   22 ar
  40   19   20 ar
  41   19   47 1
  42   20   21 ar
  43   20   48 1
  44   21   22 ar
  45   21   49 1
  46   22   50 1
  47   23   24 1
  48   23   25 1
  49   23   26 1
  50   24   51 1
  51   24   52 1
  52   24   53 1
  53   25   54 1
  54   26   55 1
  55   26   56 1
  56   26   57 1
  57   27   28 1
  58   27   29 1
  59   27   30 1
  60   31   32 3

#	End of record

