#	Name: ASD02038852
#	Creating user name:	WinNT
#	Creation time:	15. 06. 2019 20:17

#	Modifying user name:	WinNT
#	Modification time:	15. 06. 2019 20:17

#	Program:	/corina/corina34_cracker 3.40 0067  02.08.2006

@<TRIPOS>MOLECULE
ASD02038852
  57   60    0    0    0
SMALL
NO_CHARGES


@<TRIPOS>ATOM
   1 C1            -1.2785    -0.8646     0.4611 C.2     
   2 C2            -0.0671    -0.0426     0.2962 C.2     
   3 N3             1.1350    -0.6351     0.1532 N.am    
   4 C4             1.2506    -2.0918     0.2569 C.3     
   5 C5             1.2304    -2.6968    -1.1231 C.ar    
   6 C6             2.4193    -3.0136    -1.7549 C.ar    
   7 C7             2.4094    -3.5696    -3.0212 C.ar    
   8 C8             1.2091    -3.8113    -3.6628 C.ar    
   9 C9             0.0069    -3.4931    -3.0290 C.ar    
  10 C10            0.0251    -2.9387    -1.7512 C.ar    
  11 C11            2.3260     0.1777    -0.1059 C.3     
  12 C12            2.0992     1.0159    -1.3605 C.3     
  13 C13            3.4154     1.6603    -1.8034 C.3     
  14 S14            3.9818     2.7936    -0.5003 S.3     
  15 C15            3.9748     1.7243     0.9693 C.3     
  16 C16            2.5956     1.0727     1.1001 C.3     
  17 O17           -0.1518     1.1707     0.2890 O.2     
  18 N18           -1.3290    -2.2207     0.4995 N.2     
  19 C19           -2.5668    -2.5916     0.6568 C.2     
  20 N20           -3.3543    -1.4867     0.7249 N.pl3   
  21 C21           -2.5532    -0.4016     0.6089 C.2     
  22 C22           -4.8089    -1.4721     0.8990 C.3     
  23 C23           -1.2852    -3.7496    -3.7112 C.ar    
  24 C24           -1.4852    -3.3067    -5.0176 C.ar    
  25 C25           -2.2997    -4.4389    -3.0490 C.ar    
  26 C26           -3.4999    -4.6758    -3.6858 C.ar    
  27 C27           -3.6981    -4.2285    -4.9850 C.ar    
  28 C28           -2.6875    -3.5466    -5.6491 C.ar    
  29 O29           -4.8816    -4.4633    -5.6098 O.3     
  30 F30            1.1997    -4.3535    -4.9001 F       
  31 C31           -5.0179    -3.9753    -6.9460 C.3     
  32 F32           -4.0412    -4.5612    -7.7583 F       
  33 F33           -6.2877    -4.3015    -7.4343 F       
  34 F34           -4.8583    -2.5855    -6.9533 F       
  35 H35            2.1874    -2.3476     0.7521 H       
  36 H36            0.4145    -2.4823     0.8371 H       
  37 H37            3.3593    -2.8258    -1.2574 H       
  38 H38            3.3409    -3.8150    -3.5097 H       
  39 H39           -0.9021    -2.6906    -1.2560 H       
  40 H40            3.1816    -0.4792    -0.2629 H       
  41 H41            1.7222     0.3771    -2.1592 H       
  42 H42            1.3682     1.7958    -1.1473 H       
  43 H43            4.1651     0.8857    -1.9649 H       
  44 H44            3.2570     2.2162    -2.7275 H       
  45 H45            4.7354     0.9510     0.8618 H       
  46 H46            4.1820     2.3221     1.8569 H       
  47 H47            1.8322     1.8489     1.1525 H       
  48 H48            2.5634     0.4734     2.0100 H       
  49 H49           -2.9120    -3.6128     0.7223 H       
  50 H50           -2.8645     0.6324     0.6232 H       
  51 H51           -5.0473    -1.4436     1.9622 H       
  52 H52           -5.2245    -0.5911     0.4097 H       
  53 H53           -5.2371    -2.3705     0.4545 H       
  54 H54           -0.6994    -2.7759    -5.5346 H       
  55 H55           -2.1459    -4.7875    -2.0384 H       
  56 H56           -4.2862    -5.2102    -3.1734 H       
  57 H57           -2.8446    -3.1998    -6.6598 H       
@<TRIPOS>BOND
   1    1    2 1
   2    1   18 1
   3    1   21 2
   4    2    3 am
   5    2   17 2
   6    3    4 1
   7    3   11 1
   8    4    5 1
   9    4   35 1
  10    4   36 1
  11    5    6 ar
  12    5   10 ar
  13    6    7 ar
  14    6   37 1
  15    7    8 ar
  16    7   38 1
  17    8    9 ar
  18    8   30 1
  19    9   10 ar
  20    9   23 1
  21   10   39 1
  22   11   12 1
  23   11   16 1
  24   11   40 1
  25   12   13 1
  26   12   41 1
  27   12   42 1
  28   13   14 1
  29   13   43 1
  30   13   44 1
  31   14   15 1
  32   15   16 1
  33   15   45 1
  34   15   46 1
  35   16   47 1
  36   16   48 1
  37   18   19 2
  38   19   20 1
  39   19   49 1
  40   20   21 1
  41   20   22 1
  42   21   50 1
  43   22   51 1
  44   22   52 1
  45   22   53 1
  46   23   24 ar
  47   23   25 ar
  48   24   28 ar
  49   24   54 1
  50   25   26 ar
  51   25   55 1
  52   26   27 ar
  53   26   56 1
  54   27   28 ar
  55   27   29 1
  56   28   57 1
  57   29   31 1
  58   31   32 1
  59   31   33 1
  60   31   34 1

#	End of record

