#	Name: ASD01814378
#	Creating user name:	WinNT
#	Creation time:	15. 06. 2019 19:32

#	Modifying user name:	WinNT
#	Modification time:	15. 06. 2019 19:32

#	Program:	/corina/corina34_cracker 3.40 0067  02.08.2006

@<TRIPOS>MOLECULE
ASD01814378
  64   69    0    0    0
SMALL
NO_CHARGES


@<TRIPOS>ATOM
   1 N1            -0.9310     1.9256    -1.5353 N.2     
   2 C2            -1.1987     0.7831    -2.1225 C.2     
   3 C3            -0.3381     0.2756    -3.1080 C.2     
   4 C4             0.7721     0.9761    -3.4481 C.2     
   5 N5             1.0269     2.1625    -2.8213 N.pl3   
   6 C6             0.1627     2.6261    -1.8632 C.2     
   7 N7             2.0620     3.0950    -2.9452 N.2     
   8 C8             1.8464     4.0861    -2.1039 C.2     
   9 C9             0.6743     3.8363    -1.4100 C.2     
  10 C10            2.4206     5.3975    -1.6270 C.3     
  11 N11            1.5229     5.9299    -0.5973 N.am    
  12 C12            0.4257     4.9687    -0.4472 C.3     
  13 C13            1.6770     7.0836     0.0823 C.2     
  14 O14            0.8073     7.4616     0.8436 O.2     
  15 C15            2.8997     7.8873    -0.0974 C.ar    
  16 C16            2.8138     9.2807    -0.2312 C.ar    
  17 C17            4.1505     7.2651    -0.1294 C.ar    
  18 C18            5.2897     8.0205    -0.2970 C.ar    
  19 C19            5.2013     9.3989    -0.4344 C.ar    
  20 C20            3.9688    10.0272    -0.3991 C.ar    
  21 O21            1.6048     9.8950    -0.1968 O.3     
  22 C22            1.6030    11.3169    -0.1967 C.3     
  23 Cl23          -0.6915    -1.2362    -3.8848 Cl      
  24 F24            6.3246    10.1314    -0.5979 F       
  25 C25            0.5247    11.8115    -2.4295 C.3     
  26 C26            1.8003    11.8785    -1.6000 C.3     
  27 C27            0.3446    11.8768     0.4565 C.3     
  28 C28           -0.8621    11.8143    -0.4702 C.3     
  29 N29           -0.5907    12.4617    -1.7495 N.3     
  30 C30            0.1645    10.3832    -2.7967 C.3     
  31 C31           -0.5903     9.6067    -1.7436 C.3     
  32 C32           -0.4330    13.9097    -1.6399 C.3     
  33 C33           -2.4349     0.0124    -1.7367 C.3     
  34 C34            1.7123     0.4524    -4.5031 C.3     
  35 C35           -1.3353    10.3881    -0.6871 C.3     
  36 H36            3.4121     5.2348    -1.2044 H       
  37 H37            2.4837     6.0978    -2.4600 H       
  38 H38           -0.5233     5.4512    -0.6813 H       
  39 H39            0.4057     4.5879     0.5739 H       
  40 H40            4.2238     6.1929    -0.0225 H       
  41 H41            6.2559     7.5385    -0.3212 H       
  42 H42            3.9071    11.1005    -0.5029 H       
  43 H43            2.4675    11.6445     0.4155 H       
  44 H44            0.7093    12.3660    -3.3686 H       
  45 H45            2.1481    12.9131    -1.5346 H       
  46 H46            2.5838    11.2996    -2.1072 H       
  47 H47            0.1263    11.2950     1.3622 H       
  48 H48            0.5225    12.9103     0.7668 H       
  49 H49           -1.6838    12.3729     0.0159 H       
  50 H50           -0.4300    10.4012    -3.7259 H       
  51 H51            1.0935     9.8422    -3.0461 H       
  52 H52           -1.3392     8.9715    -2.2745 H       
  53 H53            0.0758     8.8719    -1.2681 H       
  54 H54           -0.3576    14.3434    -2.6370 H       
  55 H55           -1.2960    14.3312    -1.1246 H       
  56 H56            0.4724    14.1349    -1.0763 H       
  57 H57           -2.9754     0.5567    -0.9622 H       
  58 H58           -3.0754    -0.1080    -2.6104 H       
  59 H59           -2.1481    -0.9687    -1.3583 H       
  60 H60            1.3399    -0.4996    -4.8813 H       
  61 H61            1.7752     1.1691    -5.3219 H       
  62 H62            2.7018     0.3088    -4.0690 H       
  63 H63           -1.2702     9.8487     0.2732 H       
  64 H64           -2.4075    10.4119    -0.9460 H       
@<TRIPOS>BOND
   1    1    2 2
   2    1    6 1
   3    2    3 1
   4    2   33 1
   5    3    4 2
   6    3   23 1
   7    4    5 1
   8    4   34 1
   9    5    7 1
  10    5    6 1
  11    6    9 2
  12    7    8 2
  13    8   10 1
  14    8    9 1
  15    9   12 1
  16   10   11 1
  17   10   36 1
  18   10   37 1
  19   11   12 1
  20   11   13 am
  21   12   38 1
  22   12   39 1
  23   13   14 2
  24   13   15 1
  25   15   17 ar
  26   15   16 ar
  27   16   20 ar
  28   16   21 1
  29   17   18 ar
  30   17   40 1
  31   18   19 ar
  32   18   41 1
  33   19   20 ar
  34   19   24 1
  35   20   42 1
  36   21   22 1
  37   22   27 1
  38   22   26 1
  39   22   43 1
  40   25   26 1
  41   25   29 1
  42   25   30 1
  43   25   44 1
  44   26   45 1
  45   26   46 1
  46   27   28 1
  47   27   47 1
  48   27   48 1
  49   28   29 1
  50   28   35 1
  51   28   49 1
  52   29   32 1
  53   30   31 1
  54   30   50 1
  55   30   51 1
  56   31   35 1
  57   31   52 1
  58   31   53 1
  59   32   54 1
  60   32   55 1
  61   32   56 1
  62   33   57 1
  63   33   58 1
  64   33   59 1
  65   34   60 1
  66   34   61 1
  67   34   62 1
  68   35   63 1
  69   35   64 1

#	End of record

