#	Name: ASD01915325
#	Creating user name:	WinNT
#	Creation time:	15. 06. 2019 20:05

#	Modifying user name:	WinNT
#	Modification time:	15. 06. 2019 20:05

#	Program:	/corina/corina34_cracker 3.40 0067  02.08.2006

@<TRIPOS>MOLECULE
ASD01915325
  41   43    0    0    0
SMALL
NO_CHARGES


@<TRIPOS>ATOM
   1 C1            -0.0162     1.3467     0.0094 C.2     
   2 N2             0.0021    -0.0041     0.0020 N.pl3   
   3 C3            -1.3117    -0.4390     0.0126 C.2     
   4 C4            -2.0920     0.6361     0.0260 C.2     
   5 O5            -1.3071     1.7370     0.0284 O.3     
   6 N6             1.2344     1.7633    -0.0003 N.2     
   7 C7             2.0570     0.7167    -0.0137 C.2     
   8 N8             1.3495    -0.3851    -0.0129 N.2     
   9 C9            -3.5989     0.6297     0.0408 C.3     
  10 C10           -1.7738    -1.8734     0.0090 C.3     
  11 C11           -4.0986     1.2301     1.3564 C.3     
  12 O12           -4.0973     1.4188    -1.0715 O.3     
  13 C13           -5.2841     1.0572    -1.5943 C.2     
  14 N14           -5.8035     1.7479    -2.6285 N.am    
  15 O15           -5.8871     0.1081    -1.1336 O.2     
  16 C16           -7.0950     1.3544    -3.1973 C.3     
  17 C17           -7.7460     2.5646    -3.8699 C.3     
  18 C18           -9.0948     2.1537    -4.4639 C.3     
  19 C19           -8.8803     1.0486    -5.5000 C.3     
  20 C20           -8.2292    -0.1617    -4.8275 C.3     
  21 C21           -6.8805     0.2493    -4.2334 C.3     
  22 H22            3.1357     0.7682    -0.0238 H       
  23 H23           -3.9588    -0.3951    -0.0507 H       
  24 H24           -0.9071    -2.5343    -0.0030 H       
  25 H25           -2.3658    -2.0666     0.9036 H       
  26 H26           -2.3827    -2.0567    -0.8763 H       
  27 H27           -5.1886     1.2255     1.3670 H       
  28 H28           -3.7246     0.6377     2.1914 H       
  29 H29           -3.7388     2.2549     1.4479 H       
  30 H30           -5.3222     2.5055    -2.9963 H       
  31 H31           -7.7448     0.9867    -2.4032 H       
  32 H32           -7.8989     3.3520    -3.1317 H       
  33 H33           -7.0961     2.9323    -4.6640 H       
  34 H34           -9.7447     1.7861    -3.6698 H       
  35 H35           -9.5586     3.0159    -4.9430 H       
  36 H36           -9.8412     0.7558    -5.9232 H       
  37 H37           -8.2304     1.4162    -6.2941 H       
  38 H38           -8.8791    -0.5293    -4.0334 H       
  39 H39           -8.0764    -0.9490    -5.5656 H       
  40 H40           -6.2306     0.6169    -5.0275 H       
  41 H41           -6.4166    -0.6129    -3.7543 H       
@<TRIPOS>BOND
   1    1    2 1
   2    1    6 2
   3    1    5 1
   4    2    3 1
   5    2    8 1
   6    3    4 2
   7    3   10 1
   8    4    5 1
   9    4    9 1
  10    6    7 1
  11    7    8 2
  12    7   22 1
  13    9   11 1
  14    9   12 1
  15    9   23 1
  16   10   24 1
  17   10   25 1
  18   10   26 1
  19   11   27 1
  20   11   28 1
  21   11   29 1
  22   12   13 1
  23   13   14 am
  24   13   15 2
  25   14   16 1
  26   14   30 1
  27   16   17 1
  28   16   21 1
  29   16   31 1
  30   17   18 1
  31   17   32 1
  32   17   33 1
  33   18   19 1
  34   18   34 1
  35   18   35 1
  36   19   20 1
  37   19   36 1
  38   19   37 1
  39   20   21 1
  40   20   38 1
  41   20   39 1
  42   21   40 1
  43   21   41 1

#	End of record

