#	Name: ASD03540520
#	Creating user name:	WinNT
#	Creation time:	15. 06. 2019 20:43

#	Modifying user name:	WinNT
#	Modification time:	15. 06. 2019 20:43

#	Program:	/corina/corina34_cracker 3.40 0067  02.08.2006

@<TRIPOS>MOLECULE
ASD03540520
  54   57    0    0    0
SMALL
NO_CHARGES


@<TRIPOS>ATOM
   1 C1            -0.0161     1.3389     0.0094 C.2     
   2 N2             0.0021    -0.0041     0.0020 N.am    
   3 C3             1.1968    -0.6965    -0.0126 C.ar    
   4 C4             2.3989     0.0391    -0.0201 C.ar    
   5 C5             2.3225     1.5104    -0.0120 C.2     
   6 N6             1.0995     2.0850     0.0028 N.am    
   7 C7             3.6164    -0.6318    -0.0344 C.ar    
   8 C8             3.5904    -2.0318    -0.0408 C.ar    
   9 C9             2.3565    -2.6897    -0.0326 C.ar    
  10 N10            1.2235    -2.0201    -0.0191 N.ar    
  11 C11            4.8493    -2.8032    -0.0564 C.2     
  12 O12            5.9177    -2.2230    -0.0638 O.2     
  13 N13            4.8141    -4.1505    -0.0624 N.am    
  14 C14            6.0631    -4.9159    -0.0779 C.3     
  15 C15            5.7491    -6.3898    -0.0819 C.ar    
  16 C16            5.5939    -7.0591    -1.2817 C.ar    
  17 C17            5.3060    -8.4102    -1.2881 C.ar    
  18 C18            5.1726    -9.0955    -0.0892 C.ar    
  19 C19            5.3289    -8.4216     1.1134 C.ar    
  20 C20            5.6223    -7.0716     1.1142 C.ar    
  21 O21            4.8890   -10.4245    -0.0927 O.3     
  22 C22            4.7660   -11.0650     1.1787 C.3     
  23 O23            3.3317     2.1885    -0.0180 O.2     
  24 O24           -1.0922     1.9044     0.0175 O.2     
  25 C25           -1.2622    -0.7441     0.0101 C.3     
  26 C26            0.9897     3.5459     0.0116 C.3     
  27 C27            0.9656     4.0392     1.4354 C.ar    
  28 C28            2.1486     4.3551     2.0770 C.ar    
  29 C29            2.1277     4.8080     3.3825 C.ar    
  30 C30            0.9212     4.9453     4.0479 C.ar    
  31 C31           -0.2630     4.6286     3.4042 C.ar    
  32 C32           -0.2400     4.1809     2.0969 C.ar    
  33 F33            0.8996     5.3876     5.3242 F       
  34 H34            4.5513    -0.0911    -0.0408 H       
  35 H35            2.3328    -3.7694    -0.0375 H       
  36 H36            3.9617    -4.6134    -0.0565 H       
  37 H37            6.6329    -4.6634    -0.9722 H       
  38 H38            6.6499    -4.6718     0.8077 H       
  39 H39            5.6975    -6.5252    -2.2148 H       
  40 H40            5.1845    -8.9325    -2.2255 H       
  41 H41            5.2255    -8.9528     2.0480 H       
  42 H42            5.7487    -6.5475     2.0501 H       
  43 H43            5.7029   -10.9670     1.7271 H       
  44 H44            3.9622   -10.5956     1.7458 H       
  45 H45            4.5391   -12.1212     1.0331 H       
  46 H46           -2.0949    -0.0408     0.0218 H       
  47 H47           -1.3247    -1.3663    -0.8827 H       
  48 H48           -1.3078    -1.3759     0.8971 H       
  49 H49            1.8450     3.9777    -0.5081 H       
  50 H50            0.0701     3.8442    -0.4919 H       
  51 H51            3.0896     4.2477     1.5580 H       
  52 H52            3.0521     5.0545     3.8837 H       
  53 H53           -1.2047     4.7352     3.9222 H       
  54 H54           -1.1639     3.9376     1.5933 H       
@<TRIPOS>BOND
   1    1    2 am
   2    1    6 am
   3    1   24 2
   4    2    3 1
   5    2   25 1
   6    3    4 ar
   7    3   10 ar
   8    4    5 1
   9    4    7 ar
  10    5    6 am
  11    5   23 2
  12    6   26 1
  13    7    8 ar
  14    7   34 1
  15    8    9 ar
  16    8   11 1
  17    9   10 ar
  18    9   35 1
  19   11   12 2
  20   11   13 am
  21   13   14 1
  22   13   36 1
  23   14   15 1
  24   14   37 1
  25   14   38 1
  26   15   16 ar
  27   15   20 ar
  28   16   17 ar
  29   16   39 1
  30   17   18 ar
  31   17   40 1
  32   18   19 ar
  33   18   21 1
  34   19   20 ar
  35   19   41 1
  36   20   42 1
  37   21   22 1
  38   22   43 1
  39   22   44 1
  40   22   45 1
  41   25   46 1
  42   25   47 1
  43   25   48 1
  44   26   27 1
  45   26   49 1
  46   26   50 1
  47   27   28 ar
  48   27   32 ar
  49   28   29 ar
  50   28   51 1
  51   29   30 ar
  52   29   52 1
  53   30   31 ar
  54   30   33 1
  55   31   32 ar
  56   31   53 1
  57   32   54 1

#	End of record

