#	Name: ASD03091189
#	Creating user name:	WinNT
#	Creation time:	15. 06. 2019 20:30

#	Modifying user name:	WinNT
#	Modification time:	15. 06. 2019 20:30

#	Program:	/corina/corina34_cracker 3.40 0067  02.08.2006

@<TRIPOS>MOLECULE
ASD03091189
  64   68    0    0    0
SMALL
NO_CHARGES


@<TRIPOS>ATOM
   1 C1             0.2750     1.7654     0.0416 C.2     
   2 C2             0.1177     0.2675    -0.0105 C.3     
   3 O3             1.3828     2.2582     0.0703 O.2     
   4 N4            -0.8153     2.5576     0.0506 N.am    
   5 C5            -0.6624     4.0137     0.1012 C.3     
   6 C6            -0.4615     4.5550    -1.3157 C.3     
   7 C7            -1.9188     4.6375     0.7121 C.3     
   8 N8             3.2469    -1.2023     1.2360 N.2     
   9 C9             2.0672    -0.6412     1.1676 C.2     
  10 N10            1.4403    -0.3624    -0.0171 N.am    
  11 C11            2.0350    -0.6658    -1.1944 C.2     
  12 C12            3.3619    -1.2974    -1.1415 C.ar    
  13 C13            4.0548    -1.6472    -2.2983 C.ar    
  14 C14            5.3016    -2.2396    -2.1899 C.ar    
  15 C15            5.8603    -2.4847    -0.9354 C.ar    
  16 C16            5.1932    -2.1479     0.2070 C.ar    
  17 C17            3.9325    -1.5479     0.1274 C.ar    
  18 O18            1.4919    -0.4254    -2.2569 O.2     
  19 C19            1.3794    -0.2920     2.4273 C.ar    
  20 C20            0.1379    -0.8597     2.7306 C.ar    
  21 C21           -0.4992    -0.5283     3.9117 C.ar    
  22 C22            0.0886     0.3619     4.7914 C.ar    
  23 C23            1.3180     0.9274     4.4966 C.ar    
  24 C24            1.9683     0.6017     3.3234 C.ar    
  25 F25           -0.4374    -1.7293     1.8714 F       
  26 Cl26           2.0463     2.0438     5.6088 Cl      
  27 N27            7.1675    -2.2305    -6.0436 N.3     
  28 C28            5.8617    -2.8657    -5.8091 C.3     
  29 C29            5.2141    -2.3132    -4.5490 C.3     
  30 N30            6.0045    -2.5947    -3.3446 N.3     
  31 C31            7.3018    -1.9068    -3.4039 C.3     
  32 C32            8.3678    -2.8321    -3.9714 C.3     
  33 C33            8.2383    -3.0544    -5.4647 C.3     
  34 C34            7.2740    -0.8331    -5.6824 C.3     
  35 C35            7.1447    -0.6143    -4.1839 C.3     
  36 H36           -0.4410    -0.0697     0.8626 H       
  37 H37           -0.4215    -0.0099    -0.9163 H       
  38 H38           -1.7013     2.1636     0.0236 H       
  39 H39            0.2033     4.2671     0.7131 H       
  40 H40           -0.3478     5.6384    -1.2780 H       
  41 H41            0.4336     4.1105    -1.7509 H       
  42 H42           -1.3273     4.3016    -1.9276 H       
  43 H43           -2.0620     4.2519     1.7215 H       
  44 H44           -1.8051     5.7209     0.7497 H       
  45 H45           -2.7846     4.3842     0.1002 H       
  46 H46            3.6234    -1.4585    -3.2703 H       
  47 H47            6.8337    -2.9475    -0.8670 H       
  48 H48            5.6386    -2.3442     1.1711 H       
  49 H49           -1.4583    -0.9653     4.1477 H       
  50 H50           -0.4135     0.6177     5.7127 H       
  51 H51            2.9291     1.0403     3.0975 H       
  52 H52            5.2104    -2.6729    -6.6616 H       
  53 H53            6.0001    -3.9413    -5.6998 H       
  54 H54            5.1022    -1.2340    -4.6535 H       
  55 H55            4.2261    -2.7593    -4.4351 H       
  56 H56            7.5899    -1.6423    -2.3865 H       
  57 H57            9.3485    -2.4030    -3.7657 H       
  58 H58            8.2983    -3.7959    -3.4672 H       
  59 H59            8.0181    -4.1057    -5.6502 H       
  60 H60            9.1828    -2.7998    -5.9456 H       
  61 H61            8.2417    -0.4554    -6.0125 H       
  62 H62            6.4870    -0.2757    -6.1902 H       
  63 H63            6.1638    -0.1892    -3.9713 H       
  64 H64            7.9117     0.0897    -3.8612 H       
@<TRIPOS>BOND
   1    1    2 1
   2    1    3 2
   3    1    4 am
   4    2   10 1
   5    2   36 1
   6    2   37 1
   7    4    5 1
   8    4   38 1
   9    5    6 1
  10    5    7 1
  11    5   39 1
  12    6   40 1
  13    6   41 1
  14    6   42 1
  15    7   43 1
  16    7   44 1
  17    7   45 1
  18    8    9 2
  19    8   17 1
  20    9   10 1
  21    9   19 1
  22   10   11 am
  23   11   12 1
  24   11   18 2
  25   12   13 ar
  26   12   17 ar
  27   13   14 ar
  28   13   46 1
  29   14   15 ar
  30   14   30 1
  31   15   16 ar
  32   15   47 1
  33   16   17 ar
  34   16   48 1
  35   19   20 ar
  36   19   24 ar
  37   20   21 ar
  38   20   25 1
  39   21   22 ar
  40   21   49 1
  41   22   23 ar
  42   22   50 1
  43   23   24 ar
  44   23   26 1
  45   24   51 1
  46   27   28 1
  47   27   33 1
  48   27   34 1
  49   28   29 1
  50   28   52 1
  51   28   53 1
  52   29   30 1
  53   29   54 1
  54   29   55 1
  55   30   31 1
  56   31   32 1
  57   31   35 1
  58   31   56 1
  59   32   33 1
  60   32   57 1
  61   32   58 1
  62   33   59 1
  63   33   60 1
  64   34   35 1
  65   34   61 1
  66   34   62 1
  67   35   63 1
  68   35   64 1

#	End of record

