#	Name: ASD02448138
#	Creating user name:	WinNT
#	Creation time:	15. 06. 2019 20:21

#	Modifying user name:	WinNT
#	Modification time:	15. 06. 2019 20:21

#	Program:	/corina/corina34_cracker 3.40 0067  02.08.2006

@<TRIPOS>MOLECULE
ASD02448138
  85   91    0    0    0
SMALL
NO_CHARGES


@<TRIPOS>ATOM
   1 C1            -0.2019    -6.4685     3.4829 C.ar    
   2 C2             0.3223    -5.4170     2.7562 C.ar    
   3 C3             0.2192    -5.4081     1.3711 C.ar    
   4 C4            -0.4109    -6.4562     0.7171 C.ar    
   5 C5            -0.9369    -7.5115     1.4496 C.ar    
   6 C6            -0.8304    -7.5145     2.8349 C.ar    
   7 N7            -1.5727    -8.5689     0.7949 N.am    
   8 C8            -1.7391    -9.9510     1.2630 C.3     
   9 C9            -2.4820   -10.7776     0.2636 C.2     
  10 N10           -2.8491   -10.1214    -0.8461 N.am    
  11 S11           -2.3233    -8.5493    -0.6949 S.o2    
  12 O12           -2.7326   -11.9507     0.4425 O.2     
  13 O13           -3.4787    -7.7300    -0.5796 O.2     
  14 O14           -1.3054    -8.3523    -1.6666 O.2     
  15 N15            0.7512    -4.3402     0.6347 N.pl3   
  16 C16            1.6683    -4.4296    -0.3783 C.2     
  17 C17            0.4483    -3.0244     0.7897 C.2     
  18 N18            1.1378    -2.3289    -0.0707 N.2     
  19 C19            1.9010    -3.1618    -0.8073 C.2     
  20 C20            2.8299    -2.7640    -1.8936 C.ar    
  21 C21            2.9732    -1.4194    -2.2343 C.ar    
  22 C22            3.5666    -3.7323    -2.5731 C.ar    
  23 C23            4.4296    -3.3574    -3.5824 C.ar    
  24 C24            4.5648    -2.0216    -3.9209 C.ar    
  25 C25            3.8399    -1.0549    -3.2462 C.ar    
  26 C26           -1.8701    -2.2754     1.1365 C.ar    
  27 C27           -2.7606    -3.3323     1.0785 C.ar    
  28 C28           -2.2109    -1.0468     0.6001 C.ar    
  29 C29           -3.4428    -0.8689     0.0039 C.ar    
  30 C30           -4.3440    -1.9303    -0.0575 C.ar    
  31 C31           -3.9949    -3.1662     0.4839 C.ar    
  32 C32           -5.6697    -1.7452    -0.6965 C.ar    
  33 Cl33           5.6529    -1.5572    -5.1914 Cl      
  34 Cl34           2.0637    -0.2062    -1.3889 Cl      
  35 C35           -0.5260    -2.4615     1.7922 C.3     
  36 C36           -6.5700    -2.8082    -0.7569 C.ar    
  37 C37           -7.8013    -2.6343    -1.3511 C.ar    
  38 C38           -8.1460    -1.3996    -1.8907 C.ar    
  39 C39           -7.2492    -0.3380    -1.8314 C.ar    
  40 C40           -6.0194    -0.5064    -1.2324 C.ar    
  41 S41           -9.7203    -1.1800    -2.6509 S.3     
  42 C42           -9.6801     0.5550    -3.1789 C.3     
  43 C43          -10.9990     0.9087    -3.8691 C.3     
  44 C44          -10.9651     2.3721    -4.3144 C.3     
  45 C45          -12.2303     2.6915    -5.1132 C.3     
  46 C46          -12.1964     4.1549    -5.5585 C.3     
  47 C47          -12.1280     5.0611    -4.3277 C.3     
  48 C48          -10.8627     4.7417    -3.5289 C.3     
  49 C49          -10.8966     3.2783    -3.0836 C.3     
  50 H50           -0.1164    -6.4751     4.5595 H       
  51 H51            0.8127    -4.6008     3.2658 H       
  52 H52           -0.4926    -6.4511    -0.3598 H       
  53 H53           -1.2390    -8.3353     3.4057 H       
  54 H54           -0.7565   -10.3917     1.4311 H       
  55 H55           -2.2913    -9.9455     2.2028 H       
  56 H56           -3.3351   -10.4938    -1.5985 H       
  57 H57            2.1194    -5.3328    -0.7616 H       
  58 H58            3.4625    -4.7746    -2.3100 H       
  59 H59            5.0011    -4.1074    -4.1091 H       
  60 H60            3.9486    -0.0143    -3.5143 H       
  61 H61           -2.4893    -4.2894     1.4990 H       
  62 H62           -1.5117    -0.2250     0.6482 H       
  63 H63           -3.7081     0.0909    -0.4140 H       
  64 H64           -4.6894    -3.9921     0.4391 H       
  65 H65           -0.6232    -3.1507     2.6310 H       
  66 H66           -0.1614    -1.4996     2.1526 H       
  67 H67           -6.3025    -3.7673    -0.3387 H       
  68 H68           -8.4989    -3.4575    -1.3981 H       
  69 H69           -7.5184     0.6199    -2.2512 H       
  70 H70           -5.3234     0.3182    -1.1862 H       
  71 H71           -9.5421     1.1965    -2.3086 H       
  72 H72           -8.8545     0.7040    -3.8747 H       
  73 H73          -11.1371     0.2672    -4.7395 H       
  74 H74          -11.8246     0.7597    -3.1733 H       
  75 H75          -10.0883     2.5414    -4.9395 H       
  76 H76          -12.2791     2.0459    -5.9901 H       
  77 H77          -13.1071     2.5222    -4.4882 H       
  78 H78          -11.3196     4.3243    -6.1836 H       
  79 H79          -13.0978     4.3825    -6.1276 H       
  80 H80          -12.1038     6.1036    -4.6449 H       
  81 H81          -13.0047     4.8918    -3.7026 H       
  82 H82           -9.9860     4.9110    -4.1540 H       
  83 H83          -10.8140     5.3872    -2.6520 H       
  84 H84          -11.7734     3.1089    -2.4585 H       
  85 H85           -9.9953     3.0507    -2.5145 H       
@<TRIPOS>BOND
   1    1    2 ar
   2    1    6 ar
   3    1   50 1
   4    2    3 ar
   5    2   51 1
   6    3    4 ar
   7    3   15 1
   8    4    5 ar
   9    4   52 1
  10    5    6 ar
  11    5    7 1
  12    6   53 1
  13    7    8 1
  14    7   11 am
  15    8    9 1
  16    8   54 1
  17    8   55 1
  18    9   10 am
  19    9   12 2
  20   10   11 am
  21   10   56 1
  22   11   13 2
  23   11   14 2
  24   15   16 1
  25   15   17 1
  26   16   19 2
  27   16   57 1
  28   17   18 2
  29   17   35 1
  30   18   19 1
  31   19   20 1
  32   20   21 ar
  33   20   22 ar
  34   21   34 1
  35   21   25 ar
  36   22   23 ar
  37   22   58 1
  38   23   24 ar
  39   23   59 1
  40   24   25 ar
  41   24   33 1
  42   25   60 1
  43   26   27 ar
  44   26   28 ar
  45   26   35 1
  46   27   31 ar
  47   27   61 1
  48   28   29 ar
  49   28   62 1
  50   29   30 ar
  51   29   63 1
  52   30   31 ar
  53   30   32 1
  54   31   64 1
  55   32   36 ar
  56   32   40 ar
  57   35   65 1
  58   35   66 1
  59   36   37 ar
  60   36   67 1
  61   37   38 ar
  62   37   68 1
  63   38   39 ar
  64   38   41 1
  65   39   40 ar
  66   39   69 1
  67   40   70 1
  68   41   42 1
  69   42   43 1
  70   42   71 1
  71   42   72 1
  72   43   44 1
  73   43   73 1
  74   43   74 1
  75   44   45 1
  76   44   49 1
  77   44   75 1
  78   45   46 1
  79   45   76 1
  80   45   77 1
  81   46   47 1
  82   46   78 1
  83   46   79 1
  84   47   48 1
  85   47   80 1
  86   47   81 1
  87   48   49 1
  88   48   82 1
  89   48   83 1
  90   49   84 1
  91   49   85 1

#	End of record

