#	Name: ASD03730176
#	Creating user name:	WinNT
#	Creation time:	15. 06. 2019 20:44

#	Modifying user name:	WinNT
#	Modification time:	15. 06. 2019 20:44

#	Program:	/corina/corina34_cracker 3.40 0067  02.08.2006

@<TRIPOS>MOLECULE
ASD03730176
  38   41    0    0    0
SMALL
NO_CHARGES


@<TRIPOS>ATOM
   1 C1            -0.0184     1.5028     0.0103 C.2     
   2 C2             0.0021    -0.0041     0.0020 C.3     
   3 O3             1.0197     2.1211     0.0037 O.2     
   4 O4            -1.1898     2.1580     0.0194 O.3     
   5 O5             5.6611    -1.2198     1.3884 O.3     
   6 C6             4.5879    -0.2833     1.1744 C.3     
   7 C7             3.4658    -1.1792     0.6321 C.3     
   8 C8             3.8218    -2.5398     1.1680 C.ar    
   9 C9             5.1424    -2.4615     1.6027 C.ar    
  10 C10            5.7332    -3.5889     2.1653 C.ar    
  11 C11            5.0207    -4.7661     2.2795 C.ar    
  12 C12            3.7121    -4.8349     1.8355 C.ar    
  13 C13            3.1157    -3.7175     1.2797 C.ar    
  14 N14            1.3897    -0.4735    -0.0138 N.am    
  15 C15            2.1130    -0.7212     1.0964 C.2     
  16 C16            3.4017    -1.1538    -0.8661 C.ar    
  17 C17            4.3026    -1.4569    -1.8626 C.ar    
  18 C18            3.9361    -1.3292    -3.1905 C.ar    
  19 C19            2.6632    -0.8965    -3.5150 C.ar    
  20 C20            1.7573    -0.5914    -2.5206 C.ar    
  21 C21            2.1173    -0.7175    -1.1811 C.ar    
  22 O22            1.7438    -0.5978     2.2451 O.2     
  23 Cl23           5.7700    -6.1654     2.9825 Cl      
  24 C24           -1.1335     3.6089     0.0270 C.3     
  25 H25           -0.4983    -0.3791     0.8948 H       
  26 H26           -0.5153    -0.3696    -0.8850 H       
  27 H27            4.2900     0.1847     2.1126 H       
  28 H28            4.8720     0.4690     0.4386 H       
  29 H29            6.7544    -3.5430     2.5139 H       
  30 H30            3.1583    -5.7580     1.9223 H       
  31 H31            2.0942    -3.7682     0.9329 H       
  32 H32            5.2963    -1.7942    -1.6072 H       
  33 H33            4.6426    -1.5665    -3.9721 H       
  34 H34            2.3773    -0.7969    -4.5517 H       
  35 H35            0.7650    -0.2543    -2.7817 H       
  36 H36           -0.6017     3.9472     0.9164 H       
  37 H37           -0.6102     3.9569    -0.8636 H       
  38 H38           -2.1463     4.0118     0.0340 H       
@<TRIPOS>BOND
   1    1    2 1
   2    1    3 2
   3    1    4 1
   4    2   14 1
   5    2   25 1
   6    2   26 1
   7    4   24 1
   8    5    6 1
   9    5    9 1
  10    6    7 1
  11    6   27 1
  12    6   28 1
  13    7    8 1
  14    7   15 1
  15    7   16 1
  16    8    9 ar
  17    8   13 ar
  18    9   10 ar
  19   10   11 ar
  20   10   29 1
  21   11   12 ar
  22   11   23 1
  23   12   13 ar
  24   12   30 1
  25   13   31 1
  26   14   15 am
  27   14   21 1
  28   15   22 2
  29   16   17 ar
  30   16   21 ar
  31   17   18 ar
  32   17   32 1
  33   18   19 ar
  34   18   33 1
  35   19   20 ar
  36   19   34 1
  37   20   21 ar
  38   20   35 1
  39   24   36 1
  40   24   37 1
  41   24   38 1

#	End of record

