#	Name: ASD03091655
#	Creating user name:	WinNT
#	Creation time:	15. 06. 2019 20:31

#	Modifying user name:	WinNT
#	Modification time:	15. 06. 2019 20:31

#	Program:	/corina/corina34_cracker 3.40 0067  02.08.2006

@<TRIPOS>MOLECULE
ASD03091655
  40   43    0    0    0
SMALL
NO_CHARGES


@<TRIPOS>ATOM
   1 C1            -0.0161     1.3340     0.0094 C.2     
   2 C2             0.0021    -0.0041     0.0020 C.2     
   3 C3             1.2785    -0.5922    -0.0133 C.ar    
   4 C4             2.3077     0.3576    -0.0181 C.ar    
   5 S5             1.6169     1.9761    -0.0028 S.3     
   6 C6             3.6419    -0.0616    -0.0326 C.ar    
   7 C7             3.9449    -1.4022    -0.0428 C.ar    
   8 C8             2.9276    -2.3482    -0.0386 C.ar    
   9 C9             1.6233    -1.9645    -0.0240 C.ar    
  10 C10           -1.2350     2.1525     0.0198 C.2     
  11 O11           -2.3275     1.6168     0.0222 O.2     
  12 N12           -1.1438     3.4972     0.0266 N.am    
  13 N13            5.3591    -1.8391    -0.0587 N.pl3   
  14 O14            6.2524    -1.0111    -0.0627 O.2     
  15 O15            5.6295    -3.0267    -0.0677 O.2     
  16 Cl16          -1.4535    -0.9501     0.0114 Cl      
  17 N17           -2.8651     5.9167     1.8178 N.3     
  18 C18           -2.8492     4.4876     1.4778 C.3     
  19 C19           -2.3601     4.3138     0.0370 C.3     
  20 C20           -2.0557     5.6967    -0.5526 C.3     
  21 C21           -0.9871     6.3739     0.3147 C.3     
  22 C22           -1.5144     6.4912     1.7475 C.3     
  23 C23           -3.7962     6.6548     0.9532 C.3     
  24 C24           -3.3345     6.5422    -0.5025 C.3     
  25 H25            4.4363     0.6700    -0.0363 H       
  26 H26            3.1753    -3.3993    -0.0474 H       
  27 H27            0.8445    -2.7128    -0.0206 H       
  28 H28           -0.2729     3.9242     0.0247 H       
  29 H29           -2.1783     3.9600     2.1557 H       
  30 H30           -3.8558     4.0803     1.5717 H       
  31 H31           -3.1345     3.8266    -0.5554 H       
  32 H32           -1.6985     5.5968    -1.5776 H       
  33 H33           -0.0773     5.7736     0.3085 H       
  34 H34           -0.7737     7.3679    -0.0784 H       
  35 H35           -1.5504     7.5415     2.0370 H       
  36 H36           -0.8532     5.9496     2.4239 H       
  37 H37           -4.7962     6.2324     1.0514 H       
  38 H38           -3.8134     7.7037     1.2492 H       
  39 H39           -3.1305     7.5368    -0.8989 H       
  40 H40           -4.1128     6.0629    -1.0963 H       
@<TRIPOS>BOND
   1    1    2 2
   2    1    5 1
   3    1   10 1
   4    2    3 1
   5    2   16 1
   6    3    4 ar
   7    3    9 ar
   8    4    5 1
   9    4    6 ar
  10    6    7 ar
  11    6   25 1
  12    7    8 ar
  13    7   13 1
  14    8    9 ar
  15    8   26 1
  16    9   27 1
  17   10   11 2
  18   10   12 am
  19   12   19 1
  20   12   28 1
  21   13   14 2
  22   13   15 2
  23   17   18 1
  24   17   22 1
  25   17   23 1
  26   18   19 1
  27   18   29 1
  28   18   30 1
  29   19   20 1
  30   19   31 1
  31   20   21 1
  32   20   24 1
  33   20   32 1
  34   21   22 1
  35   21   33 1
  36   21   34 1
  37   22   35 1
  38   22   36 1
  39   23   24 1
  40   23   37 1
  41   23   38 1
  42   24   39 1
  43   24   40 1

#	End of record

