#	Name: ASD05060113
#	Creating user name:	WinNT
#	Creation time:	15. 06. 2019 20:56

#	Modifying user name:	WinNT
#	Modification time:	15. 06. 2019 20:56

#	Program:	/corina/corina34_cracker 3.40 0067  02.08.2006

@<TRIPOS>MOLECULE
ASD05060113
  44   46    0    0    0
SMALL
NO_CHARGES


@<TRIPOS>ATOM
   1 C1            -0.0167     1.3778     0.0096 C.ar    
   2 C2             0.0021    -0.0041     0.0020 C.ar    
   3 C3             1.2107    -0.6794    -0.0131 C.ar    
   4 C4             2.3993     0.0307    -0.0206 C.ar    
   5 C5             2.3781     1.4125    -0.0130 C.ar    
   6 C6             1.1707     2.0857     0.0021 C.ar    
   7 C7             1.1489     3.5926     0.0099 C.3     
   8 N8             1.1548     4.0739     1.3935 N.pl3   
   9 C9             2.4262     4.3330     2.0736 C.3     
  10 C10           -0.0544     4.2862     2.0657 C.ar    
  11 C11            2.8384     5.7636     1.8401 C.ar    
  12 C12            2.4328     6.7513     2.7182 C.ar    
  13 C13            2.8105     8.0635     2.5053 C.ar    
  14 C14            3.5955     8.3888     1.4122 C.ar    
  15 C15            4.0012     7.3986     0.5334 C.ar    
  16 C16            3.6266     6.0863     0.7512 C.ar    
  17 C17           -1.2610     4.0397     1.4183 C.ar    
  18 C18           -2.4581     4.2466     2.0729 C.ar    
  19 C19           -2.4667     4.7024     3.3826 C.ar    
  20 C20           -1.2556     4.9527     4.0418 C.ar    
  21 C21           -0.0469     4.7355     3.3746 C.ar    
  22 O22           -3.6453     4.9062     4.0243 O.3     
  23 C23           -1.2565     5.4374     5.4339 C.2     
  24 O24           -2.3090     5.6210     6.0127 O.2     
  25 O25           -0.0900     5.6770     6.0647 O.3     
  26 F26            1.2302    -2.0303    -0.0201 F       
  27 F27            3.9651     9.6713     1.2028 F       
  28 H28           -0.9593     1.9048     0.0169 H       
  29 H29           -0.9257    -0.5570     0.0082 H       
  30 H30            3.3426    -0.4950    -0.0321 H       
  31 H31            3.3051     1.9666    -0.0189 H       
  32 H32            2.0287     3.9713    -0.5103 H       
  33 H33            0.2490     3.9455    -0.4938 H       
  34 H34            2.3083     4.1588     3.1431 H       
  35 H35            3.1920     3.6652     1.6789 H       
  36 H36            1.8201     6.4974     3.5706 H       
  37 H37            2.4932     8.8351     3.1912 H       
  38 H38            4.6136     7.6512    -0.3196 H       
  39 H39            3.9463     5.3133     0.0682 H       
  40 H40           -1.2607     3.6849     0.3982 H       
  41 H41           -3.3908     4.0534     1.5637 H       
  42 H42            0.8904     4.9220     3.8776 H       
  43 H43           -3.9729     4.1310     4.5007 H       
  44 H44           -0.1412     5.9938     6.9769 H       
@<TRIPOS>BOND
   1    1    2 ar
   2    1    6 ar
   3    1   28 1
   4    2    3 ar
   5    2   29 1
   6    3    4 ar
   7    3   26 1
   8    4    5 ar
   9    4   30 1
  10    5    6 ar
  11    5   31 1
  12    6    7 1
  13    7    8 1
  14    7   32 1
  15    7   33 1
  16    8    9 1
  17    8   10 1
  18    9   11 1
  19    9   34 1
  20    9   35 1
  21   10   17 ar
  22   10   21 ar
  23   11   12 ar
  24   11   16 ar
  25   12   13 ar
  26   12   36 1
  27   13   14 ar
  28   13   37 1
  29   14   15 ar
  30   14   27 1
  31   15   16 ar
  32   15   38 1
  33   16   39 1
  34   17   18 ar
  35   17   40 1
  36   18   19 ar
  37   18   41 1
  38   19   20 ar
  39   19   22 1
  40   20   21 ar
  41   20   23 1
  42   21   42 1
  43   22   43 1
  44   23   24 2
  45   23   25 1
  46   25   44 1

#	End of record

