#	Name: ASD03330652
#	Creating user name:	WinNT
#	Creation time:	15. 06. 2019 20:37

#	Modifying user name:	WinNT
#	Modification time:	15. 06. 2019 20:37

#	Program:	/corina/corina34_cracker 3.40 0067  02.08.2006

@<TRIPOS>MOLECULE
ASD03330652
  57   58    0    0    0
SMALL
NO_CHARGES


@<TRIPOS>ATOM
   1 C1             0.3765     1.5236     1.1829 C.2     
   2 N2             0.4301     0.2084     1.5219 N.pl3   
   3 C3             1.6266     1.8848     0.7790 C.2     
   4 N4             2.4177     0.7936     0.8582 N.2     
   5 C5             1.7071    -0.2206     1.2980 C.2     
   6 C6             2.2044    -1.5901     1.5130 C.2     
   7 C7             2.0412     3.2273     0.3341 C.2     
   8 O8             1.2324     4.1351     0.3051 O.2     
   9 C9             3.7288     4.7834    -0.4830 C.3     
  10 N10            3.3167     3.4489    -0.0407 N.am    
  11 C11            3.4174     4.9459    -1.9721 C.3     
  12 C12            1.9041     4.8778    -2.1871 C.3     
  13 C13            3.9411     6.2989    -2.4579 C.3     
  14 C14            4.0956     3.8237    -2.7604 C.3     
  15 C15            5.2094     4.9521    -0.2581 C.2     
  16 N16            5.7315     6.1852    -0.1050 N.am    
  17 O17            5.9310     3.9784    -0.2148 O.2     
  18 C18            7.1491     6.3442     0.2285 C.3     
  19 C19           -0.6886    -0.5808     2.0446 C.3     
  20 C20           -1.9292    -0.3256     1.1829 C.3     
  21 C21           -2.6854     0.8878     1.7143 C.3     
  22 N22           -1.7637     1.8829     2.2658 N.3     
  23 C23           -0.8509     2.3960     1.2334 C.3     
  24 C24           -2.4976     2.9793     2.9117 C.3     
  25 C25            2.7471    -2.2654     0.5058 C.2     
  26 C26            2.0976    -2.2254     2.8753 C.3     
  27 H27            3.1865     5.5384     0.0862 H       
  28 H28            3.9618     2.7249    -0.0176 H       
  29 H29            1.4210     5.6773    -1.6254 H       
  30 H30            1.6822     4.9936    -3.2479 H       
  31 H31            1.5310     3.9139    -1.8409 H       
  32 H32            5.0020     6.3837    -2.2225 H       
  33 H33            3.8008     6.3770    -3.5360 H       
  34 H34            3.3936     7.1000    -1.9614 H       
  35 H35            3.7225     2.8598    -2.4143 H       
  36 H36            3.8737     3.9395    -3.8213 H       
  37 H37            5.1737     3.8722    -2.6073 H       
  38 H38            5.1686     6.9674    -0.2157 H       
  39 H39            7.3566     5.8506     1.1780 H       
  40 H40            7.7593     5.8953    -0.5552 H       
  41 H41            7.3863     7.4049     0.3109 H       
  42 H42           -0.4338    -1.6401     2.0117 H       
  43 H43           -0.8929    -0.2860     3.0738 H       
  44 H44           -1.6235    -0.1398     0.1533 H       
  45 H45           -2.5789    -1.2002     1.2150 H       
  46 H46           -3.2542     1.3389     0.9014 H       
  47 H47           -3.3738     0.5661     2.4958 H       
  48 H48           -0.5618     3.4181     1.4780 H       
  49 H49           -1.3501     2.3792     0.2646 H       
  50 H50           -3.1072     2.5804     3.7225 H       
  51 H51           -1.7891     3.7042     3.3126 H       
  52 H52           -3.1410     3.4669     2.1794 H       
  53 H53            3.1857    -3.2366     0.6811 H       
  54 H54            2.7496    -1.8432    -0.4882 H       
  55 H55            1.6291    -1.5252     3.5670 H       
  56 H56            1.4925    -3.1295     2.8082 H       
  57 H57            3.0938    -2.4809     3.2362 H       
@<TRIPOS>BOND
   1    1    2 1
   2    1    3 2
   3    1   23 1
   4    2   19 1
   5    2    5 1
   6    3    4 1
   7    3    7 1
   8    4    5 2
   9    5    6 1
  10    6   25 2
  11    6   26 1
  12    7    8 2
  13    7   10 am
  14    9   10 1
  15    9   11 1
  16    9   15 1
  17    9   27 1
  18   10   28 1
  19   11   12 1
  20   11   13 1
  21   11   14 1
  22   12   29 1
  23   12   30 1
  24   12   31 1
  25   13   32 1
  26   13   33 1
  27   13   34 1
  28   14   35 1
  29   14   36 1
  30   14   37 1
  31   15   16 am
  32   15   17 2
  33   16   18 1
  34   16   38 1
  35   18   39 1
  36   18   40 1
  37   18   41 1
  38   19   20 1
  39   19   42 1
  40   19   43 1
  41   20   21 1
  42   20   44 1
  43   20   45 1
  44   21   22 1
  45   21   46 1
  46   21   47 1
  47   22   23 1
  48   22   24 1
  49   23   48 1
  50   23   49 1
  51   24   50 1
  52   24   51 1
  53   24   52 1
  54   25   53 1
  55   25   54 1
  56   26   55 1
  57   26   56 1
  58   26   57 1

#	End of record

