#	Name: ASD02198744
#	Creating user name:	WinNT
#	Creation time:	15. 06. 2019 20:20

#	Modifying user name:	WinNT
#	Modification time:	15. 06. 2019 20:20

#	Program:	/corina/corina34_cracker 3.40 0067  02.08.2006

@<TRIPOS>MOLECULE
ASD02198744
  48   52    0    0    0
SMALL
NO_CHARGES


@<TRIPOS>ATOM
   1 C1            -0.0433     1.5015    -0.1151 C.2     
   2 C2            -0.0730     0.1619     0.0974 C.2     
   3 N3             1.0717    -0.5398     0.2602 N.pl3   
   4 N4             2.2361    -0.0050     0.2262 N.2     
   5 C5             2.4076     1.2844     0.0276 C.2     
   6 C6             1.2217     2.1356    -0.1606 C.2     
   7 C7             0.9803    -1.9171     0.4769 C.ar    
   8 C8             1.5830    -2.4874     1.5987 C.ar    
   9 C9             1.4927    -3.8504     1.8133 C.ar    
  10 C10            0.7982    -4.6525     0.9062 C.ar    
  11 C11            0.1969    -4.0759    -0.2151 C.ar    
  12 C12            0.2844    -2.7165    -0.4223 C.ar    
  13 C13            3.7645     1.8667    -0.0050 C.2     
  14 N14            4.3065     2.6065    -1.0182 N.pl3   
  15 N15            5.6085     2.9579    -0.6406 N.2     
  16 C16            5.8523     2.4584     0.5448 C.2     
  17 C17            4.7201     1.7714     0.9828 C.2     
  18 C18            3.6736     2.9509    -2.2193 C.ar    
  19 C19            3.8074     4.2340    -2.7334 C.ar    
  20 C20            3.1825     4.5703    -3.9182 C.ar    
  21 C21            2.4238     3.6310    -4.5923 C.ar    
  22 C22            2.2886     2.3525    -4.0830 C.ar    
  23 C23            2.9157     2.0083    -2.9016 C.ar    
  24 O24            1.3246     3.3386    -0.3484 O.2     
  25 C25            0.6997    -6.1093     1.1314 C.2     
  26 N26            1.2151    -6.7648     2.1452 N.2     
  27 O27            0.0622    -6.9855     0.3356 O.3     
  28 C28            0.2001    -8.2102     0.8814 C.2     
  29 C29            0.9196    -8.0663     2.0092 C.2     
  30 O30            2.2588    -1.7036     2.4798 O.3     
  31 C31            2.8508    -2.3548     3.6057 C.3     
  32 H32           -0.9547     2.0651    -0.2496 H       
  33 H33           -1.0227    -0.3507     0.1373 H       
  34 H34            1.9588    -4.2936     2.6808 H       
  35 H35           -0.3407    -4.6954    -0.9177 H       
  36 H36           -0.1815    -2.2724    -1.2896 H       
  37 H37            6.7760     2.5642     1.0944 H       
  38 H38            4.6142     1.2522     1.9239 H       
  39 H39            4.3993     4.9682    -2.2070 H       
  40 H40            3.2862     5.5680    -4.3185 H       
  41 H41            1.9355     3.8967    -5.5182 H       
  42 H42            1.6953     1.6212    -4.6118 H       
  43 H43            2.8100     1.0095    -2.5045 H       
  44 H44           -0.1959    -9.1347     0.4881 H       
  45 H45            1.2085    -8.8580     2.6846 H       
  46 H46            3.3579    -1.6166     4.2271 H       
  47 H47            2.0742    -2.8490     4.1893 H       
  48 H48            3.5718    -3.0953     3.2595 H       
@<TRIPOS>BOND
   1    1    2 2
   2    1    6 1
   3    1   32 1
   4    2    3 1
   5    2   33 1
   6    3    4 1
   7    3    7 1
   8    4    5 2
   9    5    6 1
  10    5   13 1
  11    6   24 2
  12    7    8 ar
  13    7   12 ar
  14    8    9 ar
  15    8   30 1
  16    9   10 ar
  17    9   34 1
  18   10   11 ar
  19   10   25 1
  20   11   12 ar
  21   11   35 1
  22   12   36 1
  23   13   14 1
  24   13   17 2
  25   14   15 1
  26   14   18 1
  27   15   16 2
  28   16   17 1
  29   16   37 1
  30   17   38 1
  31   18   19 ar
  32   18   23 ar
  33   19   20 ar
  34   19   39 1
  35   20   21 ar
  36   20   40 1
  37   21   22 ar
  38   21   41 1
  39   22   23 ar
  40   22   42 1
  41   23   43 1
  42   25   27 1
  43   25   26 2
  44   26   29 1
  45   27   28 1
  46   28   29 2
  47   28   44 1
  48   29   45 1
  49   30   31 1
  50   31   46 1
  51   31   47 1
  52   31   48 1

#	End of record

