#	Name: ASD00171060
#	Creating user name:	WinNT
#	Creation time:	15. 06. 2019 18:32

#	Modifying user name:	WinNT
#	Modification time:	15. 06. 2019 18:32

#	Program:	/corina/corina34_cracker 3.40 0067  02.08.2006

@<TRIPOS>MOLECULE
ASD00171060
  57   60    0    0    0
SMALL
NO_CHARGES


@<TRIPOS>ATOM
   1 C1            -0.1010     1.3224     0.0576 C.ar    
   2 C2            -0.0395    -0.0687     0.0689 C.ar    
   3 C3            -1.1879    -0.8077     0.0807 C.ar    
   4 C4            -2.4336    -0.1679     0.0814 C.ar    
   5 C5            -2.4982     1.2318     0.0706 C.ar    
   6 C6            -1.3365     1.9695     0.0641 C.ar    
   7 Cl7           -1.4088     3.7040     0.0506 Cl      
   8 C8            -3.6690    -0.9619     0.0931 C.2     
   9 C9            -4.8698    -0.3429     0.0939 C.2     
  10 C10           -6.0993    -1.1331     0.1055 C.2     
  11 N11           -7.2942    -0.5188     0.2115 N.am    
  12 O12           -6.0440    -2.3462     0.0195 O.2     
  13 C13           -7.3724     0.9322     0.4318 C.3     
  14 C14           -8.2385     1.5497    -0.6731 C.3     
  15 N15           -9.4867     0.7807    -0.7764 N.am    
  16 C16           -9.4085    -0.6703    -0.9966 C.3     
  17 C17           -8.5424    -1.2869     0.1027 C.3     
  18 S18            1.3860     2.2676     0.0424 S.3     
  19 C19            2.6387     1.0383     0.1980 C.ar    
  20 C20          -10.6816     1.3950    -0.6704 C.2     
  21 C21          -11.9499     0.5812    -0.6709 C.3     
  22 O22          -10.7361     2.6028    -0.5747 O.2     
  23 C23            3.2568     0.5288    -0.9360 C.ar    
  24 C24            4.2425    -0.4382    -0.8132 C.ar    
  25 C25            4.6083    -0.8985     0.4464 C.ar    
  26 C26            3.9897    -0.3864     1.5775 C.ar    
  27 C27            3.0127     0.5823     1.4559 C.ar    
  28 O28            4.8449    -0.9224    -1.9337 O.3     
  29 C29            5.5606    -2.1550    -1.7986 C.3     
  30 C30            6.4299    -2.0704    -0.5367 C.3     
  31 O31            5.5692    -1.8539     0.5867 O.3     
  32 C32            7.1884    -3.3598    -0.3547 C.2     
  33 O33            8.1140    -3.7267    -1.2549 O.3     
  34 O34            6.9634    -4.0633     0.6015 O.2     
  35 H35            0.9197    -0.5649     0.0679 H       
  36 H36           -1.1354    -1.8863     0.0890 H       
  37 H37           -3.4565     1.7300     0.0711 H       
  38 H38           -3.6175    -2.0407     0.1012 H       
  39 H39           -4.9213     0.7358     0.0859 H       
  40 H40           -7.8233     1.1308     1.4040 H       
  41 H41           -6.3715     1.3622     0.3953 H       
  42 H42           -8.4668     2.5857    -0.4230 H       
  43 H43           -7.7043     1.5091    -1.6224 H       
  44 H44          -10.4094    -1.1003    -0.9601 H       
  45 H45           -8.9576    -0.8689    -1.9689 H       
  46 H46           -8.3150    -2.3228    -0.1487 H       
  47 H47           -9.0744    -1.2468     1.0532 H       
  48 H48          -12.1537     0.2254     0.3391 H       
  49 H49          -12.7792     1.2009    -1.0121 H       
  50 H50          -11.8342    -0.2715    -1.3400 H       
  51 H51            2.9693     0.8856    -1.9140 H       
  52 H52            4.2758    -0.7429     2.5560 H       
  53 H53            2.5330     0.9789     2.3385 H       
  54 H54            4.8556    -2.9810    -1.7046 H       
  55 H55            6.1944    -2.3095    -2.6718 H       
  56 H56            7.1308    -1.2406    -0.6280 H       
  57 H57            8.5745    -4.5620    -1.0956 H       
@<TRIPOS>BOND
   1    1    2 ar
   2    1   18 1
   3    1    6 ar
   4    2    3 ar
   5    2   35 1
   6    3    4 ar
   7    3   36 1
   8    4    5 ar
   9    4    8 1
  10    5    6 ar
  11    5   37 1
  12    6    7 1
  13    8    9 2
  14    8   38 1
  15    9   10 1
  16    9   39 1
  17   10   11 am
  18   10   12 2
  19   11   13 1
  20   11   17 1
  21   13   14 1
  22   13   40 1
  23   13   41 1
  24   14   15 1
  25   14   42 1
  26   14   43 1
  27   15   16 1
  28   15   20 am
  29   16   17 1
  30   16   44 1
  31   16   45 1
  32   17   46 1
  33   17   47 1
  34   18   19 1
  35   19   23 ar
  36   19   27 ar
  37   20   21 1
  38   20   22 2
  39   21   48 1
  40   21   49 1
  41   21   50 1
  42   23   24 ar
  43   23   51 1
  44   24   25 ar
  45   24   28 1
  46   25   26 ar
  47   25   31 1
  48   26   27 ar
  49   26   52 1
  50   27   53 1
  51   28   29 1
  52   29   30 1
  53   29   54 1
  54   29   55 1
  55   30   31 1
  56   30   32 1
  57   30   56 1
  58   32   33 1
  59   32   34 2
  60   33   57 1

#	End of record

