#	Name: ASD00731007
#	Creating user name:	WinNT
#	Creation time:	15. 06. 2019 18:37

#	Modifying user name:	WinNT
#	Modification time:	15. 06. 2019 18:37

#	Program:	/corina/corina34_cracker 3.40 0067  02.08.2006

@<TRIPOS>MOLECULE
ASD00731007
 235  234    0    0    0
SMALL
NO_CHARGES


@<TRIPOS>ATOM
   1 C1             0.0273     1.1700     0.0200 C.2     
   2 O2             0.0267    -0.0423    -0.0170 O.2     
   3 N3             2.4214     1.0280     0.4113 N.3     
   4 C4             1.3321     1.9238     0.0003 C.3     
   5 C5             1.6020     2.4390    -1.4148 C.3     
   6 C6             2.8609     3.3086    -1.4095 C.3     
   7 C7             3.1308     3.8239    -2.8246 C.3     
   8 N8             4.3362     4.6564    -2.8195 N.pl3   
   9 C9             4.7781     5.2330    -3.9862 C.2     
  10 N10            4.1985     4.9439    -5.1155 N.2     
  11 N11            5.8375     6.1195    -3.9607 N.am    
  12 C12           -3.5025     1.9921    -0.4569 C.2     
  13 O13           -3.2481     3.1212    -0.8194 O.2     
  14 N14           -1.1391     1.8431     0.0733 N.am    
  15 C15           -2.4077     1.1105     0.0864 C.3     
  16 C16           -2.7463     0.7027     1.5217 C.3     
  17 C17           -1.6998    -0.2909     2.0300 C.3     
  18 C18           -1.9663    -0.6031     3.5039 C.3     
  19 C19           -1.7824    -1.5815     1.2123 C.3     
  20 C20           -7.1570     1.9303    -0.5189 C.2     
  21 O21           -7.2095     0.9850     0.2391 O.2     
  22 N22           -4.7643     1.5258    -0.5400 N.am    
  23 C23           -5.8286     2.3828    -1.0682 C.3     
  24 C24           -5.8491     2.2881    -2.5951 C.3     
  25 C25           -4.5486     2.8635    -3.1593 C.3     
  26 C26           -4.5691     2.7688    -4.6862 C.3     
  27 N27           -3.3238     3.3198    -5.2265 N.pl3   
  28 C28           -3.1143     3.3419    -6.5851 C.2     
  29 N29           -2.0063     3.8321    -7.0657 N.2     
  30 N30           -4.0733     2.8468    -7.4367 N.pl3   
  31 C31          -10.6786     2.5500    -1.2787 C.2     
  32 O32          -10.4107     3.1530    -2.2963 O.2     
  33 N33           -8.2867     2.5761    -0.8701 N.am    
  34 C34           -9.5780     2.1362    -0.3361 C.3     
  35 C35           -9.8099     2.7797     1.0325 C.3     
  36 O36           -9.9266     4.1957     0.8794 O.3     
  37 C37          -14.3247     2.7758    -1.1450 C.2     
  38 O38          -14.3508     2.5500     0.0463 O.2     
  39 N39          -11.9606     2.2500    -0.9909 N.am    
  40 C40          -13.0306     2.6523    -1.9072 C.3     
  41 C41          -13.1842     1.5985    -3.0058 C.3     
  42 C42          -13.5344     0.2500    -2.3735 C.3     
  43 C43          -13.8103    -0.7741    -3.4763 C.3     
  44 C44          -11.8703     1.4731    -3.7796 C.3     
  45 C45          -17.8703     3.0588    -1.9889 C.2     
  46 O46          -17.6655     2.8387    -3.1639 O.2     
  47 N47          -15.4532     3.1371    -1.7873 N.am    
  48 C48          -16.7113     3.2572    -1.0463 C.3     
  49 C49          -16.8002     4.6477    -0.4143 C.3     
  50 C50          -15.6967     4.8030     0.6340 C.3     
  51 C51          -15.7857     6.1935     1.2660 C.3     
  52 N52          -14.7290     6.3422     2.2698 N.pl3   
  53 C53          -14.6102     7.5170     2.9740 C.2     
  54 N54          -15.4378     8.4985     2.7486 N.2     
  55 N55          -13.6186     7.6565     3.9160 N.pl3   
  56 C56          -21.4799     3.6284    -1.8933 C.2     
  57 O57          -21.4140     4.2264    -0.8402 O.2     
  58 N58          -19.1343     3.1258    -1.5262 N.am    
  59 C59          -20.2610     2.9329    -2.4424 C.3     
  60 C60          -20.5495     1.4374    -2.5882 C.3     
  61 O61          -20.9883     0.9125    -1.3337 O.3     
  62 C62          -25.0700     3.6033    -2.5817 C.2     
  63 O63          -24.9746     2.6617    -3.3401 O.2     
  64 N64          -22.6433     3.5860    -2.5724 N.am    
  65 C65          -23.8282     4.2621    -2.0385 C.3     
  66 C66          -23.8072     5.7338    -2.4565 C.3     
  67 C67          -22.6135     6.4327    -1.8027 C.3     
  68 C68          -22.5196     7.8704    -2.3175 C.3     
  69 C69          -22.7991     6.4458    -0.2841 C.3     
  70 C70          -27.8268     4.0091    -4.0993 C.2     
  71 O71          -27.1250     4.8784    -4.5714 O.2     
  72 N72          -26.2865     4.0605    -2.2248 N.am    
  73 C73          -27.4936     3.4200    -2.7528 C.3     
  74 C74          -28.6591     3.6565    -1.7902 C.3     
  75 C75          -28.3748     2.9517    -0.4623 C.3     
  76 C76          -29.5403     3.1881     0.5004 C.3     
  77 N77          -29.2681     2.5133     1.7718 N.pl3   
  78 C78          -30.1806     2.5857     2.7977 C.2     
  79 N79          -31.2879     3.2548     2.6389 N.2     
  80 N80          -29.9251     1.9524     3.9909 N.pl3   
  81 C81          -30.0390     5.3992    -5.8998 C.2     
  82 O82          -30.3175     5.7776    -4.7866 O.2     
  83 N83          -28.9047     3.5700    -4.7789 N.am    
  84 C84          -29.2286     4.1427    -6.0879 C.3     
  85 C85          -30.0380     3.1306    -6.9011 C.3     
  86 C86          -29.1843     1.9238    -7.1942 C.2     
  87 O87          -28.0410     1.8778    -6.7921 O.2     
  88 N88          -29.6913     0.8957    -7.9030 N.am    
  89 O89          -30.4515     6.0981    -6.9690 O.3     
  90 C90            6.3563     6.5157    -2.7816 C.2     
  91 O91            5.9517     6.0295    -1.7471 O.2     
  92 C92           18.0005    16.8641     7.6354 C.3     
  93 C93           16.9010    15.8007     7.6021 C.3     
  94 C94           16.4918    15.5354     6.1519 C.3     
  95 C95           15.3922    14.4720     6.1187 C.3     
  96 C96           14.9830    14.2067     4.6685 C.3     
  97 C97           13.8835    13.1433     4.6352 C.3     
  98 C98           13.4743    12.8780     3.1850 C.3     
  99 C99           12.3748    11.8146     3.1518 C.3     
 100 C100          11.9656    11.5493     1.7016 C.3     
 101 C101          10.8660    10.4859     1.6683 C.3     
 102 C102          10.4568    10.2205     0.2181 C.3     
 103 C103           9.3573     9.1572     0.1848 C.3     
 104 C104           8.9481     8.8918    -1.2654 C.3     
 105 C105           7.8486     7.8284    -1.2986 C.3     
 106 C106           7.4394     7.5631    -2.7488 C.3     
 107 H107           2.2997     0.7250     1.3660 H       
 108 H108           2.4947     0.2380    -0.2122 H       
 109 H109           1.2753     2.7665     0.6892 H       
 110 H110           1.7470     1.5939    -2.0877 H       
 111 H111           0.7525     3.0318    -1.7538 H       
 112 H112           2.7159     4.1537    -0.7366 H       
 113 H113           3.7105     2.7158    -1.0705 H       
 114 H114           3.2758     2.9787    -3.4975 H       
 115 H115           2.2813     4.4166    -3.1636 H       
 116 H116           4.8225     4.8008    -1.9927 H       
 117 H117           4.4616     5.4044    -5.9276 H       
 118 H118           6.2079     6.4567    -4.7913 H       
 119 H119          -1.1386     2.8127     0.1030 H       
 120 H120          -2.3184     0.2183    -0.5333 H       
 121 H121          -2.7482     1.5865     2.1597 H       
 122 H122          -3.7312     0.2363     1.5441 H       
 123 H123          -0.7054     0.1429     1.9245 H       
 124 H124          -2.9607    -1.0369     3.6093 H       
 125 H125          -1.2208    -1.3110     3.8660 H       
 126 H126          -1.9075     0.3164     4.0864 H       
 127 H127          -2.7768    -2.0154     1.3178 H       
 128 H128          -1.5925    -1.3591     0.1623 H       
 129 H129          -1.0369    -2.2894     1.5744 H       
 130 H130          -4.9677     0.6228    -0.2501 H       
 131 H131          -5.6451     3.4152    -0.7706 H       
 132 H132          -5.9438     1.2439    -2.8931 H       
 133 H133          -6.6956     2.8548    -2.9830 H       
 134 H134          -4.4539     3.9077    -2.8613 H       
 135 H135          -3.7021     2.2968    -2.7715 H       
 136 H136          -4.6638     1.7246    -4.9842 H       
 137 H137          -5.4156     3.3355    -5.0741 H       
 138 H138          -2.6472     3.6692    -4.6256 H       
 139 H139          -1.8585     3.8477    -8.0243 H       
 140 H140          -4.8979     2.4819    -7.0790 H       
 141 H141          -3.9255     2.8623    -8.3952 H       
 142 H142          -8.2447     3.3321    -1.4763 H       
 143 H143          -9.5776     1.0512    -0.2320 H       
 144 H144         -10.7272     2.3846     1.4690 H       
 145 H145          -8.9688     2.5532     1.6877 H       
 146 H146         -10.0753     4.6700     1.7089 H       
 147 H147         -12.1749     1.7678    -0.1770 H       
 148 H148         -12.7811     3.6130    -2.3577 H       
 149 H149         -13.9803     1.8978    -3.6875 H       
 150 H150         -12.7001    -0.0917    -1.7609 H       
 151 H151         -14.4217     0.3605    -1.7501 H       
 152 H152         -12.9230    -0.8846    -4.0997 H       
 153 H153         -14.0598    -1.7348    -3.0258 H       
 154 H154         -14.6446    -0.4324    -4.0889 H       
 155 H155         -11.0743     1.1738    -3.0978 H       
 156 H156         -11.9798     0.7224    -4.5622 H       
 157 H157         -11.6208     2.4338    -4.2300 H       
 158 H158         -15.4323     3.3177    -2.7401 H       
 159 H159         -16.7457     2.4995    -0.2636 H       
 160 H160         -16.6768     5.4066    -1.1870 H       
 161 H161         -17.7733     4.7689     0.0617 H       
 162 H162         -15.8202     4.0442     1.4066 H       
 163 H163         -14.7237     4.6819     0.1579 H       
 164 H164         -15.6622     6.9524     0.4933 H       
 165 H165         -16.7587     6.3147     1.7421 H       
 166 H166         -14.1132     5.6118     2.4375 H       
 167 H167         -15.3540     9.3273     3.2455 H       
 168 H168         -13.0028     6.9261     4.0838 H       
 169 H169         -13.5348     8.4854     4.4129 H       
 170 H170         -19.2981     3.3018    -0.5864 H       
 171 H171         -20.0122     3.3517    -3.4175 H       
 172 H172         -21.3280     1.2888    -3.3366 H       
 173 H173         -19.6419     0.9211    -2.9007 H       
 174 H174         -21.1899    -0.0331    -1.3518 H       
 175 H175         -22.6960     3.1077    -3.4146 H       
 176 H176         -23.8266     4.1933    -0.9507 H       
 177 H177         -23.7193     5.8024    -3.5408 H       
 178 H178         -24.7308     6.2158    -2.1357 H       
 179 H179         -21.6976     5.8969    -2.0522 H       
 180 H180         -23.4355     8.4061    -2.0680 H       
 181 H181         -21.6692     8.3683    -1.8517 H       
 182 H182         -22.3874     7.8611    -3.3994 H       
 183 H183         -22.8660     5.4215     0.0826 H       
 184 H184         -21.9487     6.9436     0.1816 H       
 185 H185         -23.7150     6.9815    -0.0346 H       
 186 H186         -26.3628     4.8136    -1.6182 H       
 187 H187         -27.3205     2.3490    -2.8576 H       
 188 H188         -28.7753     4.7262    -1.6162 H       
 189 H189         -29.5758     3.2573    -2.2244 H       
 190 H190         -28.2586     1.8820    -0.6363 H       
 191 H191         -27.4582     3.3509    -0.0280 H       
 192 H192         -29.6565     4.2579     0.6744 H       
 193 H193         -30.4569     2.7890     0.0661 H       
 194 H194         -28.4441     2.0154     1.8900 H       
 195 H195         -31.9317     3.3059     3.3627 H       
 196 H196         -29.1011     1.4545     4.1090 H       
 197 H197         -30.5689     2.0035     4.7146 H       
 198 H198         -29.4660     2.8748    -4.4014 H       
 199 H199         -28.3067     4.3809    -6.6184 H       
 200 H200         -30.9155     2.8252    -6.3312 H       
 201 H201         -30.3547     3.5879    -7.8385 H       
 202 H202         -30.6057     0.9326    -8.2246 H       
 203 H203         -29.1418     0.1190    -8.0916 H       
 204 H204         -30.9686     6.8972    -6.7983 H       
 205 H205          18.2920    17.0531     8.6685 H       
 206 H206          18.8647    16.5109     7.0728 H       
 207 H207          17.6281    17.7859     7.1885 H       
 208 H208          17.2733    14.8789     8.0490 H       
 209 H209          16.0367    16.1540     8.1647 H       
 210 H210          16.1194    16.4572     5.7050 H       
 211 H211          17.3560    15.1822     5.5894 H       
 212 H212          15.7646    13.5502     6.5656 H       
 213 H213          14.5280    14.8253     6.6812 H       
 214 H214          14.6106    15.1285     4.2216 H       
 215 H215          15.8472    13.8535     4.1059 H       
 216 H216          14.2559    12.2215     5.0821 H       
 217 H217          13.0193    13.4965     5.1978 H       
 218 H218          13.1019    13.7998     2.7381 H       
 219 H219          14.3385    12.5247     2.6225 H       
 220 H220          12.7471    10.8928     3.5987 H       
 221 H221          11.5105    12.1678     3.7143 H       
 222 H222          11.5932    12.4711     1.2547 H       
 223 H223          12.8298    11.1960     1.1390 H       
 224 H224          11.2384     9.5641     2.1152 H       
 225 H225          10.0018    10.8391     2.2308 H       
 226 H226          10.0844    11.1423    -0.2288 H       
 227 H227          11.3210     9.8673    -0.3444 H       
 228 H228           9.7297     8.2354     0.6317 H       
 229 H229           8.4931     9.5104     0.7474 H       
 230 H230           8.5757     9.8136    -1.7123 H       
 231 H231           9.8123     8.5386    -1.8279 H       
 232 H232           8.2209     6.9067    -0.8517 H       
 233 H233           6.9843     8.1817    -0.7361 H       
 234 H234           8.3036     7.2099    -3.3114 H       
 235 H235           7.0670     8.4849    -3.1957 H       
@<TRIPOS>BOND
   1    1    2 2
   2    1    4 1
   3    1   14 am
   4    3    4 1
   5    3  107 1
   6    3  108 1
   7    4    5 1
   8    4  109 1
   9    5    6 1
  10    5  110 1
  11    5  111 1
  12    6    7 1
  13    6  112 1
  14    6  113 1
  15    7    8 1
  16    7  114 1
  17    7  115 1
  18    8    9 1
  19    8  116 1
  20    9   10 2
  21    9   11 1
  22   10  117 1
  23   11   90 am
  24   11  118 1
  25   12   13 2
  26   12   15 1
  27   12   22 am
  28   14   15 1
  29   14  119 1
  30   15   16 1
  31   15  120 1
  32   16   17 1
  33   16  121 1
  34   16  122 1
  35   17   18 1
  36   17   19 1
  37   17  123 1
  38   18  124 1
  39   18  125 1
  40   18  126 1
  41   19  127 1
  42   19  128 1
  43   19  129 1
  44   20   21 2
  45   20   23 1
  46   20   33 am
  47   22   23 1
  48   22  130 1
  49   23   24 1
  50   23  131 1
  51   24   25 1
  52   24  132 1
  53   24  133 1
  54   25   26 1
  55   25  134 1
  56   25  135 1
  57   26   27 1
  58   26  136 1
  59   26  137 1
  60   27   28 1
  61   27  138 1
  62   28   29 2
  63   28   30 1
  64   29  139 1
  65   30  140 1
  66   30  141 1
  67   31   32 2
  68   31   34 1
  69   31   39 am
  70   33   34 1
  71   33  142 1
  72   34   35 1
  73   34  143 1
  74   35   36 1
  75   35  144 1
  76   35  145 1
  77   36  146 1
  78   37   38 2
  79   37   40 1
  80   37   47 am
  81   39   40 1
  82   39  147 1
  83   40   41 1
  84   40  148 1
  85   41   42 1
  86   41   44 1
  87   41  149 1
  88   42   43 1
  89   42  150 1
  90   42  151 1
  91   43  152 1
  92   43  153 1
  93   43  154 1
  94   44  155 1
  95   44  156 1
  96   44  157 1
  97   45   46 2
  98   45   48 1
  99   45   58 am
 100   47   48 1
 101   47  158 1
 102   48   49 1
 103   48  159 1
 104   49   50 1
 105   49  160 1
 106   49  161 1
 107   50   51 1
 108   50  162 1
 109   50  163 1
 110   51   52 1
 111   51  164 1
 112   51  165 1
 113   52   53 1
 114   52  166 1
 115   53   54 2
 116   53   55 1
 117   54  167 1
 118   55  168 1
 119   55  169 1
 120   56   57 2
 121   56   59 1
 122   56   64 am
 123   58   59 1
 124   58  170 1
 125   59   60 1
 126   59  171 1
 127   60   61 1
 128   60  172 1
 129   60  173 1
 130   61  174 1
 131   62   63 2
 132   62   65 1
 133   62   72 am
 134   64   65 1
 135   64  175 1
 136   65   66 1
 137   65  176 1
 138   66   67 1
 139   66  177 1
 140   66  178 1
 141   67   68 1
 142   67   69 1
 143   67  179 1
 144   68  180 1
 145   68  181 1
 146   68  182 1
 147   69  183 1
 148   69  184 1
 149   69  185 1
 150   70   71 2
 151   70   73 1
 152   70   83 am
 153   72   73 1
 154   72  186 1
 155   73   74 1
 156   73  187 1
 157   74   75 1
 158   74  188 1
 159   74  189 1
 160   75   76 1
 161   75  190 1
 162   75  191 1
 163   76   77 1
 164   76  192 1
 165   76  193 1
 166   77   78 1
 167   77  194 1
 168   78   79 2
 169   78   80 1
 170   79  195 1
 171   80  196 1
 172   80  197 1
 173   81   82 2
 174   81   84 1
 175   81   89 1
 176   83   84 1
 177   83  198 1
 178   84   85 1
 179   84  199 1
 180   85   86 1
 181   85  200 1
 182   85  201 1
 183   86   87 2
 184   86   88 am
 185   88  202 1
 186   88  203 1
 187   89  204 1
 188   90   91 2
 189   90  106 1
 190   92   93 1
 191   92  205 1
 192   92  206 1
 193   92  207 1
 194   93   94 1
 195   93  208 1
 196   93  209 1
 197   94   95 1
 198   94  210 1
 199   94  211 1
 200   95   96 1
 201   95  212 1
 202   95  213 1
 203   96   97 1
 204   96  214 1
 205   96  215 1
 206   97   98 1
 207   97  216 1
 208   97  217 1
 209   98   99 1
 210   98  218 1
 211   98  219 1
 212   99  100 1
 213   99  220 1
 214   99  221 1
 215  100  101 1
 216  100  222 1
 217  100  223 1
 218  101  102 1
 219  101  224 1
 220  101  225 1
 221  102  103 1
 222  102  226 1
 223  102  227 1
 224  103  104 1
 225  103  228 1
 226  103  229 1
 227  104  105 1
 228  104  230 1
 229  104  231 1
 230  105  106 1
 231  105  232 1
 232  105  233 1
 233  106  234 1
 234  106  235 1

#	End of record

