#	Name: ASD01440124
#	Creating user name:	WinNT
#	Creation time:	15. 06. 2019 19:21

#	Modifying user name:	WinNT
#	Modification time:	15. 06. 2019 19:21

#	Program:	/corina/corina34_cracker 3.40 0067  02.08.2006

@<TRIPOS>MOLECULE
ASD01440124
  90   95    0    0    0
SMALL
NO_CHARGES


@<TRIPOS>ATOM
   1 N1             0.0107     1.3387    -0.0086 N.ar    
   2 C2             0.0204     0.0163    -0.0144 C.ar    
   3 C3             1.2210    -0.6826    -0.0240 C.ar    
   4 C4             2.4110     0.0235    -0.0276 C.ar    
   5 C5             2.3578     1.4107    -0.0214 C.ar    
   6 C6             1.1289     2.0394    -0.0118 C.ar    
   7 C7             1.2272    -2.1896    -0.0300 C.3     
   8 C8             0.4966    -2.7282     1.1816 C.2     
   9 C9             0.4319    -2.7182    -1.2020 C.ar    
  10 N10            2.6014    -2.6960    -0.0681 N.am    
  11 C11           -0.6136    -3.4613    -0.6610 C.ar    
  12 C12            0.5756    -2.5864    -2.5603 C.ar    
  13 C13           -0.3389    -3.2054    -3.4194 C.ar    
  14 C14           -1.3906    -3.9527    -2.8824 C.ar    
  15 C15           -1.5258    -4.0776    -1.5194 C.ar    
  16 C16           -0.1984    -3.0739    -4.8384 C.1     
  17 N17           -0.5452    -3.4456     0.7292 N.am    
  18 C18           -2.9304    -3.0885     2.0550 C.ar    
  19 C19           -2.6741    -1.9332     2.7785 C.ar    
  20 C20           -4.2082    -3.3462     1.5969 C.ar    
  21 C21           -5.2308    -2.4535     1.8588 C.ar    
  22 C22           -4.9779    -1.3010     2.5799 C.ar    
  23 C23           -3.7023    -1.0390     3.0404 C.ar    
  24 O24           -1.4182    -1.6777     3.2305 O.3     
  25 O25            0.7960    -2.5466     2.3427 O.2     
  26 C26            3.4659    -2.3736     0.9144 C.2     
  27 O27            3.1310    -1.5973     1.7882 O.2     
  28 N28            4.7014    -2.9118     0.9283 N.am    
  29 C29            5.6984    -2.4876     1.9229 C.3     
  30 C30            6.2720    -3.7367     2.6005 C.3     
  31 N31            6.7728    -4.6604     1.5739 N.3     
  32 C32            5.6862    -5.1307     0.7044 C.3     
  33 C33            5.0866    -3.9431    -0.0470 C.3     
  34 C34            7.4847    -5.7908     2.1849 C.3     
  35 C35            7.8825    -6.7929     1.0977 C.3     
  36 C36            8.6764    -7.9375     1.7316 C.3     
  37 N37            9.8744    -7.3991     2.3883 N.3     
  38 C38            9.5162    -6.4701     3.4677 C.3     
  39 C39            8.7474    -5.2818     2.8856 C.3     
  40 C40           10.7321    -8.4817     2.8885 C.3     
  41 O41           -1.1532    -0.6644    -0.0103 O.3     
  42 C42           -2.3532     0.1116     0.0001 C.3     
  43 C43           -3.5647    -0.8227     0.0033 C.3     
  44 N44           -0.0870    -2.9695    -5.9641 N.1     
  45 C45           -1.2278    -0.4689     3.9686 C.3     
  46 C46            0.2384    -0.3549     4.3909 C.3     
  47 S47           -1.6260    -4.2230     1.7141 S.o2    
  48 O48           -2.1959    -5.2683     0.9383 O.2     
  49 O49           -0.9563    -4.4467     2.9472 O.2     
  50 H50            3.3596    -0.4928    -0.0347 H       
  51 H51            3.2682     1.9919    -0.0236 H       
  52 H52            1.0820     3.1184    -0.0073 H       
  53 H53            2.8891    -3.2633    -0.8004 H       
  54 H54            1.3918    -2.0063    -2.9649 H       
  55 H55           -2.1001    -4.4332    -3.5399 H       
  56 H56           -2.3411    -4.6565    -1.1112 H       
  57 H57           -4.4083    -4.2456     1.0335 H       
  58 H58           -6.2288    -2.6564     1.4993 H       
  59 H59           -5.7784    -0.6051     2.7832 H       
  60 H60           -3.5054    -0.1391     3.6042 H       
  61 H61            6.4996    -1.9393     1.4275 H       
  62 H62            5.2230    -1.8517     2.6697 H       
  63 H63            7.0899    -3.4491     3.2611 H       
  64 H64            5.4904    -4.2271     3.1808 H       
  65 H65            6.0792    -5.8540    -0.0101 H       
  66 H66            4.9127    -5.6016     1.3111 H       
  67 H67            4.2083    -4.2683    -0.6046 H       
  68 H68            5.8275    -3.5318    -0.7326 H       
  69 H69            6.8359    -6.2800     2.9115 H       
  70 H70            6.9853    -7.1911     0.6239 H       
  71 H71            8.4985    -6.2933     0.3500 H       
  72 H72            8.0551    -8.4454     2.4694 H       
  73 H73            8.9735    -8.6455     0.9580 H       
  74 H74            8.8910    -6.9849     4.1973 H       
  75 H75           10.4232    -6.1124     3.9550 H       
  76 H76            9.3770    -4.7583     2.1660 H       
  77 H77            8.4681    -4.6003     3.6891 H       
  78 H78           11.0436    -9.1126     2.0560 H       
  79 H79           11.6120    -8.0552     3.3701 H       
  80 H80           10.1772    -9.0807     3.6105 H       
  81 H81           -2.3739     0.7366     0.8929 H       
  82 H82           -2.3845     0.7442    -0.8870 H       
  83 H83           -3.5439    -1.4477    -0.8895 H       
  84 H84           -3.5334    -1.4553     0.8904 H       
  85 H85           -4.4800    -0.2308     0.0113 H       
  86 H86           -1.4934     0.3839     3.3439 H       
  87 H87           -1.8614    -0.4810     4.8554 H       
  88 H88            0.5040    -1.2077     5.0155 H       
  89 H89            0.8720    -0.3427     3.5040 H       
  90 H90            0.3837     0.5671     4.9538 H       
@<TRIPOS>BOND
   1    1    2 ar
   2    1    6 ar
   3    2    3 ar
   4    2   41 1
   5    3    4 ar
   6    3    7 1
   7    4    5 ar
   8    4   50 1
   9    5    6 ar
  10    5   51 1
  11    6   52 1
  12    7    8 1
  13    7    9 1
  14    7   10 1
  15    8   17 am
  16    8   25 2
  17    9   11 ar
  18    9   12 ar
  19   10   26 am
  20   10   53 1
  21   11   17 1
  22   11   15 ar
  23   12   13 ar
  24   12   54 1
  25   13   14 ar
  26   13   16 1
  27   14   15 ar
  28   14   55 1
  29   15   56 1
  30   16   44 3
  31   17   47 am
  32   18   19 ar
  33   18   20 ar
  34   18   47 1
  35   19   24 1
  36   19   23 ar
  37   20   21 ar
  38   20   57 1
  39   21   22 ar
  40   21   58 1
  41   22   23 ar
  42   22   59 1
  43   23   60 1
  44   24   45 1
  45   26   27 2
  46   26   28 am
  47   28   29 1
  48   28   33 1
  49   29   30 1
  50   29   61 1
  51   29   62 1
  52   30   31 1
  53   30   63 1
  54   30   64 1
  55   31   32 1
  56   31   34 1
  57   32   33 1
  58   32   65 1
  59   32   66 1
  60   33   67 1
  61   33   68 1
  62   34   35 1
  63   34   39 1
  64   34   69 1
  65   35   36 1
  66   35   70 1
  67   35   71 1
  68   36   37 1
  69   36   72 1
  70   36   73 1
  71   37   38 1
  72   37   40 1
  73   38   39 1
  74   38   74 1
  75   38   75 1
  76   39   76 1
  77   39   77 1
  78   40   78 1
  79   40   79 1
  80   40   80 1
  81   41   42 1
  82   42   43 1
  83   42   81 1
  84   42   82 1
  85   43   83 1
  86   43   84 1
  87   43   85 1
  88   45   46 1
  89   45   86 1
  90   45   87 1
  91   46   88 1
  92   46   89 1
  93   46   90 1
  94   47   48 2
  95   47   49 2

#	End of record

