#	Name: ASD07300684
#	Creating user name:	WinNT
#	Creation time:	15. 06. 2019 21:10

#	Modifying user name:	WinNT
#	Modification time:	15. 06. 2019 21:10

#	Program:	/corina/corina34_cracker 3.40 0067  02.08.2006

@<TRIPOS>MOLECULE
ASD07300684
  48   49    0    0    0
SMALL
NO_CHARGES


@<TRIPOS>ATOM
   1 C1            -0.0168     1.3876     0.0097 C.ar    
   2 C2             0.0021    -0.0041     0.0020 C.ar    
   3 C3             1.2046    -0.6595    -0.0130 C.ar    
   4 C4             2.3807     0.1017    -0.0201 C.ar    
   5 C5             2.2870     1.4923    -0.0117 C.ar    
   6 N6             1.1102     2.0834     0.0026 N.ar    
   7 O7             5.0756     0.0235    -0.0456 O.3     
   8 B8             3.7842    -0.6016    -0.0367 Du      
   9 O9             4.0565    -2.0102    -0.0459 O.3     
  10 C10            5.1903    -2.1688     0.8328 C.3     
  11 C11            5.8812    -0.7900     0.8329 C.3     
  12 C12            7.3073    -0.9082     0.2914 C.3     
  13 C13            5.8929    -0.1997     2.2445 C.3     
  14 C14            4.7243    -2.5318     2.2442 C.3     
  15 C15            6.1387    -3.2403     0.2911 C.3     
  16 O16           -1.2043     2.0395     0.0188 O.3     
  17 C17           -1.1603     3.4678     0.0264 C.3     
  18 C18           -2.5864     4.0219     0.0361 C.3     
  19 C19           -3.3289     3.5412    -1.2123 C.3     
  20 C20           -3.3171     3.5276     1.2861 C.3     
  21 O21           -2.5423     5.4502     0.0436 O.3     
  22 C22           -3.8292     6.0714     0.0531 C.3     
  23 H23           -0.9227    -0.5618     0.0082 H       
  24 H24            1.2453    -1.7387    -0.0188 H       
  25 H25            3.1866     2.0898    -0.0171 H       
  26 H26            7.7611     0.0817     0.2437 H       
  27 H27            7.8950    -1.5458     0.9518 H       
  28 H28            7.2818    -1.3447    -0.7070 H       
  29 H29            4.8718    -0.1375     2.6207 H       
  30 H30            6.4837    -0.8389     2.9007 H       
  31 H31            6.3316     0.7977     2.2176 H       
  32 H32            4.1879    -3.4803     2.2170 H       
  33 H33            5.5899    -2.6225     2.9004 H       
  34 H34            4.0632    -1.7512     2.6205 H       
  35 H35            6.4732    -2.9583    -0.7073 H       
  36 H36            7.0012    -3.3295     0.9516 H       
  37 H37            5.6173    -4.1963     0.2431 H       
  38 H38           -0.6313     3.8102     0.9157 H       
  39 H39           -0.6397     3.8199    -0.8642 H       
  40 H40           -3.3624     2.4517    -1.2181 H       
  41 H41           -4.3448     3.9360    -1.2054 H       
  42 H42           -2.8083     3.8933    -2.1029 H       
  43 H43           -2.7881     3.8701     2.1755 H       
  44 H44           -4.3331     3.9224     1.2930 H       
  45 H45           -3.3507     2.4381     1.2803 H       
  46 H46           -4.3840     5.7714    -0.8360 H       
  47 H47           -4.3756     5.7617     0.9439 H       
  48 H48           -3.7097     7.1548     0.0584 H       
@<TRIPOS>BOND
   1    1    2 ar
   2    1    6 ar
   3    1   16 1
   4    2    3 ar
   5    2   23 1
   6    3    4 ar
   7    3   24 1
   8    4    5 ar
   9    4    8 1
  10    5    6 ar
  11    5   25 1
  12    7    8 1
  13    7   11 1
  14    8    9 1
  15    9   10 1
  16   10   11 1
  17   10   14 1
  18   10   15 1
  19   11   12 1
  20   11   13 1
  21   12   26 1
  22   12   27 1
  23   12   28 1
  24   13   29 1
  25   13   30 1
  26   13   31 1
  27   14   32 1
  28   14   33 1
  29   14   34 1
  30   15   35 1
  31   15   36 1
  32   15   37 1
  33   16   17 1
  34   17   18 1
  35   17   38 1
  36   17   39 1
  37   18   19 1
  38   18   20 1
  39   18   21 1
  40   19   40 1
  41   19   41 1
  42   19   42 1
  43   20   43 1
  44   20   44 1
  45   20   45 1
  46   21   22 1
  47   22   46 1
  48   22   47 1
  49   22   48 1

#	End of record

