#	Name: ASD00122071
#	Creating user name:	WinNT
#	Creation time:	15. 06. 2019 18:31

#	Modifying user name:	WinNT
#	Modification time:	15. 06. 2019 18:31

#	Program:	/corina/corina34_cracker 3.40 0067  02.08.2006

@<TRIPOS>MOLECULE
ASD00122071
  27   29    0    0    0
SMALL
NO_CHARGES


@<TRIPOS>ATOM
   1 C1            -0.0167     1.3781     0.0096 C.ar    
   2 C2             0.0021    -0.0041     0.0020 C.ar    
   3 C3             1.1709     2.0855     0.0021 C.ar    
   4 C4             2.3773     1.4107    -0.0131 C.ar    
   5 C5             2.3960     0.0285    -0.0203 C.ar    
   6 C6             1.2084    -0.6789    -0.0132 C.ar    
   7 C7             1.1505     3.5924     0.0099 C.3     
   8 S8             1.1583     4.1870     1.7194 S.3     
   9 C9             1.1320     5.9263     1.4386 C.ar    
  10 C10            1.1298     6.8290     2.5162 C.ar    
  11 C11            1.1083     8.2042     2.2292 C.ar    
  12 N12            1.0907     8.5992     0.9601 N.ar    
  13 C13            1.0932     7.7174    -0.0175 C.ar    
  14 N14            1.1194     6.4158     0.2021 N.ar    
  15 N15            1.1445     6.7028     3.8647 N.2     
  16 C16            1.1337     7.8842     4.4106 C.2     
  17 N17            1.1113     8.8440     3.4429 N.pl3   
  18 H18           -0.9592     1.9054     0.0170 H       
  19 H19           -0.9258    -0.5567     0.0083 H       
  20 H20            3.3051     1.9634    -0.0197 H       
  21 H21            3.3385    -0.4987    -0.0329 H       
  22 H22            1.2231    -1.7588    -0.0184 H       
  23 H23            2.0306     3.9704    -0.5103 H       
  24 H24            0.2509     3.9462    -0.4937 H       
  25 H25            1.0782     8.0722    -1.0374 H       
  26 H26            1.1407     8.0758     5.4735 H       
  27 H27            1.1002     9.8033     3.5861 H       
@<TRIPOS>BOND
   1    1    2 ar
   2    1    3 ar
   3    1   18 1
   4    2    6 ar
   5    2   19 1
   6    3    4 ar
   7    3    7 1
   8    4    5 ar
   9    4   20 1
  10    5    6 ar
  11    5   21 1
  12    6   22 1
  13    7    8 1
  14    7   23 1
  15    7   24 1
  16    8    9 1
  17    9   10 ar
  18    9   14 ar
  19   10   11 ar
  20   10   15 1
  21   11   12 ar
  22   11   17 1
  23   12   13 ar
  24   13   14 ar
  25   13   25 1
  26   15   16 2
  27   16   17 1
  28   16   26 1
  29   17   27 1

#	End of record

