#	Name: ASD01120229
#	Creating user name:	WinNT
#	Creation time:	15. 06. 2019 18:59

#	Modifying user name:	WinNT
#	Modification time:	15. 06. 2019 18:59

#	Program:	/corina/corina34_cracker 3.40 0067  02.08.2006

@<TRIPOS>MOLECULE
ASD01120229
  52   53    0    0    0
SMALL
NO_CHARGES


@<TRIPOS>ATOM
   1 C1            -0.0167     1.3791     0.0096 C.ar    
   2 C2             0.0021    -0.0041     0.0020 C.ar    
   3 C3            -1.1857    -0.7112     0.0100 C.ar    
   4 C4            -2.3919    -0.0365     0.0257 C.ar    
   5 C5            -2.4113     1.3460     0.0333 C.ar    
   6 C6            -1.2245     2.0540     0.0306 C.ar    
   7 S7            -3.9495     2.2052     0.0532 S.o2    
   8 N8            -4.3617     2.4358     1.6404 N.am    
   9 C9            -3.6007     3.2226     2.4268 C.2     
  10 N10           -3.9362     3.4102     3.7186 N.am    
  11 O11           -3.6957     3.4949    -0.4869 O.2     
  12 O12           -4.9146     1.3128    -0.4865 O.2     
  13 O13           -2.6116     3.7631     1.9709 O.2     
  14 C14           -3.4214     3.6690    14.3021 C.ar    
  15 C15           -2.2200     3.3012    14.8808 C.ar    
  16 C16           -1.1355     4.1565    14.8244 C.ar    
  17 C17           -1.2514     5.3790    14.1899 C.ar    
  18 C18           -2.4519     5.7472    13.6112 C.ar    
  19 C19           -3.5353     4.8907    13.6624 C.ar    
  20 S20           -2.5986     7.3057    12.8026 S.o2    
  21 N21           -2.1864     7.0752    11.2153 N.am    
  22 C22           -2.9473     6.2884    10.4290 C.2     
  23 N23           -2.6119     6.1008     9.1372 N.am    
  24 O24           -3.9808     7.6354    12.8144 O.2     
  25 O25           -1.5950     8.1431    13.3602 O.2     
  26 O26           -3.9364     5.7479    10.8849 O.2     
  27 C27           -2.8421     5.2021     6.8742 C.3     
  28 C28           -3.7059     4.3089     5.9815 C.3     
  29 Cl29          -4.7837     2.5952    14.3719 Cl      
  30 Cl30           1.4746     2.2678     0.0002 Cl      
  31 C31           -3.1091     4.2655     4.5734 C.3     
  32 C32           -3.4390     5.2455     8.2824 C.3     
  33 H33            0.9445    -0.5314    -0.0105 H       
  34 H34           -1.1712    -1.7911     0.0037 H       
  35 H35           -3.3197    -0.5894     0.0316 H       
  36 H36           -1.2398     3.1339     0.0365 H       
  37 H37           -5.1507     2.0046     2.0041 H       
  38 H38           -4.7253     2.9790     4.0823 H       
  39 H39           -2.1295     2.3462    15.3770 H       
  40 H40           -0.1976     3.8697    15.2766 H       
  41 H41           -0.4039     6.0471    14.1464 H       
  42 H42           -4.4730     5.1784    13.2103 H       
  43 H43           -1.3973     7.5064    10.8516 H       
  44 H44           -1.8228     6.5320     8.7734 H       
  45 H45           -1.8303     4.7994     6.9208 H       
  46 H46           -2.8133     6.2101     6.4606 H       
  47 H47           -3.7347     3.3009     6.3952 H       
  48 H48           -4.7178     4.7116     5.9350 H       
  49 H49           -2.0973     3.8628     4.6199 H       
  50 H50           -3.0803     5.2735     4.1597 H       
  51 H51           -3.4677     4.2375     8.6960 H       
  52 H52           -4.4508     5.6482     8.2358 H       
@<TRIPOS>BOND
   1    1    2 ar
   2    1   30 1
   3    1    6 ar
   4    2    3 ar
   5    2   33 1
   6    3    4 ar
   7    3   34 1
   8    4    5 ar
   9    4   35 1
  10    5    6 ar
  11    5    7 1
  12    6   36 1
  13    7    8 am
  14    7   11 2
  15    7   12 2
  16    8    9 am
  17    8   37 1
  18    9   10 am
  19    9   13 2
  20   10   31 1
  21   10   38 1
  22   14   15 ar
  23   14   29 1
  24   14   19 ar
  25   15   16 ar
  26   15   39 1
  27   16   17 ar
  28   16   40 1
  29   17   18 ar
  30   17   41 1
  31   18   19 ar
  32   18   20 1
  33   19   42 1
  34   20   21 am
  35   20   24 2
  36   20   25 2
  37   21   22 am
  38   21   43 1
  39   22   23 am
  40   22   26 2
  41   23   32 1
  42   23   44 1
  43   27   28 1
  44   27   32 1
  45   27   45 1
  46   27   46 1
  47   28   31 1
  48   28   47 1
  49   28   48 1
  50   31   49 1
  51   31   50 1
  52   32   51 1
  53   32   52 1

#	End of record

