#	Name: ASD06770014
#	Creating user name:	WinNT
#	Creation time:	15. 06. 2019 21:08

#	Modifying user name:	WinNT
#	Modification time:	15. 06. 2019 21:08

#	Program:	/corina/corina34_cracker 3.40 0067  02.08.2006

@<TRIPOS>MOLECULE
ASD06770014
  37   37    0    0    0
SMALL
NO_CHARGES


@<TRIPOS>ATOM
   1 C1            -0.0187     1.5258     0.0104 C.3     
   2 C2             0.0021    -0.0041     0.0020 C.3     
   3 C3             0.7421    -0.5109     1.2415 C.3     
   4 C4             2.1775     0.0187     1.2307 C.3     
   5 C5             2.1567     1.5485     1.2391 C.3     
   6 C6             1.4167     2.0553    -0.0004 C.3     
   7 C7            -0.7475     2.0250    -1.2105 C.2     
   8 O8            -1.2053     1.2350    -2.0087 O.2     
   9 N9            -0.8907     3.3494    -1.4153 N.am    
  10 N10           -1.5513     3.8019    -2.5219 N.3     
  11 O11            2.8686    -0.4547     2.3884 O.3     
  12 C12            4.2739    -0.6283     2.1959 C.3     
  13 C13            5.0028    -0.3953     3.5207 C.3     
  14 C14            4.8300     1.0636     3.9481 C.3     
  15 C15            4.5495    -2.0512     1.7056 C.3     
  16 H16           -0.5289     1.8773     0.9072 H       
  17 H17           -1.0205    -0.3814     0.0098 H       
  18 H18            0.5123    -0.3556    -0.8948 H       
  19 H19            0.2319    -0.1594     2.1383 H       
  20 H20            0.7568    -1.6008     1.2356 H       
  21 H21            2.6876    -0.3328     0.3339 H       
  22 H22            1.6465     1.9000     2.1359 H       
  23 H23            3.1793     1.9258     1.2314 H       
  24 H24            1.9269     1.7038    -0.8972 H       
  25 H25            1.4019     3.1452     0.0056 H       
  26 H26           -0.5245     3.9812    -0.7768 H       
  27 H27           -2.4815     3.4140    -2.5716 H       
  28 H28           -1.5787     4.8104    -2.5396 H       
  29 H29            4.6301     0.0868     1.4545 H       
  30 H30            4.5847    -1.0499     4.2855 H       
  31 H31            6.0632    -0.6140     3.3954 H       
  32 H32            5.3493     1.2297     4.8920 H       
  33 H33            5.2481     1.7182     3.1834 H       
  34 H34            3.7696     1.2824     4.0735 H       
  35 H35            4.1932    -2.7664     2.4470 H       
  36 H36            4.0302    -2.2172     0.7617 H       
  37 H37            5.6214    -2.1837     1.5587 H       
@<TRIPOS>BOND
   1    1    2 1
   2    1    6 1
   3    1    7 1
   4    1   16 1
   5    2    3 1
   6    2   17 1
   7    2   18 1
   8    3    4 1
   9    3   19 1
  10    3   20 1
  11    4    5 1
  12    4   11 1
  13    4   21 1
  14    5    6 1
  15    5   22 1
  16    5   23 1
  17    6   24 1
  18    6   25 1
  19    7    8 2
  20    7    9 am
  21    9   10 1
  22    9   26 1
  23   10   27 1
  24   10   28 1
  25   11   12 1
  26   12   13 1
  27   12   15 1
  28   12   29 1
  29   13   14 1
  30   13   30 1
  31   13   31 1
  32   14   32 1
  33   14   33 1
  34   14   34 1
  35   15   35 1
  36   15   36 1
  37   15   37 1

#	End of record

