#	Name: ASD01708022
#	Creating user name:	WinNT
#	Creation time:	15. 06. 2019 19:22

#	Modifying user name:	WinNT
#	Modification time:	15. 06. 2019 19:22

#	Program:	/corina/corina34_cracker 3.40 0067  02.08.2006

@<TRIPOS>MOLECULE
ASD01708022
  67   71    0    0    0
SMALL
NO_CHARGES


@<TRIPOS>ATOM
   1 C1             0.3245     1.4459    -0.1048 C.2     
   2 C2             0.3071     0.0970    -0.1222 C.2     
   3 C3             1.5438     2.1417    -0.0466 C.2     
   4 C4             2.7125     1.4472    -0.0078 C.2     
   5 C5             2.6772     0.0381    -0.0267 C.2     
   6 N6             1.4717    -0.6158    -0.0833 N.pl3   
   7 C7             3.6706    -0.9280     0.0022 C.2     
   8 C8             3.0441    -2.1772    -0.0385 C.2     
   9 N9             1.7333    -1.9918    -0.0894 N.2     
  10 C10            3.7299    -3.4867    -0.0259 C.2     
  11 N11            3.0112    -4.6230     0.0678 N.am    
  12 O12            4.9421    -3.5387    -0.1002 O.2     
  13 C13            3.6490    -5.9447    -0.0506 C.3     
  14 C14            1.5630    -4.5930     0.2981 C.3     
  15 C15            1.1933    -5.6143     1.3452 C.ar    
  16 C16            2.0825    -6.5698     1.7876 C.ar    
  17 C17            3.4939    -6.6621     1.2893 C.3     
  18 C18           -0.0953    -5.5679     1.8638 C.ar    
  19 C19           -0.5041    -6.4747     2.8173 C.ar    
  20 C20            0.3884    -7.4524     3.2660 C.ar    
  21 C21            1.6808    -7.4921     2.7448 C.ar    
  22 Cl22           2.7955    -8.7034     3.2959 Cl      
  23 Cl23          -2.1162    -6.4031     3.4573 Cl      
  24 C24           -0.0343    -8.4354     4.2840 C.2     
  25 N25            0.1356    -8.1649     5.5933 N.am    
  26 O26           -0.5355    -9.4884     3.9408 O.2     
  27 C27           -0.2837    -9.1400     6.6031 C.3     
  28 C28           -1.7488    -8.9541     6.9030 C.2     
  29 O29           -2.3546    -9.7427     7.8046 O.3     
  30 O30           -2.3781    -8.0953     6.3319 O.2     
  31 C31            0.5293    -8.9311     7.8823 C.3     
  32 N32            1.9588    -8.9935     7.5681 N.pl3   
  33 C33            2.8839    -8.8335     8.5605 C.2     
  34 N34            4.2133    -8.9856     8.2859 N.pl3   
  35 N35            2.4926    -8.5315     9.7861 N.2     
  36 C36            5.3101    -8.8426     9.2545 C.3     
  37 C37            4.7855    -9.3267     6.9708 C.3     
  38 C38            6.2359    -8.7846     7.0167 C.3     
  39 C39            6.6300    -9.0772     8.4900 C.3     
  40 C40            1.1722    -8.5092    10.0896 C.1     
  41 N41            0.0653    -8.4906    10.3441 N.1     
  42 H42           -0.6050     1.9947    -0.1403 H       
  43 H43           -0.6375    -0.4246    -0.1671 H       
  44 H44            1.5529     3.2216    -0.0332 H       
  45 H45            3.6569     1.9693     0.0367 H       
  46 H46            4.7346    -0.7485     0.0472 H       
  47 H47            3.1604    -6.5210    -0.8363 H       
  48 H48            4.7068    -5.8242    -0.2842 H       
  49 H49            1.2708    -3.6003     0.6406 H       
  50 H50            1.0431    -4.8226    -0.6320 H       
  51 H51            3.7608    -7.7111     1.1610 H       
  52 H52            4.1628    -6.2099     2.0215 H       
  53 H53           -0.7839    -4.8122     1.5158 H       
  54 H54            0.5356    -7.3247     5.8671 H       
  55 H55           -0.1151   -10.1488     6.2262 H       
  56 H56           -3.2955    -9.5857     7.9633 H       
  57 H57            0.2930    -7.9557     8.3077 H       
  58 H58            0.2810    -9.7111     8.6020 H       
  59 H59            2.2485    -9.1486     6.6555 H       
  60 H60            5.3011    -7.8388     9.6792 H       
  61 H61            5.2040    -9.5836    10.0468 H       
  62 H62            4.7888   -10.4072     6.8271 H       
  63 H63            4.2233    -8.8390     6.1744 H       
  64 H64            6.8789    -9.3298     6.3256 H       
  65 H65            6.2599    -7.7148     6.8088 H       
  66 H66            7.4004    -8.3841     8.8280 H       
  67 H67            6.9619   -10.1093     8.6027 H       
@<TRIPOS>BOND
   1    1    2 2
   2    1    3 1
   3    1   42 1
   4    2    6 1
   5    2   43 1
   6    3    4 2
   7    3   44 1
   8    4    5 1
   9    4   45 1
  10    5    6 1
  11    5    7 2
  12    6    9 1
  13    7    8 1
  14    7   46 1
  15    8    9 2
  16    8   10 1
  17   10   11 am
  18   10   12 2
  19   11   13 1
  20   11   14 1
  21   13   17 1
  22   13   47 1
  23   13   48 1
  24   14   15 1
  25   14   49 1
  26   14   50 1
  27   15   16 ar
  28   15   18 ar
  29   16   17 1
  30   16   21 ar
  31   17   51 1
  32   17   52 1
  33   18   19 ar
  34   18   53 1
  35   19   20 ar
  36   19   23 1
  37   20   21 ar
  38   20   24 1
  39   21   22 1
  40   24   25 am
  41   24   26 2
  42   25   27 1
  43   25   54 1
  44   27   28 1
  45   27   31 1
  46   27   55 1
  47   28   29 1
  48   28   30 2
  49   29   56 1
  50   31   32 1
  51   31   57 1
  52   31   58 1
  53   32   33 1
  54   32   59 1
  55   33   34 1
  56   33   35 2
  57   34   36 1
  58   34   37 1
  59   35   40 1
  60   36   39 1
  61   36   60 1
  62   36   61 1
  63   37   38 1
  64   37   62 1
  65   37   63 1
  66   38   39 1
  67   38   64 1
  68   38   65 1
  69   39   66 1
  70   39   67 1
  71   40   41 3

#	End of record

