#	Name: ASD01914148
#	Creating user name:	WinNT
#	Creation time:	15. 06. 2019 20:02

#	Modifying user name:	WinNT
#	Modification time:	15. 06. 2019 20:02

#	Program:	/corina/corina34_cracker 3.40 0067  02.08.2006

@<TRIPOS>MOLECULE
ASD01914148
  46   49    0    0    0
SMALL
NO_CHARGES


@<TRIPOS>ATOM
   1 C1            -0.9772     1.6481    -0.2096 C.2     
   2 C2            -0.7942     0.1911    -0.2020 C.2     
   3 N3            -1.7471    -0.7268    -0.1266 N.2     
   4 C4            -1.1110    -1.9071    -0.1528 C.2     
   5 N5             0.1644    -1.6671    -0.2404 N.2     
   6 O6             0.3719    -0.4727    -0.2761 O.3     
   7 C7            -1.7576    -3.2670    -0.0917 C.3     
   8 C8            -1.4094    -4.0554    -1.3563 C.3     
   9 C9            -2.0924    -5.4242    -1.3104 C.3     
  10 C10           -1.5795    -6.2058    -0.0968 C.3     
  11 N11           -1.7793    -5.3910     1.1094 N.am    
  12 C12           -1.2409    -4.0241     1.1357 C.3     
  13 C13           -0.0895    -6.5057    -0.2722 C.3     
  14 C14           -2.4438    -5.8878     2.1715 C.2     
  15 C15           -2.5252    -5.1063     3.4246 C.ar    
  16 C16           -3.7260    -5.0489     4.1347 C.ar    
  17 C17           -3.8022    -4.3209     5.3014 C.ar    
  18 C18           -2.6780    -3.6404     5.7744 C.ar    
  19 C19           -1.4767    -3.6984     5.0642 C.ar    
  20 C20           -1.3996    -4.4308     3.9003 C.ar    
  21 O21           -2.9761    -6.9781     2.0995 O.2     
  22 C22            0.0219     2.5932    -0.2884 C.2     
  23 C23           -0.5962     3.8501    -0.2644 C.2     
  24 C24           -1.9324     3.6531    -0.1733 C.2     
  25 N25           -2.1773     2.3162    -0.1452 N.pl3   
  26 Cl26           0.2082     5.3868    -0.3378 Cl      
  27 C27           -2.7570    -2.8830     6.9872 C.1     
  28 N28           -2.8198    -2.2822     7.9492 N.1     
  29 H29           -2.8393    -3.1527    -0.0205 H       
  30 H30           -1.7543    -3.5068    -2.2328 H       
  31 H31           -0.3294    -4.1903    -1.4144 H       
  32 H32           -3.1709    -5.2901    -1.2274 H       
  33 H33           -1.8630    -5.9761    -2.2219 H       
  34 H34           -2.1337    -7.1397    -0.0028 H       
  35 H35           -0.1518    -4.0599     1.1113 H       
  36 H36           -1.5717    -3.5185     2.0429 H       
  37 H37            0.4618    -5.5694    -0.3594 H       
  38 H38            0.2734    -7.0618     0.5922 H       
  39 H39            0.0579    -7.0995    -1.1742 H       
  40 H40           -4.5953    -5.5751     3.7689 H       
  41 H41           -4.7313    -4.2760     5.8502 H       
  42 H42           -0.6073    -3.1720     5.4296 H       
  43 H43           -0.4708    -4.4757     3.3511 H       
  44 H44            1.0826     2.4012    -0.3554 H       
  45 H45           -2.6813     4.4304    -0.1342 H       
  46 H46           -3.0524     1.9025    -0.0833 H       
@<TRIPOS>BOND
   1    1    2 1
   2    1   22 2
   3    1   25 1
   4    2    3 2
   5    2    6 1
   6    3    4 1
   7    4    5 2
   8    4    7 1
   9    5    6 1
  10    7    8 1
  11    7   12 1
  12    7   29 1
  13    8    9 1
  14    8   30 1
  15    8   31 1
  16    9   10 1
  17    9   32 1
  18    9   33 1
  19   10   11 1
  20   10   13 1
  21   10   34 1
  22   11   12 1
  23   11   14 am
  24   12   35 1
  25   12   36 1
  26   13   37 1
  27   13   38 1
  28   13   39 1
  29   14   15 1
  30   14   21 2
  31   15   16 ar
  32   15   20 ar
  33   16   17 ar
  34   16   40 1
  35   17   18 ar
  36   17   41 1
  37   18   19 ar
  38   18   27 1
  39   19   20 ar
  40   19   42 1
  41   20   43 1
  42   22   23 1
  43   22   44 1
  44   23   24 2
  45   23   26 1
  46   24   25 1
  47   24   45 1
  48   25   46 1
  49   27   28 3

#	End of record

