#	Name: ASD04550029
#	Creating user name:	WinNT
#	Creation time:	15. 06. 2019 20:49

#	Modifying user name:	WinNT
#	Modification time:	15. 06. 2019 20:49

#	Program:	/corina/corina34_cracker 3.40 0067  02.08.2006

@<TRIPOS>MOLECULE
ASD04550029
  30   31    0    0    0
SMALL
NO_CHARGES


@<TRIPOS>ATOM
   1 C1            -0.0159     1.3902    -0.0150 C.ar    
   2 C2             0.0048    -0.0043    -0.0758 C.ar    
   3 C3            -1.1814    -0.7086    -0.0911 C.ar    
   4 C4            -2.3896    -0.0358    -0.0468 C.ar    
   5 C5            -2.4172     1.3466     0.0135 C.ar    
   6 C6            -1.2386     2.0626     0.0358 C.ar    
   7 C7            -3.7379     2.0708     0.0615 C.3     
   8 C8            -4.5477     1.7383    -1.1934 C.3     
   9 C9             1.2517     2.1517     0.0017 C.2     
  10 C10            2.5300     1.4437     0.0962 C.2     
  11 O11            1.2325     3.3671    -0.0632 O.2     
  12 C12            3.7819     2.0125     0.0035 C.2     
  13 C13            4.7067     0.9686     0.1508 C.2     
  14 C14            3.9991    -0.1708     0.3237 C.2     
  15 O15            2.6922     0.1189     0.2954 O.3     
  16 C16           -4.5048     1.6366     1.2839 C.2     
  17 O17           -4.0279     0.8226     2.0388 O.2     
  18 O18           -5.7177     2.1542     1.5341 O.3     
  19 H19            0.9472    -0.5305    -0.1111 H       
  20 H20           -1.1669    -1.7874    -0.1381 H       
  21 H21           -3.3153    -0.5919    -0.0597 H       
  22 H22           -1.2615     3.1413     0.0829 H       
  23 H23           -3.5615     3.1455     0.1059 H       
  24 H24           -5.5029     2.2621    -1.1587 H       
  25 H25           -3.9930     2.0523    -2.0776 H       
  26 H26           -4.7240     0.6636    -1.2378 H       
  27 H27            4.0067     3.0573    -0.1523 H       
  28 H28            5.7828     1.0578     0.1295 H       
  29 H29            4.4203    -1.1551     0.4654 H       
  30 H30           -6.1712     1.8450     2.3303 H       
@<TRIPOS>BOND
   1    1    2 ar
   2    1    9 1
   3    1    6 ar
   4    2    3 ar
   5    2   19 1
   6    3    4 ar
   7    3   20 1
   8    4    5 ar
   9    4   21 1
  10    5    6 ar
  11    5    7 1
  12    6   22 1
  13    7    8 1
  14    7   16 1
  15    7   23 1
  16    8   24 1
  17    8   25 1
  18    8   26 1
  19    9   10 1
  20    9   11 2
  21   10   12 2
  22   10   15 1
  23   12   13 1
  24   12   27 1
  25   13   14 2
  26   13   28 1
  27   14   15 1
  28   14   29 1
  29   16   17 2
  30   16   18 1
  31   18   30 1

#	End of record

