#	Name: ASD01180125
#	Creating user name:	WinNT
#	Creation time:	15. 06. 2019 19:06

#	Modifying user name:	WinNT
#	Modification time:	15. 06. 2019 19:06

#	Program:	/corina/corina34_cracker 3.40 0067  02.08.2006

@<TRIPOS>MOLECULE
ASD01180125
  22   23    0    0    0
SMALL
NO_CHARGES


@<TRIPOS>ATOM
   1 N1            -0.0157     1.3054     0.0092 N.ar    
   2 C2             0.0021    -0.0041     0.0020 C.ar    
   3 C3             1.2043    -0.7223    -0.0128 C.ar    
   4 C4             2.4065    -0.0414    -0.0206 C.ar    
   5 C5             2.3696     1.3648    -0.0132 C.ar    
   6 C6             3.5504     2.1252    -0.0208 C.ar    
   7 C7             3.4754     3.4847    -0.0137 C.ar    
   8 C8             2.2419     4.1321     0.0010 C.ar    
   9 C9             1.0781     3.4265     0.0087 C.ar    
  10 C10            1.1135     2.0211     0.0023 C.ar    
  11 C11            3.7183    -0.7832    -0.0361 C.3     
  12 N12            1.1881    -2.1190    -0.0193 N.pl3   
  13 H13           -0.9336    -0.5435     0.0080 H       
  14 H14            4.5123     1.6344    -0.0318 H       
  15 H15            4.3839     4.0687    -0.0192 H       
  16 H16            2.2086     5.2116     0.0067 H       
  17 H17            0.1305     3.9445     0.0197 H       
  18 H18            4.0251    -0.9572    -1.0675 H       
  19 H19            4.4773    -0.1897     0.4736 H       
  20 H20            3.6012    -1.7391     0.4743 H       
  21 H21            0.3425    -2.5942    -0.0135 H       
  22 H22            2.0224    -2.6137    -0.0296 H       
@<TRIPOS>BOND
   1    1    2 ar
   2    1   10 ar
   3    2    3 ar
   4    2   13 1
   5    3    4 ar
   6    3   12 1
   7    4    5 ar
   8    4   11 1
   9    5    6 ar
  10    5   10 ar
  11    6    7 ar
  12    6   14 1
  13    7    8 ar
  14    7   15 1
  15    8    9 ar
  16    8   16 1
  17    9   10 ar
  18    9   17 1
  19   11   18 1
  20   11   19 1
  21   11   20 1
  22   12   21 1
  23   12   22 1

#	End of record

