#	Name: ASD04660011
#	Creating user name:	WinNT
#	Creation time:	15. 06. 2019 20:52

#	Modifying user name:	WinNT
#	Modification time:	15. 06. 2019 20:52

#	Program:	/corina/corina34_cracker 3.40 0067  02.08.2006

@<TRIPOS>MOLECULE
ASD04660011
  45   48    0    0    0
SMALL
NO_CHARGES


@<TRIPOS>ATOM
   1 C1             6.4607     1.3039     2.9222 C.ar    
   2 C2             6.4500    -0.0835     2.8138 C.ar    
   3 C3             5.6341    -0.7668     1.9561 C.ar    
   4 C4             4.7482    -0.0609     1.1262 C.ar    
   5 C5             4.7439     1.3373     1.2207 C.ar    
   6 C6             5.6077     2.0638     2.1296 C.ar    
   7 C7             3.8632    -0.6454     0.2048 C.ar    
   8 C8             3.0588     0.1723    -0.5381 C.ar    
   9 C9             3.0805     1.5638    -0.4189 C.ar    
  10 C10            3.9261     2.1619     0.4670 C.ar    
  11 C11            4.2397     3.5772     0.8785 C.3     
  12 C12            5.3190     3.4879     1.9457 C.2     
  13 O13            5.8401     4.4149     2.5297 O.2     
  14 C14            0.1219    -3.3791     3.5132 C.ar    
  15 O15            1.5516    -5.0315     2.5261 O.3     
  16 C16           -0.0583    -2.5641     4.6151 C.ar    
  17 C17           -1.3350    -2.2750     5.0595 C.ar    
  18 C18           -2.4314    -2.8004     4.4017 C.ar    
  19 C19           -2.2511    -3.6147     3.2993 C.ar    
  20 C20           -0.9746    -3.9003     2.8523 C.ar    
  21 S21            3.7925    -2.3953     0.0107 S.o2    
  22 O22            2.7768    -2.6518    -0.9494 O.2     
  23 O23            5.1346    -2.8368    -0.1409 O.2     
  24 N24            3.2517    -3.0259     1.4433 N.am    
  25 C25            1.8988    -2.7194     1.9142 C.3     
  26 C26            1.5137    -3.6943     3.0288 C.3     
  27 N27           -3.7983    -2.4916     4.8782 N.pl3   
  28 O28           -3.9571    -1.7745     5.8498 O.2     
  29 O29           -4.7644    -2.9546     4.2986 O.2     
  30 H30            7.1255     1.7880     3.6222 H       
  31 H31            7.1226    -0.6504     3.4404 H       
  32 H32            5.6708    -1.8455     1.9166 H       
  33 H33            2.3785    -0.2760    -1.2470 H       
  34 H34            2.4248     2.1672    -1.0292 H       
  35 H35            4.6077     4.1425     0.0223 H       
  36 H36            3.3484     4.0539     1.2865 H       
  37 H37            0.9492    -5.1910     1.7868 H       
  38 H38            0.7983    -2.1536     5.1290 H       
  39 H39           -1.4758    -1.6388     5.9209 H       
  40 H40           -3.1077    -4.0255     2.7856 H       
  41 H41           -0.8338    -4.5365     1.9910 H       
  42 H42            3.8308    -3.5982     1.9706 H       
  43 H43            1.8698    -1.6995     2.2976 H       
  44 H44            1.1954    -2.8168     1.0872 H       
  45 H45            2.2170    -3.5969     3.8558 H       
@<TRIPOS>BOND
   1    1    2 ar
   2    1    6 ar
   3    1   30 1
   4    2    3 ar
   5    2   31 1
   6    3    4 ar
   7    3   32 1
   8    4    5 ar
   9    4    7 ar
  10    5    6 ar
  11    5   10 ar
  12    6   12 1
  13    7    8 ar
  14    7   21 1
  15    8    9 ar
  16    8   33 1
  17    9   10 ar
  18    9   34 1
  19   10   11 1
  20   11   12 1
  21   11   35 1
  22   11   36 1
  23   12   13 2
  24   14   16 ar
  25   14   26 1
  26   14   20 ar
  27   15   26 1
  28   15   37 1
  29   16   17 ar
  30   16   38 1
  31   17   18 ar
  32   17   39 1
  33   18   19 ar
  34   18   27 1
  35   19   20 ar
  36   19   40 1
  37   20   41 1
  38   21   22 2
  39   21   23 2
  40   21   24 am
  41   24   25 1
  42   24   42 1
  43   25   26 1
  44   25   43 1
  45   25   44 1
  46   26   45 1
  47   27   28 2
  48   27   29 2

#	End of record

