#	Name: ASD01917569
#	Creating user name:	WinNT
#	Creation time:	15. 06. 2019 20:09

#	Modifying user name:	WinNT
#	Modification time:	15. 06. 2019 20:09

#	Program:	/corina/corina34_cracker 3.40 0067  02.08.2006

@<TRIPOS>MOLECULE
ASD01917569
  38   41    0    0    0
SMALL
NO_CHARGES


@<TRIPOS>ATOM
   1 C1            -0.0166     1.3747     0.0096 C.ar    
   2 C2             0.0021    -0.0041     0.0020 C.ar    
   3 C3             1.2079    -0.6832    -0.0127 C.ar    
   4 C4             2.4032     0.0143    -0.0199 C.ar    
   5 C5             2.4009     1.3933    -0.0125 C.ar    
   6 C6             1.1868     2.0866     0.0019 C.ar    
   7 C7             1.1759     3.5186     0.0093 C.1     
   8 C8             1.1669     4.6925     0.0153 C.1     
   9 C9             1.1560     6.1244     0.0226 C.2     
  10 N10            2.2158     6.8861     0.0165 N.2     
  11 C11            2.0363     8.1885     0.0243 C.2     
  12 C12            0.7195     8.5781     0.0382 C.2     
  13 S13           -0.2884     7.1294     0.0335 S.3     
  14 C14            2.8508     9.4750     0.0225 C.3     
  15 N15            1.8790    10.5711     0.0363 N.am    
  16 C16            0.6457    10.0417     0.0464 C.2     
  17 O17           -0.3871    10.6856     0.0530 O.2     
  18 C18            2.1987    12.0008     0.0403 C.3     
  19 C19            1.5972    12.6788    -1.2032 C.3     
  20 C20            0.6120    13.7486    -0.6887 C.3     
  21 C21            1.1125    14.0695     0.7415 C.3     
  22 C22            1.5579    12.6822     1.2670 C.3     
  23 H23           -0.9584     1.9034     0.0169 H       
  24 H24           -0.9266    -0.5554     0.0079 H       
  25 H25            1.2161    -1.7632    -0.0182 H       
  26 H26            3.3401    -0.5227    -0.0310 H       
  27 H27            3.3344     1.9363    -0.0177 H       
  28 H28            3.4809     9.5212     0.9107 H       
  29 H29            3.4645     9.5291    -0.8767 H       
  30 H30            3.2794    12.1414     0.0562 H       
  31 H31            2.3860    13.1492    -1.7903 H       
  32 H32            1.0674    11.9441    -1.8096 H       
  33 H33            0.6536    14.6389    -1.3162 H       
  34 H34           -0.4020    13.3498    -0.6575 H       
  35 H35            1.9557    14.7595     0.7099 H       
  36 H36            0.3047    14.4727     1.3521 H       
  37 H37            0.6967    12.1112     1.6141 H       
  38 H38            2.2900    12.7943     2.0668 H       
@<TRIPOS>BOND
   1    1    2 ar
   2    1    6 ar
   3    1   23 1
   4    2    3 ar
   5    2   24 1
   6    3    4 ar
   7    3   25 1
   8    4    5 ar
   9    4   26 1
  10    5    6 ar
  11    5   27 1
  12    6    7 1
  13    7    8 3
  14    8    9 1
  15    9   10 2
  16    9   13 1
  17   10   11 1
  18   11   14 1
  19   11   12 2
  20   12   13 1
  21   12   16 1
  22   14   15 1
  23   14   28 1
  24   14   29 1
  25   15   16 am
  26   15   18 1
  27   16   17 2
  28   18   19 1
  29   18   22 1
  30   18   30 1
  31   19   20 1
  32   19   31 1
  33   19   32 1
  34   20   21 1
  35   20   33 1
  36   20   34 1
  37   21   22 1
  38   21   35 1
  39   21   36 1
  40   22   37 1
  41   22   38 1

#	End of record

