#	Name: ASD00731041
#	Creating user name:	WinNT
#	Creation time:	15. 06. 2019 18:37

#	Modifying user name:	WinNT
#	Modification time:	15. 06. 2019 18:37

#	Program:	/corina/corina34_cracker 3.40 0067  02.08.2006

@<TRIPOS>MOLECULE
ASD00731041
 242  243    0    0    0
SMALL
NO_CHARGES


@<TRIPOS>ATOM
   1 C1             0.7983     0.3113     0.4828 C.2     
   2 O2             0.7473    -0.8230     0.9091 O.2     
   3 N3             3.1544    -0.1431     0.1201 N.am    
   4 C4             2.1058     0.8710    -0.0154 C.3     
   5 C5             1.9643     1.2648    -1.4870 C.3     
   6 C6             1.6587     0.0386    -2.3080 C.2     
   7 O7             1.4877    -1.0261    -1.7630 O.2     
   8 O8             1.5764     0.1293    -3.6447 O.3     
   9 C9            -2.7284     1.2473     0.2604 C.2     
  10 O10           -2.5009     2.1324    -0.5369 O.2     
  11 N11           -0.3156     1.0694     0.4495 N.am    
  12 C12           -1.5879     0.5232     0.9283 C.3     
  13 C13           -1.6842     0.7081     2.4440 C.3     
  14 C14           -0.6014    -0.1277     3.1295 C.3     
  15 C15           -0.6977     0.0572     4.6453 C.3     
  16 N16            0.3391    -0.7431     5.3017 N.pl3   
  17 C17            0.4482    -0.7361     6.6721 C.2     
  18 N18            1.3706    -1.4481     7.2561 N.2     
  19 N19           -0.4157     0.0220     7.4266 N.pl3   
  20 C20           -6.3370     1.5312     0.7709 C.2     
  21 O21           -6.2900     0.9415     1.8296 O.2     
  22 N22           -4.0012     0.9113     0.5492 N.am    
  23 C23           -5.1100     1.6151    -0.1000 C.3     
  24 C24           -5.4013     0.9677    -1.4553 C.3     
  25 C25           -4.1998     1.1627    -2.3824 C.3     
  26 C26           -4.4911     0.5152    -3.7377 C.3     
  27 N27           -3.3407     0.7019    -4.6254 N.pl3   
  28 C28           -3.3719     0.2015    -5.9055 C.2     
  29 N29           -2.3484     0.3675    -6.6953 N.2     
  30 N30           -4.4827    -0.4741    -6.3526 N.pl3   
  31 C31           -9.9118     2.1582     0.4471 C.2     
  32 O32           -9.8726     2.5053    -0.7143 O.2     
  33 N33           -7.4866     2.1115     0.3732 N.am    
  34 C34           -8.6475     2.1251     1.2667 C.3     
  35 C35           -8.5875     3.3643     2.1620 C.3     
  36 C36           -9.7098     3.2985     3.1998 C.3     
  37 C37           -9.4549     2.1292     4.1531 C.3     
  38 C38           -9.7469     4.6055     3.9944 C.3     
  39 C39          -13.5090     1.9251     1.0540 C.2     
  40 O40          -13.3763     2.1069     2.2458 O.2     
  41 N41          -11.0859     1.8021     1.0048 N.am    
  42 C42          -12.2957     1.7298     0.1818 C.3     
  43 C43          -12.3702     0.3603    -0.4962 C.3     
  44 C44          -11.2045     0.2124    -1.4762 C.3     
  45 C45          -11.2790    -1.1572    -2.1542 C.3     
  46 N46          -10.1629    -1.2988    -3.0926 N.pl3   
  47 C47          -10.0213    -2.4550    -3.8229 C.2     
  48 N48          -10.8801    -3.4251    -3.6805 N.2     
  49 N49           -8.9739    -2.5879    -4.7035 N.pl3   
  50 C50          -17.1152     1.4340     0.7110 C.2     
  51 O51          -16.9929     0.8654    -0.3533 O.2     
  52 N52          -14.7417     1.8979     0.5097 N.am    
  53 C53          -15.9212     2.0878     1.3576 C.3     
  54 C54          -16.1901     3.5841     1.5297 C.3     
  55 C55          -15.0323     4.2253     2.2974 C.3     
  56 C56          -15.3011     5.7216     2.4695 C.3     
  57 C57          -14.1433     6.3628     3.2371 C.3     
  58 N58          -14.4015     7.7995     3.4024 N.3     
  59 C59          -20.7410     1.5142     1.1693 C.2     
  60 O60          -20.6768     2.4313     1.9603 O.2     
  61 N61          -18.3189     1.4811     1.3155 N.am    
  62 C62          -19.4796     0.8455     0.6869 C.3     
  63 C63          -19.5135    -0.6377     1.0607 C.3     
  64 C64          -18.3119    -1.3316     0.4727 C.2     
  65 C65          -18.2634    -1.9925    -0.6947 C.2     
  66 N66          -17.0050    -2.4900    -0.8973 N.pl3   
  67 C67          -16.1922    -2.1528     0.1618 C.ar    
  68 C68          -14.8555    -2.3970     0.4587 C.ar    
  69 C69          -14.3154    -1.9131     1.6303 C.ar    
  70 C70          -15.0919    -1.1833     2.5194 C.ar    
  71 C71          -16.4075    -0.9321     2.2478 C.ar    
  72 C72          -16.9737    -1.4073     1.0637 C.ar    
  73 C73          -24.3210     0.7811     1.0750 C.2     
  74 O74          -24.1374    -0.3373     0.6433 O.2     
  75 N75          -21.9405     1.0930     0.7218 N.am    
  76 C76          -23.1668     1.7430     1.1908 C.3     
  77 C77          -23.4467     2.9808     0.3362 C.3     
  78 C78          -22.3355     4.0105     0.5504 C.3     
  79 S79          -22.6674     5.4781    -0.4628 S.3     
  80 C80          -21.2661     6.5642    -0.0792 C.3     
  81 C81          -27.9672     1.0016     1.2156 C.2     
  82 O82          -27.9494     2.2143     1.2213 O.2     
  83 N83          -25.5574     1.1637     1.4513 N.am    
  84 C84          -26.6795     0.2286     1.3387 C.3     
  85 C85          -26.7331    -0.6563     2.5858 C.3     
  86 C86          -30.8940     1.4563     2.3537 C.2     
  87 O87          -30.2711     1.1193     3.3326 O.2     
  88 N88          -29.1387     0.3454     1.0992 N.am    
  89 C89          -30.3905     1.0970     0.9795 C.3     
  90 C90          -31.4342     0.2384     0.2623 C.3     
  91 C91          -32.6998     1.0652     0.0263 C.3     
  92 C92          -33.6958     0.2486    -0.7995 C.3     
  93 C93          -31.7737    -0.9786     1.1253 C.3     
  94 O94          -32.0345     2.1509     2.4902 O.3     
  95 C95            4.4489     0.2286     0.1696 C.2     
  96 O96            4.7523     1.3921     0.0112 O.2     
  97 C97           22.7220    -3.3629     2.2640 C.3     
  98 C98           21.6350    -2.3170     2.0079 C.3     
  99 C99           20.2645    -2.9970     2.0008 C.3     
 100 C100          19.1775    -1.9511     1.7448 C.3     
 101 C101          17.8070    -2.6311     1.7376 C.3     
 102 C102          16.7200    -1.5852     1.4816 C.3     
 103 C103          15.3495    -2.2652     1.4745 C.3     
 104 C104          14.2626    -1.2193     1.2184 C.3     
 105 C105          12.8920    -1.8993     1.2113 C.3     
 106 C106          11.8051    -0.8534     0.9553 C.3     
 107 C107          10.4345    -1.5334     0.9481 C.3     
 108 C108           9.3476    -0.4875     0.6921 C.3     
 109 C109           7.9770    -1.1675     0.6850 C.3     
 110 C110           6.8901    -0.1216     0.4289 C.3     
 111 C111           5.5195    -0.8016     0.4218 C.3     
 112 H112           2.9169    -1.0820     0.1742 H       
 113 H113           2.3722     1.7498     0.5719 H       
 114 H114           1.1532     1.9851    -1.5940 H       
 115 H115           2.8956     1.7120    -1.8346 H       
 116 H116           1.3783    -0.6842    -4.1285 H       
 117 H117          -0.2748     1.9766     0.1086 H       
 118 H118          -1.6410    -0.5386     0.6876 H       
 119 H119          -1.5422     1.7601     2.6915 H       
 120 H120          -2.6661     0.3832     2.7880 H       
 121 H121          -0.7434    -1.1797     2.8821 H       
 122 H122           0.3806     0.1972     2.7855 H       
 123 H123          -0.5557     1.1092     4.8927 H       
 124 H124          -1.6796    -0.2677     4.9893 H       
 125 H125           0.9486    -1.2780     4.7694 H       
 126 H126           1.4476    -1.4431     8.2231 H       
 127 H127          -1.1022     0.5518     6.9920 H       
 128 H128          -0.3387     0.0269     8.3935 H       
 129 H129          -4.1832     0.2034     1.1869 H       
 130 H130          -4.8399     2.6608    -0.2474 H       
 131 H131          -5.5844    -0.0979    -1.3171 H       
 132 H132          -6.2816     1.4332    -1.8986 H       
 133 H133          -4.0167     2.2282    -2.5206 H       
 134 H134          -3.3195     0.6972    -1.9391 H       
 135 H135          -4.6743    -0.5503    -3.5995 H       
 136 H136          -5.3714     0.9807    -4.1810 H       
 137 H137          -2.5570     1.1786    -4.3100 H       
 138 H138          -2.3704     0.0144    -7.5985 H       
 139 H139          -5.2444    -0.5977    -5.7649 H       
 140 H140          -4.5047    -0.8272    -7.2558 H       
 141 H141          -7.5453     2.5201    -0.5046 H       
 142 H142          -8.6396     1.2284     1.8864 H       
 143 H143          -7.6240     3.3989     2.6704 H       
 144 H144          -8.7088     4.2595     1.5520 H       
 145 H145         -10.6644     3.1535     2.6941 H       
 146 H146          -8.4598     2.2248     4.5875 H       
 147 H147         -10.2008     2.1392     4.9479 H       
 148 H148          -9.5226     1.1906     3.6031 H       
 149 H149          -9.9285     5.4385     3.3153 H       
 150 H150         -10.5464     4.5586     4.7338 H       
 151 H151          -8.7923     4.7505     4.5002 H       
 152 H152         -11.1299     1.5937     1.9512 H       
 153 H153         -12.2652     2.5104    -0.5783 H       
 154 H154         -12.3112    -0.4230     0.2595 H       
 155 H155         -13.3126     0.2733    -1.0369 H       
 156 H156         -11.2635     0.9956    -2.2319 H       
 157 H157         -10.2621     0.2994    -0.9356 H       
 158 H158         -11.2200    -1.9404    -1.3985 H       
 159 H159         -12.2214    -1.2442    -2.6949 H       
 160 H160          -9.5237    -0.5769    -3.1986 H       
 161 H161         -10.7802    -4.2408    -4.1957 H       
 162 H162          -8.3348    -1.8660    -4.8095 H       
 163 H163          -8.8740    -3.4037    -5.2187 H       
 164 H164         -14.8479     1.7526    -0.4434 H       
 165 H165         -15.7437     1.6359     2.3335 H       
 166 H166         -16.2795     4.0523     0.5495 H       
 167 H167         -17.1169     3.7251     2.0857 H       
 168 H168         -14.9428     3.7571     3.2776 H       
 169 H169         -14.1054     4.0843     1.7414 H       
 170 H170         -15.3906     6.1898     1.4892 H       
 171 H171         -16.2280     5.8626     3.0255 H       
 172 H172         -14.0539     5.8946     4.2174 H       
 173 H173         -13.2165     6.2218     2.6812 H       
 174 H174         -15.2876     7.9576     3.8584 H       
 175 H175         -13.6504     8.2461     3.9069 H       
 176 H176         -18.4167     1.9358     2.1667 H       
 177 H177         -19.4066     0.9457    -0.3960 H       
 178 H178         -19.4969    -0.7394     2.1459 H       
 179 H179         -20.4234    -1.0908     0.6672 H       
 180 H180         -19.0947    -2.1139    -1.3733 H       
 181 H181         -16.7268    -3.0037    -1.6717 H       
 182 H182         -14.2432    -2.9642    -0.2266 H       
 183 H183         -13.2773    -2.1041     1.8593 H       
 184 H184         -14.6531    -0.8112     3.4334 H       
 185 H185         -17.0058    -0.3637     2.9446 H       
 186 H186         -21.9918     0.3595     0.0892 H       
 187 H187         -23.0448     2.0405     2.2323 H       
 188 H188         -23.4806     2.6963    -0.7154 H       
 189 H189         -24.4041     3.4138     0.6264 H       
 190 H190         -22.3017     4.2951     1.6021 H       
 191 H191         -21.3782     3.5775     0.2602 H       
 192 H192         -21.2590     6.7849     0.9882 H       
 193 H193         -20.3356     6.0674    -0.3536 H       
 194 H194         -21.3617     7.4930    -0.6416 H       
 195 H195         -25.7042     2.0581     1.7966 H       
 196 H196         -26.5448    -0.3960     0.4556 H       
 197 H197         -27.5679    -1.3520     2.5020 H       
 198 H198         -25.8017    -1.2154     2.6748 H       
 199 H199         -26.8677    -0.0317     3.4689 H       
 200 H200         -29.1529    -0.6245     1.0946 H       
 201 H201         -30.2142     2.0079     0.4075 H       
 202 H202         -31.0344    -0.0953    -0.6952 H       
 203 H203         -33.1488     1.3239     0.9852 H       
 204 H204         -32.4428     1.9772    -0.5124 H       
 205 H205         -33.2468    -0.0102    -1.7584 H       
 206 H206         -33.9529    -0.6635    -0.2607 H       
 207 H207         -34.5975     0.8376    -0.9676 H       
 208 H208         -32.1735    -0.6449     2.0828 H       
 209 H209         -32.5172    -1.5903     0.6143 H       
 210 H210         -30.8721    -1.5676     1.2934 H       
 211 H211         -32.3172     2.3579     3.3915 H       
 212 H212          23.6984    -2.8785     2.2691 H       
 213 H213          22.5477    -3.8393     3.2287 H       
 214 H214          22.6941    -4.1161     1.4765 H       
 215 H215          21.6628    -1.5639     2.7954 H       
 216 H216          21.8093    -1.8406     1.0432 H       
 217 H217          20.2367    -3.7502     1.2133 H       
 218 H218          20.0902    -3.4734     2.9655 H       
 219 H219          19.2053    -1.1979     2.5322 H       
 220 H220          19.3518    -1.4747     0.7800 H       
 221 H221          17.7792    -3.3843     0.9502 H       
 222 H222          17.6327    -3.1075     2.7024 H       
 223 H223          16.7479    -0.8320     2.2691 H       
 224 H224          16.8943    -1.1088     0.5169 H       
 225 H225          15.3217    -3.0184     0.6870 H       
 226 H226          15.1752    -2.7416     2.4392 H       
 227 H227          14.2904    -0.4661     2.0059 H       
 228 H228          14.4368    -0.7429     0.2537 H       
 229 H229          12.8642    -2.6525     0.4238 H       
 230 H230          12.7177    -2.3757     2.1760 H       
 231 H231          11.8329    -0.1002     1.7427 H       
 232 H232          11.9793    -0.3770    -0.0095 H       
 233 H233          10.4067    -2.2866     0.1607 H       
 234 H234          10.2603    -2.0098     1.9129 H       
 235 H235           9.3754     0.2657     1.4796 H       
 236 H236           9.5218    -0.0111    -0.2726 H       
 237 H237           7.9492    -1.9206    -0.1025 H       
 238 H238           7.8028    -1.6439     1.6497 H       
 239 H239           6.9179     0.6316     1.2164 H       
 240 H240           7.0643     0.3548    -0.5358 H       
 241 H241           5.3453    -1.2780     1.3865 H       
 242 H242           5.4917    -1.5547    -0.3657 H       
@<TRIPOS>BOND
   1    1    2 2
   2    1    4 1
   3    1   11 am
   4    3   95 am
   5    3    4 1
   6    3  112 1
   7    4    5 1
   8    4  113 1
   9    5    6 1
  10    5  114 1
  11    5  115 1
  12    6    7 2
  13    6    8 1
  14    8  116 1
  15    9   10 2
  16    9   12 1
  17    9   22 am
  18   11   12 1
  19   11  117 1
  20   12   13 1
  21   12  118 1
  22   13   14 1
  23   13  119 1
  24   13  120 1
  25   14   15 1
  26   14  121 1
  27   14  122 1
  28   15   16 1
  29   15  123 1
  30   15  124 1
  31   16   17 1
  32   16  125 1
  33   17   18 2
  34   17   19 1
  35   18  126 1
  36   19  127 1
  37   19  128 1
  38   20   21 2
  39   20   23 1
  40   20   33 am
  41   22   23 1
  42   22  129 1
  43   23   24 1
  44   23  130 1
  45   24   25 1
  46   24  131 1
  47   24  132 1
  48   25   26 1
  49   25  133 1
  50   25  134 1
  51   26   27 1
  52   26  135 1
  53   26  136 1
  54   27   28 1
  55   27  137 1
  56   28   29 2
  57   28   30 1
  58   29  138 1
  59   30  139 1
  60   30  140 1
  61   31   32 2
  62   31   34 1
  63   31   41 am
  64   33   34 1
  65   33  141 1
  66   34   35 1
  67   34  142 1
  68   35   36 1
  69   35  143 1
  70   35  144 1
  71   36   37 1
  72   36   38 1
  73   36  145 1
  74   37  146 1
  75   37  147 1
  76   37  148 1
  77   38  149 1
  78   38  150 1
  79   38  151 1
  80   39   40 2
  81   39   42 1
  82   39   52 am
  83   41   42 1
  84   41  152 1
  85   42   43 1
  86   42  153 1
  87   43   44 1
  88   43  154 1
  89   43  155 1
  90   44   45 1
  91   44  156 1
  92   44  157 1
  93   45   46 1
  94   45  158 1
  95   45  159 1
  96   46   47 1
  97   46  160 1
  98   47   48 2
  99   47   49 1
 100   48  161 1
 101   49  162 1
 102   49  163 1
 103   50   51 2
 104   50   53 1
 105   50   61 am
 106   52   53 1
 107   52  164 1
 108   53   54 1
 109   53  165 1
 110   54   55 1
 111   54  166 1
 112   54  167 1
 113   55   56 1
 114   55  168 1
 115   55  169 1
 116   56   57 1
 117   56  170 1
 118   56  171 1
 119   57   58 1
 120   57  172 1
 121   57  173 1
 122   58  174 1
 123   58  175 1
 124   59   60 2
 125   59   62 1
 126   59   75 am
 127   61   62 1
 128   61  176 1
 129   62   63 1
 130   62  177 1
 131   63   64 1
 132   63  178 1
 133   63  179 1
 134   64   65 2
 135   64   72 1
 136   65   66 1
 137   65  180 1
 138   66   67 1
 139   66  181 1
 140   67   68 ar
 141   67   72 ar
 142   68   69 ar
 143   68  182 1
 144   69   70 ar
 145   69  183 1
 146   70   71 ar
 147   70  184 1
 148   71   72 ar
 149   71  185 1
 150   73   74 2
 151   73   76 1
 152   73   83 am
 153   75   76 1
 154   75  186 1
 155   76   77 1
 156   76  187 1
 157   77   78 1
 158   77  188 1
 159   77  189 1
 160   78   79 1
 161   78  190 1
 162   78  191 1
 163   79   80 1
 164   80  192 1
 165   80  193 1
 166   80  194 1
 167   81   82 2
 168   81   84 1
 169   81   88 am
 170   83   84 1
 171   83  195 1
 172   84   85 1
 173   84  196 1
 174   85  197 1
 175   85  198 1
 176   85  199 1
 177   86   87 2
 178   86   89 1
 179   86   94 1
 180   88   89 1
 181   88  200 1
 182   89   90 1
 183   89  201 1
 184   90   91 1
 185   90   93 1
 186   90  202 1
 187   91   92 1
 188   91  203 1
 189   91  204 1
 190   92  205 1
 191   92  206 1
 192   92  207 1
 193   93  208 1
 194   93  209 1
 195   93  210 1
 196   94  211 1
 197   95   96 2
 198   95  111 1
 199   97   98 1
 200   97  212 1
 201   97  213 1
 202   97  214 1
 203   98   99 1
 204   98  215 1
 205   98  216 1
 206   99  100 1
 207   99  217 1
 208   99  218 1
 209  100  101 1
 210  100  219 1
 211  100  220 1
 212  101  102 1
 213  101  221 1
 214  101  222 1
 215  102  103 1
 216  102  223 1
 217  102  224 1
 218  103  104 1
 219  103  225 1
 220  103  226 1
 221  104  105 1
 222  104  227 1
 223  104  228 1
 224  105  106 1
 225  105  229 1
 226  105  230 1
 227  106  107 1
 228  106  231 1
 229  106  232 1
 230  107  108 1
 231  107  233 1
 232  107  234 1
 233  108  109 1
 234  108  235 1
 235  108  236 1
 236  109  110 1
 237  109  237 1
 238  109  238 1
 239  110  111 1
 240  110  239 1
 241  110  240 1
 242  111  241 1
 243  111  242 1

#	End of record

