#	Name: ASD01882801
#	Creating user name:	WinNT
#	Creation time:	15. 06. 2019 19:45

#	Modifying user name:	WinNT
#	Modification time:	15. 06. 2019 19:45

#	Program:	/corina/corina34_cracker 3.40 0067  02.08.2006

@<TRIPOS>MOLECULE
ASD01882801
  44   45    0    0    0
SMALL
NO_CHARGES


@<TRIPOS>ATOM
   1 C1            -0.0169     1.3916     0.0097 C.ar    
   2 C2             0.0021    -0.0041     0.0020 C.ar    
   3 C3            -1.1909    -0.7176     0.0101 C.ar    
   4 C4            -2.3958    -0.0500     0.0252 C.ar    
   5 C5            -2.4209     1.3470     0.0325 C.ar    
   6 C6            -1.2219     2.0652     0.0306 C.ar    
   7 C7            -3.7124     2.0635     0.0476 C.2     
   8 C8            -4.1019     2.8656    -1.0435 C.2     
   9 C9            -5.2874     3.5150    -1.0150 C.2     
  10 N10           -6.1237     3.4139     0.0503 N.am    
  11 C11           -5.8064     2.6631     1.1213 C.2     
  12 C12           -4.5804     1.9541     1.1491 C.2     
  13 C13           -7.3974     4.1376     0.0335 C.3     
  14 C14           -8.4804     3.2496    -0.5826 C.3     
  15 C15           -9.8106     4.0054    -0.6001 C.3     
  16 C16           -9.6986     5.2132    -1.5326 C.3     
  17 O17           -6.5753     2.5900     2.0647 O.2     
  18 C18           -4.2269     1.1506     2.2805 C.1     
  19 N19           -3.9465     0.5132     3.1780 N.1     
  20 C20          -10.9185     3.0761    -1.0999 C.3     
  21 O21            1.1515     2.0879     0.0023 O.3     
  22 C22            1.0572     3.5137     0.0108 C.3     
  23 N23            1.2197    -0.6837    -0.0142 N.pl3   
  24 H24           -1.1730    -1.7975     0.0041 H       
  25 H25           -3.3214    -0.6066     0.0310 H       
  26 H26           -1.2381     3.1451     0.0366 H       
  27 H27           -3.4537     2.9619    -1.9020 H       
  28 H28           -5.5752     4.1271    -1.8569 H       
  29 H29           -7.6795     4.4003     1.0531 H       
  30 H30           -7.2914     5.0459    -0.5597 H       
  31 H31           -8.1983     2.9869    -1.6021 H       
  32 H32           -8.5863     2.3413     0.0106 H       
  33 H33          -10.0486     4.3453     0.4078 H       
  34 H34           -8.9093     5.8752    -1.1765 H       
  35 H35           -9.4606     4.8733    -2.5405 H       
  36 H36          -10.6463     5.7516    -1.5451 H       
  37 H37          -10.9983     2.2157    -0.4356 H       
  38 H38          -11.8662     3.6146    -1.1124 H       
  39 H39          -10.6805     2.7362    -2.1078 H       
  40 H40            0.5120     3.8471    -0.8722 H       
  41 H41            0.5290     3.8375     0.9077 H       
  42 H42            2.0585     3.9442     0.0036 H       
  43 H43            2.0525    -0.1865    -0.0201 H       
  44 H44            1.2337    -1.6536    -0.0196 H       
@<TRIPOS>BOND
   1    1    2 ar
   2    1   21 1
   3    1    6 ar
   4    2    3 ar
   5    2   23 1
   6    3    4 ar
   7    3   24 1
   8    4    5 ar
   9    4   25 1
  10    5    6 ar
  11    5    7 1
  12    6   26 1
  13    7    8 1
  14    7   12 2
  15    8    9 2
  16    8   27 1
  17    9   10 1
  18    9   28 1
  19   10   11 am
  20   10   13 1
  21   11   12 1
  22   11   17 2
  23   12   18 1
  24   13   14 1
  25   13   29 1
  26   13   30 1
  27   14   15 1
  28   14   31 1
  29   14   32 1
  30   15   16 1
  31   15   20 1
  32   15   33 1
  33   16   34 1
  34   16   35 1
  35   16   36 1
  36   18   19 3
  37   20   37 1
  38   20   38 1
  39   20   39 1
  40   21   22 1
  41   22   40 1
  42   22   41 1
  43   22   42 1
  44   23   43 1
  45   23   44 1

#	End of record

