#	Name: ASD01884895
#	Creating user name:	WinNT
#	Creation time:	15. 06. 2019 19:49

#	Modifying user name:	WinNT
#	Modification time:	15. 06. 2019 19:49

#	Program:	/corina/corina34_cracker 3.40 0067  02.08.2006

@<TRIPOS>MOLECULE
ASD01884895
  44   49    0    0    0
SMALL
NO_CHARGES


@<TRIPOS>ATOM
   1 C1            -0.0164     1.3606     0.0095 C.ar    
   2 C2             0.0021    -0.0041     0.0020 C.ar    
   3 C3             1.2155    -0.7017    -0.0129 C.ar    
   4 C4             2.4184    -0.0066    -0.0202 C.ar    
   5 C5             2.4034     1.3875    -0.0131 C.ar    
   6 C6             1.1766     2.0775     0.0020 C.ar    
   7 C7             3.4481     2.4158    -0.0178 C.2     
   8 C8             2.8283     3.6059    -0.0064 C.2     
   9 N9             1.4697     3.4252     0.0056 N.pl3   
  10 C10            1.2171    -2.1835    -0.0204 C.2     
  11 C11            0.7032    -2.8770    -1.1010 C.2     
  12 C12            1.7502    -2.9035     1.0763 C.2     
  13 C13            1.7512    -4.2496     1.0675 C.2     
  14 N14            1.2413    -4.9430     0.0074 N.pl3   
  15 C15            0.7193    -4.2831    -1.0786 C.2     
  16 Cl16           0.0477    -2.0248    -2.4641 Cl      
  17 C17            1.1134    -6.2704    -0.2678 C.2     
  18 N18            0.5461    -6.3766    -1.4417 N.2     
  19 N19            0.3094    -5.2102    -1.9306 N.2     
  20 C20            0.5226     4.4533     0.0189 C.ar    
  21 C21            1.5468    -7.4096     0.6184 C.3     
  22 C22            0.4700    -8.3920     1.0834 C.3     
  23 C23            1.4940    -8.8213     0.0308 C.3     
  24 C24           -0.3249     4.6319     1.1130 C.ar    
  25 C25           -1.2469     5.6607     1.0863 C.ar    
  26 N26           -1.3306     6.4661     0.0444 N.ar    
  27 C27           -0.5468     6.3287    -1.0081 C.ar    
  28 C28            0.4041     5.3300    -1.0575 C.ar    
  29 F29           -0.2453     3.8105     2.1827 F       
  30 H30           -0.9600     1.8860     0.0168 H       
  31 H31           -0.9290    -0.5513     0.0080 H       
  32 H32            3.3566    -0.5414    -0.0310 H       
  33 H33            4.5149     2.2474    -0.0279 H       
  34 H34            3.3262     4.5643    -0.0068 H       
  35 H35            2.1577    -2.3707     1.9227 H       
  36 H36            2.1607    -4.7879     1.9094 H       
  37 H37            2.3555    -7.1832     1.3133 H       
  38 H38            0.5705    -8.8123     2.0841 H       
  39 H39           -0.5519    -8.2144     0.7484 H       
  40 H40            1.1458    -8.9260    -0.9967 H       
  41 H41            2.2682    -9.5239     0.3390 H       
  42 H42           -1.9073     5.8072     1.9283 H       
  43 H43           -0.6482     7.0094    -1.8405 H       
  44 H44            1.0420     5.2239    -1.9225 H       
@<TRIPOS>BOND
   1    1    2 ar
   2    1    6 ar
   3    1   30 1
   4    2    3 ar
   5    2   31 1
   6    3    4 ar
   7    3   10 1
   8    4    5 ar
   9    4   32 1
  10    5    6 ar
  11    5    7 1
  12    6    9 1
  13    7    8 2
  14    7   33 1
  15    8    9 1
  16    8   34 1
  17    9   20 1
  18   10   11 2
  19   10   12 1
  20   11   16 1
  21   11   15 1
  22   12   13 2
  23   12   35 1
  24   13   14 1
  25   13   36 1
  26   14   15 1
  27   14   17 1
  28   15   19 2
  29   17   18 2
  30   17   21 1
  31   18   19 1
  32   20   24 ar
  33   20   28 ar
  34   21   22 1
  35   21   23 1
  36   21   37 1
  37   22   23 1
  38   22   38 1
  39   22   39 1
  40   23   40 1
  41   23   41 1
  42   24   25 ar
  43   24   29 1
  44   25   26 ar
  45   25   42 1
  46   26   27 ar
  47   27   28 ar
  48   27   43 1
  49   28   44 1

#	End of record

