#	Name: ASD01028605
#	Creating user name:	WinNT
#	Creation time:	15. 06. 2019 18:57

#	Modifying user name:	WinNT
#	Modification time:	15. 06. 2019 18:57

#	Program:	/corina/corina34_cracker 3.40 0067  02.08.2006

@<TRIPOS>MOLECULE
ASD01028605
  25   26    0    0    0
SMALL
NO_CHARGES


@<TRIPOS>ATOM
   1 N1            -0.0164     1.3618     0.0095 N.pl3   
   2 N2             0.0021    -0.0041     0.0020 N.3     
   3 C3             1.1782     2.0734     0.0019 C.ar    
   4 C4             1.1492     3.4675     0.0097 C.ar    
   5 C5             2.3416     4.1663     0.0021 C.ar    
   6 C6             3.5384     3.4401    -0.0133 C.ar    
   7 C7             3.4864     2.0499    -0.0202 C.ar    
   8 N8             2.3288     1.4188    -0.0071 N.ar    
   9 F9            -0.0298     4.1269     0.0241 F       
  10 C10            4.8445     4.1437    -0.0224 C.ar    
  11 C11            6.0312     3.4138    -0.0377 C.ar    
  12 C12            7.2461     4.0735    -0.0467 C.ar    
  13 C13            7.2847     5.4581    -0.0401 C.ar    
  14 C14            6.1075     6.1877    -0.0245 C.ar    
  15 C15            4.8880     5.5363    -0.0217 C.ar    
  16 F16            6.1510     7.5380    -0.0177 F       
  17 F17            8.3974     3.3668    -0.0615 F       
  18 H18           -0.8630     1.8353     0.0161 H       
  19 H19            0.5405    -0.3627     0.7764 H       
  20 H20           -0.9349    -0.3784     0.0090 H       
  21 H21            2.3499     5.2462     0.0074 H       
  22 H22            4.4045     1.4812    -0.0324 H       
  23 H23            6.0021     2.3342    -0.0421 H       
  24 H24            8.2355     5.9702    -0.0468 H       
  25 H25            3.9706     6.1060    -0.0143 H       
@<TRIPOS>BOND
   1    1    2 1
   2    1    3 1
   3    1   18 1
   4    2   19 1
   5    2   20 1
   6    3    4 ar
   7    3    8 ar
   8    4    5 ar
   9    4    9 1
  10    5    6 ar
  11    5   21 1
  12    6    7 ar
  13    6   10 1
  14    7    8 ar
  15    7   22 1
  16   10   11 ar
  17   10   15 ar
  18   11   12 ar
  19   11   23 1
  20   12   13 ar
  21   12   17 1
  22   13   14 ar
  23   13   24 1
  24   14   15 ar
  25   14   16 1
  26   15   25 1

#	End of record

