#	Name: ASD01140546
#	Creating user name:	WinNT
#	Creation time:	15. 06. 2019 19:01

#	Modifying user name:	WinNT
#	Modification time:	15. 06. 2019 19:01

#	Program:	/corina/corina34_cracker 3.40 0067  02.08.2006

@<TRIPOS>MOLECULE
ASD01140546
  27   28    0    0    0
SMALL
NO_CHARGES


@<TRIPOS>ATOM
   1 O1            -0.0173     1.4248     0.0099 O.3     
   2 C2            -2.8089    -2.3726     1.0179 C.3     
   3 C3            -3.7828    -1.8039    -0.0344 C.3     
   4 C4            -1.7026    -2.0163     0.0075 C.3     
   5 C5            -2.7695    -2.3087    -1.0760 C.3     
   6 C6            -3.8403    -0.2723     0.0467 C.3     
   7 C7            -1.4117    -0.5257     0.0127 C.2     
   8 C8            -2.7512    -1.5585     2.3120 C.3     
   9 C9            -2.9665    -3.8751     1.2595 C.3     
  10 C10           -2.4400     0.2911     0.0274 C.2     
  11 C11            0.0021    -0.0041     0.0020 C.3     
  12 H12           -4.7574    -2.2907    -0.0695 H       
  13 H13           -0.8255    -2.6635     0.0083 H       
  14 H14           -2.8748    -3.3663    -1.3181 H       
  15 H15           -2.6890    -1.6732    -1.9579 H       
  16 H16           -4.3989     0.1152    -0.8053 H       
  17 H17           -4.3376     0.0235     0.9704 H       
  18 H18           -3.6093    -1.8073     2.9364 H       
  19 H19           -1.8316    -1.7931     2.8481 H       
  20 H20           -2.7715    -0.4951     2.0736 H       
  21 H21           -3.1327    -4.3806     0.3082 H       
  22 H22           -2.0614    -4.2652     1.7249 H       
  23 H23           -3.8178    -4.0500     1.9174 H       
  24 H24           -2.2847     1.3599     0.0253 H       
  25 H25            0.5123    -0.3556    -0.8948 H       
  26 H26            0.5293    -0.3651     0.8851 H       
  27 H27            0.8606     1.8301     0.0037 H       
@<TRIPOS>BOND
   1    1   11 1
   2    1   27 1
   3    2    3 1
   4    2    4 1
   5    2    8 1
   6    2    9 1
   7    3    5 1
   8    3    6 1
   9    3   12 1
  10    4    5 1
  11    4    7 1
  12    4   13 1
  13    5   14 1
  14    5   15 1
  15    6   10 1
  16    6   16 1
  17    6   17 1
  18    7   10 2
  19    7   11 1
  20    8   18 1
  21    8   19 1
  22    8   20 1
  23    9   21 1
  24    9   22 1
  25    9   23 1
  26   10   24 1
  27   11   25 1
  28   11   26 1

#	End of record

