#	Name: ASD01350031
#	Creating user name:	WinNT
#	Creation time:	15. 06. 2019 19:16

#	Modifying user name:	WinNT
#	Modification time:	15. 06. 2019 19:16

#	Program:	/corina/corina34_cracker 3.40 0067  02.08.2006

@<TRIPOS>MOLECULE
ASD01350031
  37   39    0    0    0
SMALL
NO_CHARGES


@<TRIPOS>ATOM
   1 C1            -0.0187     1.5258     0.0104 C.3     
   2 C2             0.0021    -0.0041     0.0020 C.3     
   3 C3             0.6216    -0.5051     1.2812 C.ar    
   4 C4            -0.1573    -0.6540     2.4148 C.ar    
   5 C5             0.4116    -1.1139     3.5890 C.ar    
   6 C6             1.7588    -1.4247     3.6288 C.ar    
   7 C7             2.5368    -1.2753     2.4943 C.ar    
   8 C8             1.9668    -0.8212     1.3200 C.ar    
   9 Cl9            2.4736    -2.0014     5.1020 Cl      
  10 Cl10          -1.8479    -0.2632     2.3640 Cl      
  11 C11            1.4178     2.0618    -0.0004 C.3     
  12 C12            1.3718     3.5677     0.2507 C.3     
  13 C13            0.3975     4.2316    -0.6869 C.ar    
  14 C14           -0.5717     3.5296    -1.3673 C.ar    
  15 C15           -0.7329     2.0375    -1.2389 C.3     
  16 N16           -0.1625     1.3848    -2.4249 N.3     
  17 C17            0.4976     5.6067    -0.8564 C.ar    
  18 C18           -0.3680     6.2741    -1.6977 C.ar    
  19 C19           -1.3438     5.5696    -2.3783 C.ar    
  20 C20           -1.4437     4.2040    -2.2126 C.ar    
  21 H21           -0.5364     1.8810     0.9014 H       
  22 H22           -1.0175    -0.3808    -0.0798 H       
  23 H23            0.5883    -0.3548    -0.8473 H       
  24 H24           -0.1959    -1.2300     4.4744 H       
  25 H25            3.5888    -1.5176     2.5253 H       
  26 H26            2.5743    -0.7052     0.4347 H       
  27 H27            1.9968     1.5762     0.7851 H       
  28 H28            1.8758     1.8651    -0.9698 H       
  29 H29            1.0624     3.7512     1.2796 H       
  30 H30            2.3650     3.9887     0.0941 H       
  31 H31           -1.7935     1.7950    -1.1711 H       
  32 H32           -0.6285     1.6913    -3.2656 H       
  33 H33            0.8318     1.5461    -2.4833 H       
  34 H34            1.2592     6.1578    -0.3248 H       
  35 H35           -0.2840     7.3434    -1.8241 H       
  36 H36           -2.0256     6.0869    -3.0370 H       
  37 H37           -2.2061     3.6543    -2.7446 H       
@<TRIPOS>BOND
   1    1    2 1
   2    1   11 1
   3    1   15 1
   4    1   21 1
   5    2    3 1
   6    2   22 1
   7    2   23 1
   8    3    4 ar
   9    3    8 ar
  10    4    5 ar
  11    4   10 1
  12    5    6 ar
  13    5   24 1
  14    6    7 ar
  15    6    9 1
  16    7    8 ar
  17    7   25 1
  18    8   26 1
  19   11   12 1
  20   11   27 1
  21   11   28 1
  22   12   13 1
  23   12   29 1
  24   12   30 1
  25   13   14 ar
  26   13   17 ar
  27   14   15 1
  28   14   20 ar
  29   15   16 1
  30   15   31 1
  31   16   32 1
  32   16   33 1
  33   17   18 ar
  34   17   34 1
  35   18   19 ar
  36   18   35 1
  37   19   20 ar
  38   19   36 1
  39   20   37 1

#	End of record

