#	Name: ASD07301079
#	Creating user name:	WinNT
#	Creation time:	15. 06. 2019 21:10

#	Modifying user name:	WinNT
#	Modification time:	15. 06. 2019 21:10

#	Program:	/corina/corina34_cracker 3.40 0067  02.08.2006

@<TRIPOS>MOLECULE
ASD07301079
  27   27    0    0    0
SMALL
NO_CHARGES


@<TRIPOS>ATOM
   1 C1            -0.0138     1.5006     0.1241 C.3     
   2 C2             0.0092    -0.0062     0.1189 C.2     
   3 C3             1.2812    -0.7182    -0.0115 C.2     
   4 C4             1.3036    -2.1815    -0.0165 C.2     
   5 C5             1.5555    -2.9357     1.2636 C.3     
   6 O6            -1.0271    -0.6293     0.2227 O.2     
   7 O7             1.1192    -2.7876    -1.0517 O.2     
   8 N8             2.4117    -0.0385    -0.1247 N.2     
   9 N9             3.5405    -0.6626    -0.1429 N.pl3   
  10 C10            4.7354     0.0573    -0.1546 C.ar    
  11 C11            5.9548    -0.6147    -0.1742 C.ar    
  12 C12            7.1370     0.1020    -0.1858 C.ar    
  13 C13            7.1095     1.4847    -0.1774 C.ar    
  14 C14            5.8985     2.1565    -0.1580 C.ar    
  15 C15            4.7116     1.4463    -0.1526 C.ar    
  16 F16            5.8765     3.5073    -0.1499 F       
  17 F17            5.9827    -1.9654    -0.1815 F       
  18 H18            1.0029     1.8799     0.0218 H       
  19 H19           -0.6203     1.8576    -0.7083 H       
  20 H20           -0.4407     1.8542     1.0626 H       
  21 H21            0.6172    -3.0562     1.8050 H       
  22 H22            1.9698    -3.9169     1.0317 H       
  23 H23            2.2618    -2.3795     1.8800 H       
  24 H24            3.5584    -1.6324    -0.1483 H       
  25 H25            8.0832    -0.4185    -0.2010 H       
  26 H26            8.0346     2.0419    -0.1858 H       
  27 H27            3.7676     1.9708    -0.1419 H       
@<TRIPOS>BOND
   1    1    2 1
   2    1   18 1
   3    1   19 1
   4    1   20 1
   5    2    3 1
   6    2    6 2
   7    3    4 1
   8    3    8 2
   9    4    5 1
  10    4    7 2
  11    5   21 1
  12    5   22 1
  13    5   23 1
  14    8    9 1
  15    9   10 1
  16    9   24 1
  17   10   11 ar
  18   10   15 ar
  19   11   12 ar
  20   11   17 1
  21   12   13 ar
  22   12   25 1
  23   13   14 ar
  24   13   26 1
  25   14   15 ar
  26   14   16 1
  27   15   27 1

#	End of record

