#	Name: ASD01810466
#	Creating user name:	WinNT
#	Creation time:	15. 06. 2019 19:24

#	Modifying user name:	WinNT
#	Modification time:	15. 06. 2019 19:24

#	Program:	/corina/corina34_cracker 3.40 0067  02.08.2006

@<TRIPOS>MOLECULE
ASD01810466
  59   62    0    0    0
SMALL
NO_CHARGES


@<TRIPOS>ATOM
   1 C1             0.0069     1.4749    -0.5288 C.2     
   2 C2             0.0808    -0.0008    -0.5221 C.ar    
   3 C3             1.1646    -0.6621    -1.1144 C.ar    
   4 C4             1.1870    -2.0440    -1.0810 C.ar    
   5 C5             0.1468    -2.7244    -0.4686 C.ar    
   6 N6            -0.8620    -2.0739     0.0815 N.ar    
   7 C7            -0.9248    -0.7585     0.0794 C.ar    
   8 O8             0.8911     2.1254    -1.0512 O.2     
   9 N9            -1.0436     2.0995     0.0394 N.am    
  10 C10           -1.0606     3.4951     0.1325 C.ar    
  11 C11           -2.2630     4.1843     0.0247 C.ar    
  12 C12           -2.2852     5.5632     0.1160 C.ar    
  13 C13           -1.1135     6.2653     0.3143 C.ar    
  14 C14            0.0991     5.5827     0.4238 C.ar    
  15 C15            0.1207     4.1906     0.3379 C.ar    
  16 C16           -1.1433     7.7688     0.4120 C.3     
  17 C17           -3.5467     3.4254    -0.1929 C.3     
  18 C18            1.3558     6.3324     0.6358 C.2     
  19 O19            1.6782     7.2102    -0.1407 O.2     
  20 N20            2.1438     6.0424     1.6900 N.am    
  21 C21            3.3496     6.8360     1.9640 C.3     
  22 C22            3.2928     7.3355     3.4111 C.3     
  23 C23            3.0980     6.1433     4.3508 C.3     
  24 C24            1.7736     5.4478     4.0275 C.3     
  25 C25            1.8102     4.9305     2.5906 C.3     
  26 F26            4.1524     5.2395     4.1817 F       
  27 C27            3.0758     6.6271     5.7778 C.ar    
  28 C28            3.2231     5.7222     6.8141 C.ar    
  29 C29            3.2037     6.1583     8.1227 C.ar    
  30 C30            3.0353     7.5163     8.4002 C.ar    
  31 C31            2.8876     8.4240     7.3495 C.ar    
  32 C32            2.9138     7.9749     6.0455 C.ar    
  33 C33            3.0137     7.9760     9.7563 C.1     
  34 N34            2.9965     8.3407    10.8320 N.1     
  35 Cl35           0.1699    -4.4597    -0.4245 Cl      
  36 H36            1.9621    -0.1066    -1.5854 H       
  37 H37            2.0064    -2.5875    -1.5278 H       
  38 H38           -1.7639    -0.2619     0.5438 H       
  39 H39           -1.7878     1.5814     0.3837 H       
  40 H40           -3.2224     6.0931     0.0315 H       
  41 H41            1.0554     3.6567     0.4263 H       
  42 H42           -1.3675     8.0618     1.4377 H       
  43 H43           -0.1723     8.1710     0.1232 H       
  44 H44           -1.9118     8.1610    -0.2541 H       
  45 H45           -3.9873     3.1727     0.7716 H       
  46 H46           -4.2428     4.0438    -0.7595 H       
  47 H47           -3.3384     2.5108    -0.7480 H       
  48 H48            4.2348     6.2152     1.8262 H       
  49 H49            3.3887     7.6877     1.2848 H       
  50 H50            4.2248     7.8442     3.6573 H       
  51 H51            2.4588     8.0281     3.5245 H       
  52 H52            1.6244     4.6130     4.7123 H       
  53 H53            0.9540     6.1582     4.1350 H       
  54 H54            0.8339     4.5253     2.3247 H       
  55 H55            2.5673     4.1511     2.5049 H       
  56 H56            3.3533     4.6721     6.5980 H       
  57 H57            3.3181     5.4508     8.9307 H       
  58 H58            2.7570     9.4758     7.5572 H       
  59 H59            2.8038     8.6764     5.2317 H       
@<TRIPOS>BOND
   1    1    2 1
   2    1    8 2
   3    1    9 am
   4    2    3 ar
   5    2    7 ar
   6    3    4 ar
   7    3   36 1
   8    4    5 ar
   9    4   37 1
  10    5    6 ar
  11    5   35 1
  12    6    7 ar
  13    7   38 1
  14    9   10 1
  15    9   39 1
  16   10   11 ar
  17   10   15 ar
  18   11   12 ar
  19   11   17 1
  20   12   13 ar
  21   12   40 1
  22   13   14 ar
  23   13   16 1
  24   14   15 ar
  25   14   18 1
  26   15   41 1
  27   16   42 1
  28   16   43 1
  29   16   44 1
  30   17   45 1
  31   17   46 1
  32   17   47 1
  33   18   19 2
  34   18   20 am
  35   20   21 1
  36   20   25 1
  37   21   22 1
  38   21   48 1
  39   21   49 1
  40   22   23 1
  41   22   50 1
  42   22   51 1
  43   23   24 1
  44   23   26 1
  45   23   27 1
  46   24   25 1
  47   24   52 1
  48   24   53 1
  49   25   54 1
  50   25   55 1
  51   27   28 ar
  52   27   32 ar
  53   28   29 ar
  54   28   56 1
  55   29   30 ar
  56   29   57 1
  57   30   31 ar
  58   30   33 1
  59   31   32 ar
  60   31   58 1
  61   32   59 1
  62   33   34 3

#	End of record

