#	Name: ASD01420354
#	Creating user name:	WinNT
#	Creation time:	15. 06. 2019 19:20

#	Modifying user name:	WinNT
#	Modification time:	15. 06. 2019 19:20

#	Program:	/corina/corina34_cracker 3.40 0067  02.08.2006

@<TRIPOS>MOLECULE
ASD01420354
  51   55    0    0    0
SMALL
NO_CHARGES


@<TRIPOS>ATOM
   1 C1             1.2587    -0.4340    -1.0646 C.3     
   2 N2             0.1479    -0.2728    -0.0992 N.3     
   3 C3             0.4408    -1.2751     0.9503 C.3     
   4 C4             1.9421    -1.4530     0.9375 C.ar    
   5 C5             2.8127    -1.9934     1.8643 C.ar    
   6 C6             4.1691    -2.0356     1.5971 C.ar    
   7 C7             4.6540    -1.5364     0.4014 C.ar    
   8 C8             3.7831    -0.9959    -0.5256 C.ar    
   9 C9             2.4278    -0.9536    -0.2590 C.ar    
  10 C10           -1.1475    -0.5421    -0.7375 C.3     
  11 C11           -1.2466    -4.5875    -2.1058 C.ar    
  12 C12           -4.2861     0.0810     2.0924 C.ar    
  13 C13           -1.6767     2.0969    -4.0546 C.ar    
  14 C14           -0.7056    -3.5998    -2.9074 C.ar    
  15 C15           -0.6738    -2.2906    -2.4648 C.ar    
  16 C16           -1.1826    -1.9692    -1.2203 C.ar    
  17 C17           -1.7232    -2.9570    -0.4184 C.ar    
  18 C18           -1.7553    -4.2661    -0.8613 C.ar    
  19 C19           -4.5653    -0.4911     0.8654 C.ar    
  20 C20           -3.5497    -0.6924    -0.0505 C.ar    
  21 C21           -2.2548    -0.3221     0.2608 C.ar    
  22 C22           -1.9755     0.2495     1.4880 C.ar    
  23 C23           -2.9912     0.4513     2.4038 C.ar    
  24 C24           -2.3581     0.8949    -4.0121 C.ar    
  25 C25           -2.1866     0.0408    -2.9388 C.ar    
  26 C26           -1.3341     0.3888    -1.9078 C.ar    
  27 C27           -0.6530     1.5910    -1.9501 C.ar    
  28 C28           -0.8241     2.4449    -3.0236 C.ar    
  29 Br29           5.3605    -2.7748     2.8660 Br      
  30 H30            0.9849    -1.1525    -1.8372 H       
  31 H31            1.5089     0.5267    -1.5146 H       
  32 H32            0.1134    -0.9083     1.9231 H       
  33 H33           -0.0522    -2.2190     0.7176 H       
  34 H34            2.4340    -2.3827     2.7978 H       
  35 H35            5.7131    -1.5688     0.1925 H       
  36 H36            4.1619    -0.6062    -1.4589 H       
  37 H37           -1.2754    -5.6096    -2.4534 H       
  38 H38           -5.0803     0.2423     2.8063 H       
  39 H39           -1.8072     2.7622    -4.8953 H       
  40 H40           -0.3077    -3.8509    -3.8795 H       
  41 H41           -0.2505    -1.5190    -3.0908 H       
  42 H42           -2.1203    -2.7060     0.5540 H       
  43 H43           -2.1777    -5.0379    -0.2348 H       
  44 H44           -5.5770    -0.7808     0.6223 H       
  45 H45           -3.7678    -1.1401    -1.0089 H       
  46 H46           -0.9637     0.5385     1.7314 H       
  47 H47           -2.7729     0.8979     3.3626 H       
  48 H48           -3.0245     0.6231    -4.8174 H       
  49 H49           -2.7195    -0.8980    -2.9052 H       
  50 H50            0.0128     1.8631    -1.1445 H       
  51 H51           -0.2920     3.3842    -3.0567 H       
@<TRIPOS>BOND
   1    1    2 1
   2    1    9 1
   3    1   30 1
   4    1   31 1
   5    2    3 1
   6    2   10 1
   7    3    4 1
   8    3   32 1
   9    3   33 1
  10    4    5 ar
  11    4    9 ar
  12    5    6 ar
  13    5   34 1
  14    6    7 ar
  15    6   29 1
  16    7    8 ar
  17    7   35 1
  18    8    9 ar
  19    8   36 1
  20   10   16 1
  21   10   21 1
  22   10   26 1
  23   11   14 ar
  24   11   18 ar
  25   11   37 1
  26   12   19 ar
  27   12   23 ar
  28   12   38 1
  29   13   24 ar
  30   13   28 ar
  31   13   39 1
  32   14   15 ar
  33   14   40 1
  34   15   16 ar
  35   15   41 1
  36   16   17 ar
  37   17   18 ar
  38   17   42 1
  39   18   43 1
  40   19   20 ar
  41   19   44 1
  42   20   21 ar
  43   20   45 1
  44   21   22 ar
  45   22   23 ar
  46   22   46 1
  47   23   47 1
  48   24   25 ar
  49   24   48 1
  50   25   26 ar
  51   25   49 1
  52   26   27 ar
  53   27   28 ar
  54   27   50 1
  55   28   51 1

#	End of record

