#	Name: ASD01882625
#	Creating user name:	WinNT
#	Creation time:	15. 06. 2019 19:44

#	Modifying user name:	WinNT
#	Modification time:	15. 06. 2019 19:44

#	Program:	/corina/corina34_cracker 3.40 0067  02.08.2006

@<TRIPOS>MOLECULE
ASD01882625
  53   56    0    0    0
SMALL
NO_CHARGES


@<TRIPOS>ATOM
   1 C1            -0.0015     1.4012     0.1871 C.2     
   2 C2             0.0178    -0.0045     0.1834 C.2     
   3 C3             1.2066    -0.6546    -0.0130 C.2     
   4 C4             2.3867     0.0952    -0.2074 C.2     
   5 C5             2.3451     1.4420    -0.2000 C.2     
   6 N6             1.1655     2.0999    -0.0052 N.pl3   
   7 N7            -0.4657     3.4814     0.2615 N.2     
   8 N8            -0.9641     2.2979     0.3408 N.2     
   9 C9             0.8229     3.4188     0.0514 C.2     
  10 N10            1.2514    -2.0467    -0.0204 N.pl3   
  11 C11            2.0102    -2.7768     1.0042 C.3     
  12 C12            2.9828    -3.7344     0.3086 C.3     
  13 C13            2.2056    -4.6322    -0.6568 C.3     
  14 C14            1.5292    -3.7702    -1.7253 C.3     
  15 C15            0.5356    -2.8132    -1.0494 C.3     
  16 C16            3.1544    -5.5986    -1.3178 C.ar    
  17 C17            2.9722    -6.9602    -1.1645 C.ar    
  18 C18            3.8425    -7.8467    -1.7708 C.ar    
  19 C19            4.8948    -7.3714    -2.5309 C.ar    
  20 C20            5.0765    -6.0098    -2.6850 C.ar    
  21 C21            4.2036    -5.1234    -2.0822 C.ar    
  22 C22            1.7586     4.5900    -0.1027 C.3     
  23 O23            1.8353     4.9603    -1.4807 O.3     
  24 C24            2.7015     6.0675    -1.7377 C.3     
  25 C25            2.7062     6.3742    -3.2366 C.3     
  26 O26            1.4058     6.8105    -3.6376 O.3     
  27 C27            1.3011     7.1246    -5.0277 C.3     
  28 Cl28          -1.4468    -0.9045     0.4252 Cl      
  29 H29            3.3271    -0.4128    -0.3623 H       
  30 H30            3.2538     2.0061    -0.3493 H       
  31 H31            2.5692    -2.0701     1.6177 H       
  32 H32            1.3237    -3.3452     1.6316 H       
  33 H33            3.7247    -3.1599    -0.2462 H       
  34 H34            3.4833    -4.3506     1.0555 H       
  35 H35            1.4474    -5.1880    -0.1051 H       
  36 H36            2.2848    -3.1954    -2.2609 H       
  37 H37            0.9952    -4.4120    -2.4260 H       
  38 H38           -0.2687    -3.3846    -0.5861 H       
  39 H39            0.1213    -2.1306    -1.7914 H       
  40 H40            2.1500    -7.3315    -0.5706 H       
  41 H41            3.7005    -8.9105    -1.6504 H       
  42 H42            5.5752    -8.0640    -3.0040 H       
  43 H43            5.8988    -5.6385    -3.2785 H       
  44 H44            4.3434    -4.0596    -2.2056 H       
  45 H45            1.3853     5.4324     0.4797 H       
  46 H46            2.7502     4.3123     0.2547 H       
  47 H47            2.3477     6.9405    -1.1893 H       
  48 H48            3.7127     5.8204    -1.4143 H       
  49 H49            3.4330     7.1594    -3.4446 H       
  50 H50            2.9745     5.4747    -3.7907 H       
  51 H51            1.9988     7.9254    -5.2728 H       
  52 H52            1.5403     6.2407    -5.6190 H       
  53 H53            0.2844     7.4474    -5.2517 H       
@<TRIPOS>BOND
   1    1    2 1
   2    1    6 1
   3    1    8 2
   4    2    3 2
   5    2   28 1
   6    3    4 1
   7    3   10 1
   8    4    5 2
   9    4   29 1
  10    5    6 1
  11    5   30 1
  12    6    9 1
  13    7    8 1
  14    7    9 2
  15    9   22 1
  16   10   11 1
  17   10   15 1
  18   11   12 1
  19   11   31 1
  20   11   32 1
  21   12   13 1
  22   12   33 1
  23   12   34 1
  24   13   14 1
  25   13   16 1
  26   13   35 1
  27   14   15 1
  28   14   36 1
  29   14   37 1
  30   15   38 1
  31   15   39 1
  32   16   17 ar
  33   16   21 ar
  34   17   18 ar
  35   17   40 1
  36   18   19 ar
  37   18   41 1
  38   19   20 ar
  39   19   42 1
  40   20   21 ar
  41   20   43 1
  42   21   44 1
  43   22   23 1
  44   22   45 1
  45   22   46 1
  46   23   24 1
  47   24   25 1
  48   24   47 1
  49   24   48 1
  50   25   26 1
  51   25   49 1
  52   25   50 1
  53   26   27 1
  54   27   51 1
  55   27   52 1
  56   27   53 1

#	End of record

