#	Name: ASD01912159
#	Creating user name:	WinNT
#	Creation time:	15. 06. 2019 19:59

#	Modifying user name:	WinNT
#	Modification time:	15. 06. 2019 19:59

#	Program:	/corina/corina34_cracker 3.40 0067  02.08.2006

@<TRIPOS>MOLECULE
ASD01912159
  42   45    0    0    0
SMALL
NO_CHARGES


@<TRIPOS>ATOM
   1 C1            -0.0183     1.5108     0.0190 C.3     
   2 C2            -0.0112     0.0038     0.0164 C.2     
   3 O3             0.5364    -0.7860    -0.9127 O.3     
   4 N4             0.3689    -1.9508    -0.6189 N.2     
   5 C5            -0.2903    -2.0399     0.5069 C.2     
   6 N6            -0.5354    -0.7783     0.9270 N.2     
   7 C7            -0.6897    -3.2917     1.1973 C.ar    
   8 C8            -0.3616    -4.5285     0.6469 C.ar    
   9 C9            -0.7360    -5.6904     1.2939 C.ar    
  10 C10           -1.4356    -5.6262     2.4865 C.ar    
  11 C11           -1.7634    -4.4001     3.0364 C.ar    
  12 C12           -1.3891    -3.2335     2.4011 C.ar    
  13 C13            1.4227     2.0710    -0.0077 C.3     
  14 Cl14          -0.3288    -7.2331     0.6098 Cl      
  15 C15            1.3277     3.2974    -0.8884 C.2     
  16 N16            0.1863     3.2697    -1.5978 N.am    
  17 C17           -0.5956     2.0632    -1.3030 C.3     
  18 O18            2.1600     4.1778    -0.9454 O.2     
  19 C19           -0.2067     4.2651    -2.5022 C.ar    
  20 C20           -1.3454     4.0893    -3.2769 C.ar    
  21 C21           -1.7324     5.0709    -4.1677 C.ar    
  22 C22           -0.9835     6.2322    -4.2890 C.ar    
  23 C23            0.1546     6.4083    -3.5157 C.ar    
  24 C24            0.5393     5.4302    -2.6200 C.ar    
  25 O25           -1.3649     7.1982    -5.1667 O.3     
  26 C26           -0.5472     8.3678    -5.2398 C.3     
  27 H27           -0.5702     1.8947     0.8770 H       
  28 H28            0.1839    -4.5790    -0.2837 H       
  29 H29           -1.7269    -6.5366     2.9892 H       
  30 H30           -2.3094    -4.3555     3.9672 H       
  31 H31           -1.6455    -2.2769     2.8319 H       
  32 H32            1.7436     2.3466     0.9969 H       
  33 H33            2.1074     1.3421    -0.4414 H       
  34 H34           -0.4756     1.3314    -2.1019 H       
  35 H35           -1.6482     2.3171    -1.1780 H       
  36 H36           -1.9282     3.1848    -3.1831 H       
  37 H37           -2.6182     4.9342    -4.7704 H       
  38 H38            0.7374     7.3126    -3.6109 H       
  39 H39            1.4253     5.5674    -2.0180 H       
  40 H40           -0.5191     8.8531    -4.2642 H       
  41 H41            0.4637     8.0865    -5.5349 H       
  42 H42           -0.9624     9.0560    -5.9761 H       
@<TRIPOS>BOND
   1    1    2 1
   2    1   13 1
   3    1   17 1
   4    1   27 1
   5    2    3 1
   6    2    6 2
   7    3    4 1
   8    4    5 2
   9    5    6 1
  10    5    7 1
  11    7    8 ar
  12    7   12 ar
  13    8    9 ar
  14    8   28 1
  15    9   10 ar
  16    9   14 1
  17   10   11 ar
  18   10   29 1
  19   11   12 ar
  20   11   30 1
  21   12   31 1
  22   13   15 1
  23   13   32 1
  24   13   33 1
  25   15   16 am
  26   15   18 2
  27   16   17 1
  28   16   19 1
  29   17   34 1
  30   17   35 1
  31   19   20 ar
  32   19   24 ar
  33   20   21 ar
  34   20   36 1
  35   21   22 ar
  36   21   37 1
  37   22   23 ar
  38   22   25 1
  39   23   24 ar
  40   23   38 1
  41   24   39 1
  42   25   26 1
  43   26   40 1
  44   26   41 1
  45   26   42 1

#	End of record

