#	Name: ASD03080146
#	Creating user name:	WinNT
#	Creation time:	15. 06. 2019 20:26

#	Modifying user name:	WinNT
#	Modification time:	15. 06. 2019 20:26

#	Program:	/corina/corina34_cracker 3.40 0067  02.08.2006

@<TRIPOS>MOLECULE
ASD03080146
  50   52    0    0    0
SMALL
NO_CHARGES


@<TRIPOS>ATOM
   1 C1             1.0802    -0.5679     0.7878 C.ar    
   2 C2             0.0032    -0.0126     0.1073 C.ar    
   3 C3             0.1202     1.2431    -0.4766 C.ar    
   4 C4             1.3053     1.9410    -0.3816 C.ar    
   5 C5             2.3868     1.3862     0.3008 C.ar    
   6 C6             2.2673     0.1263     0.8854 C.ar    
   7 C7            -1.1860    -2.0618    -0.0994 C.2     
   8 N8            -1.1999    -0.7186     0.0096 N.am    
   9 C9            -2.1864    -4.3275    -0.2219 C.3     
  10 C10           -2.4810    -2.8325    -0.0838 C.3     
  11 C11           -3.2066    -6.6049    -0.3442 C.3     
  12 C12           -3.5011    -5.1099    -0.2060 C.3     
  13 C13            3.6633     2.1349     0.4040 C.ar    
  14 O14           -0.1313    -2.6504    -0.2102 O.2     
  15 N15           -4.4689    -7.3561    -0.3289 N.3     
  16 C16           -4.2493    -8.7629    -0.6950 C.3     
  17 C17           -5.4621    -6.7356    -1.2176 C.3     
  18 C18           -6.7776    -7.5134    -1.1259 C.3     
  19 O19           -6.5387    -8.8846    -1.4547 O.3     
  20 C20           -5.5769    -9.5204    -0.6085 C.3     
  21 C21            4.7543     1.5883     1.0860 C.ar    
  22 C22            3.7962     3.3919    -0.1821 C.ar    
  23 N23            4.9295     4.0574    -0.0918 N.ar    
  24 C24            5.9740     3.5697     0.5491 C.ar    
  25 C25            5.9231     2.3266     1.1535 C.ar    
  26 H26            0.9857    -1.5421     1.2443 H       
  27 H27           -0.7179     1.6724    -1.0056 H       
  28 H28            1.3959     2.9166    -0.8359 H       
  29 H29            3.1038    -0.3053     1.4149 H       
  30 H30           -2.0444    -0.2415     0.0204 H       
  31 H31           -1.6664    -4.5100    -1.1623 H       
  32 H32           -1.5600    -4.6527     0.6087 H       
  33 H33           -3.0010    -2.6500     0.8566 H       
  34 H34           -3.1074    -2.5073    -0.9144 H       
  35 H35           -2.6866    -6.7874    -1.2846 H       
  36 H36           -2.5802    -6.9301     0.4865 H       
  37 H37           -4.0212    -4.9274     0.7344 H       
  38 H38           -4.1276    -4.7847    -1.0366 H       
  39 H39           -3.8643    -8.8182    -1.7132 H       
  40 H40           -3.5300    -9.2096    -0.0085 H       
  41 H41           -5.6282    -5.7024    -0.9126 H       
  42 H42           -5.0966    -6.7584    -2.2442 H       
  43 H43           -7.1706    -7.4455    -0.1115 H       
  44 H44           -7.4993    -7.0917    -1.8255 H       
  45 H45           -5.4302   -10.5503    -0.9340 H       
  46 H46           -5.9350    -9.5109     0.4209 H       
  47 H47            4.6868     0.6148     1.5486 H       
  48 H48            2.9626     3.8244    -0.7155 H       
  49 H49            6.8847     4.1481     0.5990 H       
  50 H50            6.7849     1.9378     1.6755 H       
@<TRIPOS>BOND
   1    1    2 ar
   2    1    6 ar
   3    1   26 1
   4    2    3 ar
   5    2    8 1
   6    3    4 ar
   7    3   27 1
   8    4    5 ar
   9    4   28 1
  10    5    6 ar
  11    5   13 1
  12    6   29 1
  13    7    8 am
  14    7   14 2
  15    7   10 1
  16    8   30 1
  17    9   10 1
  18    9   12 1
  19    9   31 1
  20    9   32 1
  21   10   33 1
  22   10   34 1
  23   11   12 1
  24   11   15 1
  25   11   35 1
  26   11   36 1
  27   12   37 1
  28   12   38 1
  29   13   21 ar
  30   13   22 ar
  31   15   16 1
  32   15   17 1
  33   16   20 1
  34   16   39 1
  35   16   40 1
  36   17   18 1
  37   17   41 1
  38   17   42 1
  39   18   19 1
  40   18   43 1
  41   18   44 1
  42   19   20 1
  43   20   45 1
  44   20   46 1
  45   21   25 ar
  46   21   47 1
  47   22   23 ar
  48   22   48 1
  49   23   24 ar
  50   24   25 ar
  51   24   49 1
  52   25   50 1

#	End of record

