#	Name: ASD01140149
#	Creating user name:	WinNT
#	Creation time:	15. 06. 2019 19:00

#	Modifying user name:	WinNT
#	Modification time:	15. 06. 2019 19:00

#	Program:	/corina/corina34_cracker 3.40 0067  02.08.2006

@<TRIPOS>MOLECULE
ASD01140149
  34   35    0    0    0
SMALL
NO_CHARGES


@<TRIPOS>ATOM
   1 C1            -0.0187     1.5258     0.0104 C.3     
   2 C2             0.0021    -0.0041     0.0020 C.3     
   3 O3             0.6817    -0.4723    -1.1926 O.3     
   4 C4             0.7867    -1.8064    -1.3537 C.2     
   5 O5             0.3228    -2.5578    -0.5185 O.2     
   6 C6             1.4629    -2.3533    -2.5410 C.2     
   7 N7             2.0244    -1.6349    -3.5474 N.2     
   8 C8             2.5268    -2.4575    -4.4220 C.2     
   9 N9             2.3058    -3.7327    -4.0084 N.pl3   
  10 C10            1.6455    -3.6752    -2.8286 C.2     
  11 C11            2.7145    -4.9516    -4.7110 C.3     
  12 C12            2.0712    -4.9858    -6.0734 C.ar    
  13 C13            1.2285    -6.0272    -6.4139 C.ar    
  14 C14            0.6385    -6.0586    -7.6636 C.ar    
  15 C15            0.8909    -5.0482    -8.5727 C.ar    
  16 C16            1.7330    -4.0063    -8.2318 C.ar    
  17 C17            2.3196    -3.9727    -6.9805 C.ar    
  18 C18            4.2366    -4.9655    -4.8651 C.3     
  19 H19            1.0039     1.9031     0.0027 H       
  20 H20           -0.5459     1.8868    -0.8726 H       
  21 H21           -0.5289     1.8773     0.9072 H       
  22 H22            0.5293    -0.3651     0.8851 H       
  23 H23           -1.0205    -0.3814     0.0098 H       
  24 H24            3.0368    -2.1724    -5.3303 H       
  25 H25            1.3189    -4.5144    -2.2324 H       
  26 H26            2.3993    -5.8240    -4.1384 H       
  27 H27            1.0312    -6.8166    -5.7037 H       
  28 H28           -0.0194    -6.8726    -7.9300 H       
  29 H29            0.4306    -5.0730    -9.5493 H       
  30 H30            1.9305    -3.2171    -8.9421 H       
  31 H31            2.9775    -3.1586    -6.7142 H       
  32 H32            4.7018    -4.9408    -3.8797 H       
  33 H33            4.5406    -5.8724    -5.3878 H       
  34 H34            4.5518    -4.0931    -5.4377 H       
@<TRIPOS>BOND
   1    1    2 1
   2    1   19 1
   3    1   20 1
   4    1   21 1
   5    2    3 1
   6    2   22 1
   7    2   23 1
   8    3    4 1
   9    4    5 2
  10    4    6 1
  11    6    7 1
  12    6   10 2
  13    7    8 2
  14    8    9 1
  15    8   24 1
  16    9   10 1
  17    9   11 1
  18   10   25 1
  19   11   12 1
  20   11   18 1
  21   11   26 1
  22   12   13 ar
  23   12   17 ar
  24   13   14 ar
  25   13   27 1
  26   14   15 ar
  27   14   28 1
  28   15   16 ar
  29   15   29 1
  30   16   17 ar
  31   16   30 1
  32   17   31 1
  33   18   32 1
  34   18   33 1
  35   18   34 1

#	End of record

