#	Name: ASD04882567
#	Creating user name:	WinNT
#	Creation time:	15. 06. 2019 20:55

#	Modifying user name:	WinNT
#	Modification time:	15. 06. 2019 20:55

#	Program:	/corina/corina34_cracker 3.40 0067  02.08.2006

@<TRIPOS>MOLECULE
ASD04882567
  84   88    0    0    0
SMALL
NO_CHARGES


@<TRIPOS>ATOM
   1 C1            -0.0214     1.4009    -0.0089 C.ar    
   2 C2            -0.0113     0.0035    -0.0058 C.ar    
   3 C3            -1.2091    -0.7022    -0.0166 C.ar    
   4 C4            -2.4094    -0.0273    -0.0305 C.ar    
   5 C5            -2.4266     1.3703    -0.0337 C.ar    
   6 C6            -1.2238     2.0821    -0.0171 C.ar    
   7 N7             1.2000    -0.6830     0.0078 N.3     
   8 C8             1.3082    -1.5369     1.1989 C.3     
   9 C9             1.3718    -1.4723    -1.2199 C.3     
  10 C10            2.7457    -2.1464    -1.2017 C.3     
  11 N11            2.8539    -3.0003    -0.0106 N.3     
  12 C12            2.6821    -2.2109     1.2171 C.3     
  13 C13           -3.7125     2.0932    -0.0490 C.2     
  14 O14           -3.7265     3.3091    -0.0518 O.2     
  15 N15           -4.8718     1.4059    -0.0599 N.am    
  16 N16            1.1871     2.1111     0.0021 N.am    
  17 C17            4.0690    -3.6889     0.0030 C.ar    
  18 C18            5.2671    -2.9864     0.0134 C.ar    
  19 C19            6.4669    -3.6705     0.0273 C.ar    
  20 C20            6.4762    -5.0531     0.0304 C.ar    
  21 C21            5.2850    -5.7558     0.0201 C.ar    
  22 C22            4.0819    -5.0781     0.0120 C.ar    
  23 C23            1.2302     3.3601     0.5068 C.2     
  24 C24            2.5455     4.0893     0.6020 C.3     
  25 O25            0.2102     3.8972     0.8843 O.2     
  26 C26            2.7844    -5.8446     0.0012 C.3     
  27 C27            3.0821     4.3406    -0.7836 C.ar    
  28 O28            2.3511     5.3370     1.2711 O.3     
  29 C29            3.4917     5.7868     2.0051 C.3     
  30 C30            3.9878     3.4597    -1.3444 C.ar    
  31 C31            2.6643     5.4491    -1.4960 C.ar    
  32 C32            3.1564     5.6797    -2.7671 C.ar    
  33 C33            4.0668     4.8020    -3.3255 C.ar    
  34 C34            4.4800     3.6902    -2.6154 C.ar    
  35 C35           -6.1488     2.1238    -0.0751 C.3     
  36 C36           -7.3002     1.1163    -0.0852 C.3     
  37 C37           -8.6338     1.8660    -0.1011 C.3     
  38 N38           -9.7363     0.9012    -0.1107 N.am    
  39 C39          -10.3724     0.3585     1.0954 C.3     
  40 C40          -11.1400    -0.8975     0.6269 C.3     
  41 C41          -11.3959    -0.5731    -0.8631 C.3     
  42 C42          -10.2990     0.4037    -1.2255 C.2     
  43 O43           -9.9702     0.6906    -2.3571 O.2     
  44 H44           -1.1982    -1.7822    -0.0145 H       
  45 H45           -3.3382    -0.5783    -0.0392 H       
  46 H46           -1.2339     3.1620    -0.0195 H       
  47 H47            1.1901    -0.9276     2.0950 H       
  48 H48            0.5295    -2.2991     1.1719 H       
  49 H49            0.5938    -2.2338    -1.2744 H       
  50 H50            1.3001    -0.8160    -2.0872 H       
  51 H51            2.8638    -2.7556    -2.0978 H       
  52 H52            3.5244    -1.3841    -1.1746 H       
  53 H53            3.4601    -1.4494     1.2716 H       
  54 H54            2.7538    -2.8672     2.0844 H       
  55 H55           -4.8607     0.4360    -0.0577 H       
  56 H56            1.9923     1.7037    -0.3536 H       
  57 H57            5.2605    -1.9064     0.0103 H       
  58 H58            7.3989    -3.1248     0.0354 H       
  59 H59            7.4157    -5.5856     0.0406 H       
  60 H60            5.2957    -6.8357     0.0222 H       
  61 H61            3.2571     3.4833     1.1628 H       
  62 H62            2.4639    -6.0308     1.0263 H       
  63 H63            2.0228    -5.2625    -0.5176 H       
  64 H64            2.9281    -6.7950    -0.5128 H       
  65 H65            3.7475     5.0500     2.7665 H       
  66 H66            4.3341     5.9143     1.3252 H       
  67 H67            3.2634     6.7393     2.4834 H       
  68 H68            4.3111     2.5914    -0.7894 H       
  69 H69            1.9530     6.1349    -1.0598 H       
  70 H70            2.8295     6.5453    -3.3240 H       
  71 H71            4.4510     4.9819    -4.3186 H       
  72 H72            5.1912     3.0045    -3.0516 H       
  73 H73           -6.2232     2.7517     0.8128 H       
  74 H74           -6.2042     2.7478    -0.9671 H       
  75 H75           -7.2257     0.4884    -0.9731 H       
  76 H76           -7.2447     0.4922     0.8068 H       
  77 H77           -8.7082     2.4938     0.7868 H       
  78 H78           -8.6892     2.4900    -0.9930 H       
  79 H79           -9.6155     0.0856     1.8307 H       
  80 H80          -11.0639     1.0876     1.5177 H       
  81 H81          -10.5256    -1.7918     0.7315 H       
  82 H82          -12.0792    -1.0057     1.1695 H       
  83 H83          -11.3214    -1.4764    -1.4685 H       
  84 H84          -12.3733    -0.1074    -0.9898 H       
@<TRIPOS>BOND
   1    1    2 ar
   2    1   16 1
   3    1    6 ar
   4    2    3 ar
   5    2    7 1
   6    3    4 ar
   7    3   44 1
   8    4    5 ar
   9    4   45 1
  10    5    6 ar
  11    5   13 1
  12    6   46 1
  13    7    8 1
  14    7    9 1
  15    8   12 1
  16    8   47 1
  17    8   48 1
  18    9   10 1
  19    9   49 1
  20    9   50 1
  21   10   11 1
  22   10   51 1
  23   10   52 1
  24   11   12 1
  25   11   17 1
  26   12   53 1
  27   12   54 1
  28   13   14 2
  29   13   15 am
  30   15   35 1
  31   15   55 1
  32   16   23 am
  33   16   56 1
  34   17   18 ar
  35   17   22 ar
  36   18   19 ar
  37   18   57 1
  38   19   20 ar
  39   19   58 1
  40   20   21 ar
  41   20   59 1
  42   21   22 ar
  43   21   60 1
  44   22   26 1
  45   23   25 2
  46   23   24 1
  47   24   27 1
  48   24   28 1
  49   24   61 1
  50   26   62 1
  51   26   63 1
  52   26   64 1
  53   27   30 ar
  54   27   31 ar
  55   28   29 1
  56   29   65 1
  57   29   66 1
  58   29   67 1
  59   30   34 ar
  60   30   68 1
  61   31   32 ar
  62   31   69 1
  63   32   33 ar
  64   32   70 1
  65   33   34 ar
  66   33   71 1
  67   34   72 1
  68   35   36 1
  69   35   73 1
  70   35   74 1
  71   36   37 1
  72   36   75 1
  73   36   76 1
  74   37   38 1
  75   37   77 1
  76   37   78 1
  77   38   39 1
  78   38   42 am
  79   39   40 1
  80   39   79 1
  81   39   80 1
  82   40   41 1
  83   40   81 1
  84   40   82 1
  85   41   42 1
  86   41   83 1
  87   41   84 1
  88   42   43 2

#	End of record

