#	Name: ASD05730167
#	Creating user name:	WinNT
#	Creation time:	15. 06. 2019 21:02

#	Modifying user name:	WinNT
#	Modification time:	15. 06. 2019 21:02

#	Program:	/corina/corina34_cracker 3.40 0067  02.08.2006

@<TRIPOS>MOLECULE
ASD05730167
  64   65    0    0    0
SMALL
NO_CHARGES


@<TRIPOS>ATOM
   1 Cl1            5.1435     8.0894     2.2555 Cl      
   2 Cl2            0.8305   -13.4260     6.5488 Cl      
   3 N3             0.2449     1.3900     0.0140 N.2     
   4 N4            -2.4729    -6.2675     3.0560 N.2     
   5 N5             1.4677     3.3370     0.1352 N.2     
   6 N6            -1.9562    -8.3516     3.8869 N.2     
   7 N7             2.5444     1.2457     0.3625 N.pl3   
   8 N8            -1.6137    -6.4279     5.2161 N.pl3   
   9 N9             0.4238     5.4083    -0.0636 N.pl3   
  10 N10           -2.1188   -10.2466     2.5446 N.pl3   
  11 N11           -0.7330     3.4161    -0.6166 N.pl3   
  12 N12           -2.9031    -8.1491     1.7711 N.pl3   
  13 C13           -1.5278    -2.7201     2.1137 C.3     
  14 C14           -0.7001    -2.1575     0.9564 C.3     
  15 C15           -1.5878    -4.2449     2.0039 C.3     
  16 C16           -0.6402    -0.6327     1.0662 C.3     
  17 C17           -2.4155    -4.8075     3.1612 C.3     
  18 C18            0.1876    -0.0701    -0.0911 C.3     
  19 C19            1.3989     1.9908     0.1676 C.2     
  20 C20           -2.0218    -7.0130     4.0344 C.2     
  21 C21           -2.3217    -8.9087     2.7480 C.2     
  22 C22            0.3990     4.0449    -0.1779 C.2     
  23 C23            1.5424     6.0441     0.4865 C.ar    
  24 C24           -1.4194   -11.0004     3.4935 C.ar    
  25 C25            1.9193     7.3023     0.0354 C.ar    
  26 C26           -1.8088   -12.3044     3.7704 C.ar    
  27 C27            2.2744     5.4204     1.4884 C.ar    
  28 C28           -0.3310   -10.4479     4.1560 C.ar    
  29 C29            3.0238     7.9275     0.5799 C.ar    
  30 C30           -1.1168   -13.0462     4.7075 C.ar    
  31 C31            3.3780     6.0501     2.0296 C.ar    
  32 C32            0.3575   -11.1941     5.0922 C.ar    
  33 C33            3.7550     7.3012     1.5739 C.ar    
  34 C34           -0.0365   -12.4911     5.3707 C.ar    
  35 H35            0.3099    -2.5649     1.0005 H       
  36 H36           -1.1631    -2.4357     0.0096 H       
  37 H37           -1.0648    -2.4419     3.0604 H       
  38 H38           -2.5379    -2.3126     2.0696 H       
  39 H39           -1.6502    -0.2252     1.0221 H       
  40 H40           -0.1772    -0.3545     2.0129 H       
  41 H41           -2.0508    -4.5231     1.0571 H       
  42 H42           -0.5777    -4.6523     2.0479 H       
  43 H43           -0.2754    -0.3483    -1.0378 H       
  44 H44            1.1976    -0.4775    -0.0470 H       
  45 H45           -3.4256    -4.4000     3.1171 H       
  46 H46           -1.9525    -4.5293     4.1079 H       
  47 H47            2.4817     0.2886     0.5073 H       
  48 H48            3.4122     1.6792     0.3548 H       
  49 H49           -1.7699    -5.4828     5.3687 H       
  50 H50           -1.1706    -6.9619     5.8940 H       
  51 H51           -0.3341     5.9340    -0.3638 H       
  52 H52           -2.4599   -10.6724     1.7425 H       
  53 H53           -2.6524   -12.7378     3.2537 H       
  54 H54            1.3494     7.7912    -0.7408 H       
  55 H55           -0.0232    -9.4357     3.9390 H       
  56 H56            1.9806     4.4440     1.8444 H       
  57 H57            3.3172     8.9060     0.2295 H       
  58 H58           -1.4193   -14.0603     4.9233 H       
  59 H59            3.9474     5.5656     2.8090 H       
  60 H60            1.2042   -10.7650     5.6074 H       
  61 H61           -1.6056     3.7616    -0.3715 H       
  62 H62           -0.6635     2.6245    -1.1729 H       
  63 H63           -2.6395    -8.2655     0.8449 H       
  64 H64           -3.5792    -7.4938     2.0043 H       
@<TRIPOS>BOND
   1    1   33 1
   2    2   34 1
   3    3   18 1
   4    3   19 2
   5    4   17 1
   6    4   20 2
   7    5   19 1
   8    5   22 2
   9    6   20 1
  10    6   21 2
  11    7   19 1
  12    7   47 1
  13    7   48 1
  14    8   20 1
  15    8   49 1
  16    8   50 1
  17    9   22 1
  18    9   23 1
  19    9   51 1
  20   10   21 1
  21   10   24 1
  22   10   52 1
  23   11   22 1
  24   11   61 1
  25   11   62 1
  26   12   21 1
  27   12   63 1
  28   12   64 1
  29   13   14 1
  30   13   15 1
  31   13   37 1
  32   13   38 1
  33   14   16 1
  34   14   35 1
  35   14   36 1
  36   15   17 1
  37   15   41 1
  38   15   42 1
  39   16   18 1
  40   16   39 1
  41   16   40 1
  42   17   45 1
  43   17   46 1
  44   18   43 1
  45   18   44 1
  46   23   25 ar
  47   23   27 ar
  48   24   26 ar
  49   24   28 ar
  50   25   29 ar
  51   25   54 1
  52   26   30 ar
  53   26   53 1
  54   27   31 ar
  55   27   56 1
  56   28   32 ar
  57   28   55 1
  58   29   33 ar
  59   29   57 1
  60   30   34 ar
  61   30   58 1
  62   31   33 ar
  63   31   59 1
  64   32   34 ar
  65   32   60 1

#	End of record

