#	Name: ASD05060006
#	Creating user name:	WinNT
#	Creation time:	15. 06. 2019 20:56

#	Modifying user name:	WinNT
#	Modification time:	15. 06. 2019 20:56

#	Program:	/corina/corina34_cracker 3.40 0067  02.08.2006

@<TRIPOS>MOLECULE
ASD05060006
 123  123    0    0    0
SMALL
NO_CHARGES


@<TRIPOS>ATOM
   1 N1            -2.4575     4.7281    -2.1305 N.3     
   2 N2            -2.8569     3.5738    -2.9191 N.3     
   3 C3            -4.3201     3.4809    -3.0124 C.3     
   4 C4            -4.8557     2.7633    -1.8002 C.2     
   5 N5            -5.9665     3.2597    -1.1792 N.am    
   6 C6            -6.4277     2.4969     0.0030 C.3     
   7 C7            -7.2600     3.4074     0.8686 C.2     
   8 N8            -7.2604     3.2206     2.2169 N.am    
   9 C9            -8.0937     4.1445     3.0117 C.3     
  10 C10           -7.2603     4.7110     4.1321 C.2     
  11 N11           -7.4327     6.0196     4.4831 N.am    
  12 C12           -6.5797     6.4971     5.5949 C.3     
  13 C13           -5.8430     7.7313     5.1416 C.2     
  14 N14           -4.6088     7.9902     5.6541 N.am    
  15 C15           -3.9358     9.2127     5.1718 C.3     
  16 C16           -2.5539     8.8502     4.6921 C.2     
  17 N17           -1.9281     9.6775     3.8036 N.am    
  18 C18           -0.5759     9.2488     3.3795 C.3     
  19 C19           -0.5304     9.2219     1.8733 C.2     
  20 C20            0.1180     8.0845     1.1694 C.2     
  21 C21            0.1607     8.0563    -0.3368 C.3     
  22 N22           -0.0524     6.6685    -0.7937 N.am    
  23 C23           -0.8143     6.5047    -1.9095 C.2     
  24 C24           -1.0698     5.1110    -2.4234 C.3     
  25 O25           -1.2814     7.4665    -2.4820 O.2     
  26 O26            0.6111     7.1832     1.8046 O.2     
  27 O27           -1.0212    10.1245     1.2382 O.2     
  28 O28           -2.0073     7.8426     5.0881 O.2     
  29 O29           -6.3425     8.4828     4.3314 O.2     
  30 O30           -6.4511     4.0177     4.7113 O.2     
  31 O31           -7.9208     4.2942     0.3707 O.2     
  32 O32           -4.3106     1.7631    -1.3838 O.2     
  33 C33           -0.1149     4.1316    -1.7380 C.3     
  34 C34            0.4655    10.2376     3.9073 C.3     
  35 C35            0.4878    10.1872     5.4363 C.3     
  36 C36            0.9695     8.8091     5.8942 C.3     
  37 C37            1.4376    11.2622     5.9683 C.3     
  38 C38           -4.9174     4.8880    -3.0775 C.3     
  39 C39           -4.2686     5.6648    -4.2249 C.3     
  40 O40           -6.3260     4.7976    -3.3000 O.3     
  41 C41           -8.5926     5.2820     2.1183 C.3     
  42 C42           -7.3996     5.9590     1.4406 C.3     
  43 C43           -6.9365     7.1450     2.2890 C.3     
  44 C44           -9.5327     4.7177     1.0512 C.3     
  45 C45           -7.2738     1.3062    -0.4522 C.3     
  46 C46           -6.3992     0.3322    -1.2443 C.3     
  47 C47           -7.2453    -0.8585    -1.6995 C.3     
  48 C48           -6.3708    -1.8325    -2.4916 C.3     
  49 N49           -7.1832    -2.9757    -2.9287 N.3     
  50 C50           -4.7370     9.8175     4.0172 C.3     
  51 C51           -4.7239     8.8694     2.8458 C.2     
  52 O52           -4.3358     7.7298     2.9924 O.2     
  53 N53           -5.1435     9.2880     1.6354 N.am    
  54 C54           -8.1099     5.5804     7.3175 C.2     
  55 C55           -7.4541     6.8362     6.8038 C.3     
  56 O56           -7.8994     4.5227     6.7726 O.2     
  57 O57           -8.9277     5.6368     8.3803 O.3     
  58 C58           -2.2888     8.4022    -0.5082 C.2     
  59 C59           -0.9425     8.9559    -0.8979 C.3     
  60 O60           -2.3601     7.3676     0.1118 O.2     
  61 O61           -3.4088     9.0585    -0.8499 O.3     
  62 H62           -3.0858     5.5033    -2.2802 H       
  63 H63           -2.4370     3.5996    -3.8362 H       
  64 H64           -4.5925     2.9284    -3.9116 H       
  65 H65           -6.4221     4.0570    -1.4915 H       
  66 H66           -5.5659     2.1418     0.5682 H       
  67 H67           -6.7401     2.5163     2.6341 H       
  68 H68           -8.9443     3.6038     3.4267 H       
  69 H69           -8.0702     6.5968     4.0343 H       
  70 H70           -5.8628     5.7217     5.8650 H       
  71 H71           -4.1925     7.4014     6.3028 H       
  72 H72           -3.8624     9.9344     5.9854 H       
  73 H73           -2.3415    10.4903     3.4727 H       
  74 H74           -0.3688     8.2523     3.7697 H       
  75 H75            1.1328     8.4091    -0.6814 H       
  76 H76            0.3312     5.9123    -0.3228 H       
  77 H77           -0.9054     5.0851    -3.5006 H       
  78 H78           -0.2998     3.1237    -2.1095 H       
  79 H79            0.9147     4.4158    -1.9553 H       
  80 H80           -0.2793     4.1577    -0.6607 H       
  81 H81            1.4490     9.9704     3.5206 H       
  82 H82            0.2082    11.2452     3.5807 H       
  83 H83           -0.5163    10.3672     5.8204 H       
  84 H84            0.9854     8.7732     6.9835 H       
  85 H85            0.2928     8.0432     5.5152 H       
  86 H86            1.9736     8.6291     5.5101 H       
  87 H87            1.0944    12.2440     5.6421 H       
  88 H88            1.4535    11.2263     7.0576 H       
  89 H89            2.4417    11.0822     5.5842 H       
  90 H90           -4.7306     5.4059    -2.1367 H       
  91 H91           -4.4553     5.1469    -5.1656 H       
  92 H92           -4.6941     6.6673    -4.2713 H       
  93 H93           -3.1941     5.7337    -4.0551 H       
  94 H94           -6.5664     4.3473    -4.1213 H       
  95 H95           -9.1283     6.0122     2.7250 H       
  96 H96           -6.5839     5.2429     1.3411 H       
  97 H97           -7.6953     6.3124     0.4528 H       
  98 H98           -7.8049     7.7075     2.6319 H       
  99 H99           -6.3774     6.7792     3.1503 H       
 100 H100          -6.2973     7.7931     1.6894 H       
 101 H101         -10.5511     4.6960     1.4390 H       
 102 H102          -9.4952     5.3489     0.1634 H       
 103 H103          -9.2213     3.7060     0.7911 H       
 104 H104          -7.6851     0.7982     0.4200 H       
 105 H105          -8.0882     1.6598    -1.0845 H       
 106 H106          -5.9878     0.8402    -2.1166 H       
 107 H107          -5.5847    -0.0214    -0.6121 H       
 108 H108          -7.6567    -1.3665    -0.8273 H       
 109 H109          -8.0598    -0.5049    -2.3318 H       
 110 H110          -5.9594    -1.3245    -3.3639 H       
 111 H111          -5.5563    -2.1861    -1.8594 H       
 112 H112          -7.9819    -2.6684    -3.4632 H       
 113 H113          -6.6278    -3.6339    -3.4545 H       
 114 H114          -5.7653     9.9854     4.3373 H       
 115 H115          -4.2889    10.7662     3.7218 H       
 116 H116          -5.4539    10.1995     1.5181 H       
 117 H117          -5.1351     8.6778     0.8814 H       
 118 H118          -6.8356     7.2705     7.5892 H       
 119 H119          -8.2213     7.5518     6.5080 H       
 120 H120          -9.3250     4.8053     8.6732 H       
 121 H121          -0.8322     9.9618    -0.4928 H       
 122 H122          -0.8649     8.9913    -1.9846 H       
 123 H123          -4.2489     8.6644    -0.5778 H       
@<TRIPOS>BOND
   1    1    2 1
   2    1   24 1
   3    1   62 1
   4    2    3 1
   5    2   63 1
   6    3    4 1
   7    3   38 1
   8    3   64 1
   9    4    5 am
  10    4   32 2
  11    5    6 1
  12    5   65 1
  13    6    7 1
  14    6   45 1
  15    6   66 1
  16    7    8 am
  17    7   31 2
  18    8    9 1
  19    8   67 1
  20    9   10 1
  21    9   41 1
  22    9   68 1
  23   10   11 am
  24   10   30 2
  25   11   12 1
  26   11   69 1
  27   12   13 1
  28   12   55 1
  29   12   70 1
  30   13   14 am
  31   13   29 2
  32   14   15 1
  33   14   71 1
  34   15   16 1
  35   15   50 1
  36   15   72 1
  37   16   17 am
  38   16   28 2
  39   17   18 1
  40   17   73 1
  41   18   19 1
  42   18   34 1
  43   18   74 1
  44   19   20 1
  45   19   27 2
  46   20   21 1
  47   20   26 2
  48   21   22 1
  49   21   59 1
  50   21   75 1
  51   22   23 am
  52   22   76 1
  53   23   24 1
  54   23   25 2
  55   24   33 1
  56   24   77 1
  57   33   78 1
  58   33   79 1
  59   33   80 1
  60   34   35 1
  61   34   81 1
  62   34   82 1
  63   35   36 1
  64   35   37 1
  65   35   83 1
  66   36   84 1
  67   36   85 1
  68   36   86 1
  69   37   87 1
  70   37   88 1
  71   37   89 1
  72   38   39 1
  73   38   40 1
  74   38   90 1
  75   39   91 1
  76   39   92 1
  77   39   93 1
  78   40   94 1
  79   41   42 1
  80   41   44 1
  81   41   95 1
  82   42   43 1
  83   42   96 1
  84   42   97 1
  85   43   98 1
  86   43   99 1
  87   43  100 1
  88   44  101 1
  89   44  102 1
  90   44  103 1
  91   45   46 1
  92   45  104 1
  93   45  105 1
  94   46   47 1
  95   46  106 1
  96   46  107 1
  97   47   48 1
  98   47  108 1
  99   47  109 1
 100   48   49 1
 101   48  110 1
 102   48  111 1
 103   49  112 1
 104   49  113 1
 105   50   51 1
 106   50  114 1
 107   50  115 1
 108   51   52 2
 109   51   53 am
 110   53  116 1
 111   53  117 1
 112   54   55 1
 113   54   56 2
 114   54   57 1
 115   55  118 1
 116   55  119 1
 117   57  120 1
 118   58   59 1
 119   58   60 2
 120   58   61 1
 121   59  121 1
 122   59  122 1
 123   61  123 1

#	End of record

