#	Name: ASD03320147
#	Creating user name:	WinNT
#	Creation time:	15. 06. 2019 20:36

#	Modifying user name:	WinNT
#	Modification time:	15. 06. 2019 20:36

#	Program:	/corina/corina34_cracker 3.40 0067  02.08.2006

@<TRIPOS>MOLECULE
ASD03320147
  52   55    0    0    0
SMALL
NO_CHARGES


@<TRIPOS>ATOM
   1 C1            -0.1299     1.5366    -0.2585 C.2     
   2 C2             0.0012     0.0741    -0.1140 C.ar    
   3 C3             0.9192    -0.4696     0.7945 C.ar    
   4 C4             1.0052    -1.8553     0.8944 C.ar    
   5 C5             0.1733    -2.6495     0.0855 C.ar    
   6 N6            -0.6804    -2.0922    -0.7599 N.ar    
   7 C7            -0.7920    -0.7855    -0.8767 C.ar    
   8 O8             0.5612     2.2783     0.4132 O.2     
   9 N9            -1.0116     2.0505    -1.1388 N.am    
  10 N10            3.2485    -2.1034     2.0522 N.pl3   
  11 N11            3.7889    -2.9607     3.0193 N.2     
  12 C12            2.8679    -3.8203     3.3740 C.2     
  13 C13            1.7052    -3.5501     2.6520 C.2     
  14 C14            1.9572    -2.4826     1.8366 C.2     
  15 C15            3.9445    -0.9943     1.3951 C.3     
  16 N16            0.2477    -4.0274     0.1733 N.3     
  17 C17           -1.0810    -4.6130     0.4296 C.3     
  18 C18           -1.3622    -5.6220    -0.7037 C.3     
  19 C19            0.0579    -5.9687    -1.2233 C.3     
  20 C20            0.7860    -4.6095    -1.0746 C.3     
  21 O21           -2.0117    -6.7877    -0.1926 O.3     
  22 C22           -1.2176     3.4345    -1.1966 C.ar    
  23 C23           -1.7180     4.0145    -2.3548 C.ar    
  24 C24           -1.9213     5.3792    -2.4109 C.ar    
  25 C25           -1.6259     6.1706    -1.3105 C.ar    
  26 C26           -1.1256     5.5919    -0.1533 C.ar    
  27 C27           -0.9271     4.2267    -0.0938 C.ar    
  28 O28           -1.8264     7.5143    -1.3665 O.3     
  29 C29           -1.5007     8.2681    -0.1970 C.3     
  30 F30           -2.2733     7.8172     0.8786 F       
  31 F31           -0.1440     8.1026     0.1017 F       
  32 Cl32          -1.8424    10.0136    -0.4924 Cl      
  33 H33            1.5438     0.1696     1.4008 H       
  34 H34           -1.5043    -0.3726    -1.5757 H       
  35 H35           -1.5034     1.4617    -1.7324 H       
  36 H36            2.9880    -4.6076     4.1035 H       
  37 H37            0.7721    -4.0890     2.7241 H       
  38 H38            4.3977    -1.3476     0.4688 H       
  39 H39            3.2323    -0.2001     1.1713 H       
  40 H40            4.7213    -0.6102     2.0562 H       
  41 H41           -1.0809    -5.1260     1.3913 H       
  42 H42           -1.8387    -3.8295     0.4249 H       
  43 H43           -1.9587    -5.1611    -1.4909 H       
  44 H44            0.5255    -6.7322    -0.6016 H       
  45 H45            0.0261    -6.2825    -2.2666 H       
  46 H46            0.5604    -3.9634    -1.9229 H       
  47 H47            1.8617    -4.7627    -0.9887 H       
  48 H48           -2.2108    -7.4537    -0.8648 H       
  49 H49           -1.9477     3.3985    -3.2117 H       
  50 H50           -2.3101     5.8305    -3.3117 H       
  51 H51           -0.8955     6.2087     0.7028 H       
  52 H52           -0.5421     3.7757     0.8089 H       
@<TRIPOS>BOND
   1    1    2 1
   2    1    8 2
   3    1    9 am
   4    2    3 ar
   5    2    7 ar
   6    3    4 ar
   7    3   33 1
   8    4    5 ar
   9    4   14 1
  10    5    6 ar
  11    5   16 1
  12    6    7 ar
  13    7   34 1
  14    9   22 1
  15    9   35 1
  16   10   11 1
  17   10   14 1
  18   10   15 1
  19   11   12 2
  20   12   13 1
  21   12   36 1
  22   13   14 2
  23   13   37 1
  24   15   38 1
  25   15   39 1
  26   15   40 1
  27   16   17 1
  28   16   20 1
  29   17   18 1
  30   17   41 1
  31   17   42 1
  32   18   19 1
  33   18   21 1
  34   18   43 1
  35   19   20 1
  36   19   44 1
  37   19   45 1
  38   20   46 1
  39   20   47 1
  40   21   48 1
  41   22   23 ar
  42   22   27 ar
  43   23   24 ar
  44   23   49 1
  45   24   25 ar
  46   24   50 1
  47   25   26 ar
  48   25   28 1
  49   26   27 ar
  50   26   51 1
  51   27   52 1
  52   28   29 1
  53   29   30 1
  54   29   31 1
  55   29   32 1

#	End of record

