#	Name: ASD02039239
#	Creating user name:	WinNT
#	Creation time:	15. 06. 2019 20:17

#	Modifying user name:	WinNT
#	Modification time:	15. 06. 2019 20:17

#	Program:	/corina/corina34_cracker 3.40 0067  02.08.2006

@<TRIPOS>MOLECULE
ASD02039239
  42   45    0    0    0
SMALL
NO_CHARGES


@<TRIPOS>ATOM
   1 N1            -0.0043     1.3311    -0.0078 N.am    
   2 C2             0.0189    -0.0135    -0.0532 C.2     
   3 C3             1.3251    -0.7594    -0.1047 C.3     
   4 C4             2.3430     0.0293    -0.9290 C.3     
   5 C5             2.3616     1.4637    -0.4684 C.ar    
   6 C6             3.5403     2.1825    -0.4871 C.ar    
   7 C7             3.5538     3.5031    -0.0627 C.ar    
   8 C8             2.3834     4.1020     0.3805 C.ar    
   9 C9             1.2042     3.3839     0.4000 C.ar    
  10 C10            1.1899     2.0622    -0.0251 C.ar    
  11 O11           -1.0247    -0.6315    -0.0522 O.2     
  12 O12            4.7146     4.2108    -0.0807 O.3     
  13 C13            4.6556     5.5656     0.3701 C.3     
  14 S14            8.4797     6.6001    -0.1075 S.3     
  15 C15            7.4911     7.8519     0.5078 C.2     
  16 N16            6.2693     7.4348     0.6320 N.2     
  17 C17            6.0262     6.1855     0.2791 C.2     
  18 C18            7.0916     5.5167    -0.1637 C.2     
  19 N19            7.9315     9.1273     0.8281 N.pl3   
  20 C20            9.2958     9.4288     0.7784 C.ar    
  21 C21            9.7163    10.6822     0.3521 C.ar    
  22 C22           11.0655    10.9773     0.3040 C.ar    
  23 C23           11.9976    10.0241     0.6804 C.ar    
  24 C24           11.5805     8.7753     1.1051 C.ar    
  25 C25           10.2328     8.4773     1.1605 C.ar    
  26 Cl26          13.6919    10.3971     0.6185 Cl      
  27 Cl27          11.5926    12.5431    -0.2289 Cl      
  28 H28           -0.8540     1.7972     0.0332 H       
  29 H29            1.7054    -0.8937     0.9079 H       
  30 H30            1.1666    -1.7357    -0.5629 H       
  31 H31            3.3331    -0.4072    -0.7976 H       
  32 H32            2.0659    -0.0103    -1.9825 H       
  33 H33            4.4517     1.7166    -0.8316 H       
  34 H34            2.3948     5.1302     0.7108 H       
  35 H35            0.2934     3.8501     0.7458 H       
  36 H36            3.9608     6.1266    -0.2549 H       
  37 H37            4.3140     5.5895     1.4049 H       
  38 H38            7.1018     4.4899    -0.4983 H       
  39 H39            7.2931     9.8103     1.0866 H       
  40 H40            8.9897    11.4252     0.0584 H       
  41 H41           12.3093     8.0339     1.3976 H       
  42 H42            9.9081     7.5038     1.4967 H       
@<TRIPOS>BOND
   1    1    2 am
   2    1   10 1
   3    1   28 1
   4    2    3 1
   5    2   11 2
   6    3    4 1
   7    3   29 1
   8    3   30 1
   9    4    5 1
  10    4   31 1
  11    4   32 1
  12    5    6 ar
  13    5   10 ar
  14    6    7 ar
  15    6   33 1
  16    7    8 ar
  17    7   12 1
  18    8    9 ar
  19    8   34 1
  20    9   10 ar
  21    9   35 1
  22   12   13 1
  23   13   17 1
  24   13   36 1
  25   13   37 1
  26   14   15 1
  27   14   18 1
  28   15   16 2
  29   15   19 1
  30   16   17 1
  31   17   18 2
  32   18   38 1
  33   19   20 1
  34   19   39 1
  35   20   21 ar
  36   20   25 ar
  37   21   22 ar
  38   21   40 1
  39   22   23 ar
  40   22   27 1
  41   23   24 ar
  42   23   26 1
  43   24   25 ar
  44   24   41 1
  45   25   42 1

#	End of record

