#	Name: ASD03430972
#	Creating user name:	WinNT
#	Creation time:	15. 06. 2019 20:41

#	Modifying user name:	WinNT
#	Modification time:	15. 06. 2019 20:41

#	Program:	/corina/corina34_cracker 3.40 0067  02.08.2006

@<TRIPOS>MOLECULE
ASD03430972
  62   69    0    0    0
SMALL
NO_CHARGES


@<TRIPOS>ATOM
   1 O1            -0.6527     1.5777     1.0017 O.3     
   2 C2            -0.7565     0.1588     1.1625 C.3     
   3 C3             0.3617    -0.3010     2.1078 C.3     
   4 O4             1.6187     0.0569     1.5237 O.3     
   5 C5             1.7267     1.3211     1.0297 C.ar    
   6 C6             0.5912     2.0776     0.7634 C.ar    
   7 C7             2.9834     1.8536     0.7961 C.ar    
   8 C8             3.1209     3.1409     0.2868 C.ar    
   9 C9             1.9768     3.8810     0.0041 C.ar    
  10 C10            0.7245     3.3566     0.2456 C.ar    
  11 O11            4.2507     3.8537     0.0122 O.3     
  12 C12            2.4443     5.1948    -0.5624 C.3     
  13 C13            3.9239     4.9367    -0.8793 C.3     
  14 N14            1.1418     6.8016    -1.5344 N.am    
  15 C15            1.6747     5.5904    -1.7903 C.2     
  16 C16            2.2663     6.3303     0.4005 C.ar    
  17 C17            2.7146     6.5733     1.6917 C.ar    
  18 C18            2.3664     7.7607     2.3348 C.ar    
  19 C19            1.5778     8.6871     1.6817 C.ar    
  20 C20            1.1315     8.4447     0.3985 C.ar    
  21 C21            1.4705     7.2621    -0.2567 C.ar    
  22 O22            1.5559     4.9462    -2.8111 O.2     
  23 N23            3.8412     4.0847     4.2072 N.ar    
  24 C24            3.1159     4.9710     3.5738 C.ar    
  25 C25            3.5615     5.5721     2.3857 C.ar    
  26 C26            4.7985     5.2230     1.8654 C.ar    
  27 C27            5.5616     4.2690     2.5614 C.ar    
  28 C28            6.8242     3.8657     2.0960 C.ar    
  29 C29            7.5354     2.9396     2.7965 C.ar    
  30 C30            7.0267     2.3862     3.9694 C.ar    
  31 C31            5.8069     2.7541     4.4489 C.ar    
  32 C32            5.0422     3.7074     3.7550 C.ar    
  33 C33            0.3141     7.5483    -2.4849 C.3     
  34 C34           -1.1341     7.1818    -2.2859 C.ar    
  35 C35           -1.9326     7.9676    -1.4764 C.ar    
  36 C36           -3.2635     7.6220    -1.3003 C.ar    
  37 C37           -3.7437     6.4938    -1.9480 C.ar    
  38 C38           -2.8857     5.7567    -2.7418 C.ar    
  39 N39           -1.6261     6.1183    -2.8904 N.ar    
  40 H40           -1.7266    -0.0926     1.5911 H       
  41 H41           -0.6438    -0.3300     0.1948 H       
  42 H42            0.2518     0.1915     3.0739 H       
  43 H43            0.3115    -1.3821     2.2380 H       
  44 H44            3.8633     1.2654     1.0112 H       
  45 H45           -0.1556     3.9443     0.0301 H       
  46 H46            4.5266     5.8170    -0.6559 H       
  47 H47            4.0498     4.6337    -1.9187 H       
  48 H48            2.7117     7.9548     3.3396 H       
  49 H49            1.3081     9.6073     2.1785 H       
  50 H50            0.5152     9.1769    -0.1019 H       
  51 H51            2.1515     5.2463     3.9744 H       
  52 H52            5.1646     5.6701     0.9530 H       
  53 H53            7.2283     4.2874     1.1876 H       
  54 H54            8.5060     2.6300     2.4381 H       
  55 H55            7.6095     1.6528     4.5069 H       
  56 H56            5.4279     2.3145     5.3597 H       
  57 H57            0.4444     8.6176    -2.3185 H       
  58 H58            0.6152     7.2996    -3.5026 H       
  59 H59           -1.5248     8.8397    -0.9869 H       
  60 H60           -3.9110     8.2170    -0.6733 H       
  61 H61           -4.7751     6.1947    -1.8332 H       
  62 H62           -3.2519     4.8767    -3.2496 H       
@<TRIPOS>BOND
   1    1    2 1
   2    1    6 1
   3    2    3 1
   4    2   40 1
   5    2   41 1
   6    3    4 1
   7    3   42 1
   8    3   43 1
   9    4    5 1
  10    5    6 ar
  11    5    7 ar
  12    6   10 ar
  13    7    8 ar
  14    7   44 1
  15    8    9 ar
  16    8   11 1
  17    9   10 ar
  18    9   12 1
  19   10   45 1
  20   11   13 1
  21   12   13 1
  22   12   15 1
  23   12   16 1
  24   13   46 1
  25   13   47 1
  26   14   15 am
  27   14   21 1
  28   14   33 1
  29   15   22 2
  30   16   17 ar
  31   16   21 ar
  32   17   18 ar
  33   17   25 1
  34   18   19 ar
  35   18   48 1
  36   19   20 ar
  37   19   49 1
  38   20   21 ar
  39   20   50 1
  40   23   24 ar
  41   23   32 ar
  42   24   25 ar
  43   24   51 1
  44   25   26 ar
  45   26   27 ar
  46   26   52 1
  47   27   28 ar
  48   27   32 ar
  49   28   29 ar
  50   28   53 1
  51   29   30 ar
  52   29   54 1
  53   30   31 ar
  54   30   55 1
  55   31   32 ar
  56   31   56 1
  57   33   34 1
  58   33   57 1
  59   33   58 1
  60   34   35 ar
  61   34   39 ar
  62   35   36 ar
  63   35   59 1
  64   36   37 ar
  65   36   60 1
  66   37   38 ar
  67   37   61 1
  68   38   39 ar
  69   38   62 1

#	End of record

