#	Name: ASD03090164
#	Creating user name:	WinNT
#	Creation time:	15. 06. 2019 20:28

#	Modifying user name:	WinNT
#	Modification time:	15. 06. 2019 20:28

#	Program:	/corina/corina34_cracker 3.40 0067  02.08.2006

@<TRIPOS>MOLECULE
ASD03090164
  39   41    0    0    0
SMALL
NO_CHARGES


@<TRIPOS>ATOM
   1 N1             0.4458     1.5128     1.4668 N.ar    
   2 C2             1.5489     2.1899     1.2086 C.ar    
   3 C3             2.7236     1.5360     0.8893 C.ar    
   4 C4             2.7302     0.1386     0.8431 C.ar    
   5 C5             1.5376    -0.5376     1.1245 C.ar    
   6 C6             0.4102     0.1942     1.4338 C.ar    
   7 C7             3.9645    -0.6052     0.5053 C.2     
   8 N8             5.7450    -3.4535    -0.5296 N.pl3   
   9 C9             4.8188    -4.4434    -0.8742 C.ar    
  10 C10            3.6024    -4.0898    -1.4432 C.ar    
  11 C11            2.6892    -5.0691    -1.7827 C.ar    
  12 C12            2.9858    -6.4023    -1.5556 C.ar    
  13 C13            4.1981    -6.7572    -0.9878 C.ar    
  14 C14            5.1167    -5.7820    -0.6530 C.ar    
  15 N15            4.0295    -1.8612     0.1118 N.2     
  16 C16            5.3012    -2.2000    -0.1042 C.2     
  17 N17            6.0690    -1.1645     0.1482 N.2     
  18 N18            5.2233    -0.1142     0.5404 N.pl3   
  19 C19            5.6264     1.2418     0.9214 C.3     
  20 C20            5.7323     2.1134    -0.3316 C.3     
  21 C21            6.1373     3.4758     0.0513 C.1     
  22 N22            6.4498     4.5273     0.3467 N.1     
  23 Cl23           1.5236     3.9246     1.2703 Cl      
  24 F24            2.0910    -7.3584    -1.8880 F       
  25 C25            4.5177    -8.2091    -0.7414 C.3     
  26 F26            5.7881    -8.3157    -0.1653 F       
  27 F27            3.5653    -8.7558     0.1253 F       
  28 F28            4.4965    -8.9039    -1.9555 F       
  29 H29            3.6228     2.0958     0.6783 H       
  30 H30            1.5005    -1.6166     1.0992 H       
  31 H31           -0.5145    -0.3192     1.6524 H       
  32 H32            6.6956    -3.6379    -0.5863 H       
  33 H33            3.3703    -3.0499    -1.6199 H       
  34 H34            1.7431    -4.7946    -2.2252 H       
  35 H35            6.0621    -6.0593    -0.2106 H       
  36 H36            4.8833     1.6654     1.5970 H       
  37 H37            6.5940     1.2060     1.4220 H       
  38 H38            6.4754     1.6898    -1.0071 H       
  39 H39            4.7647     2.1491    -0.8321 H       
@<TRIPOS>BOND
   1    1    2 ar
   2    1    6 ar
   3    2    3 ar
   4    2   23 1
   5    3    4 ar
   6    3   29 1
   7    4    5 ar
   8    4    7 1
   9    5    6 ar
  10    5   30 1
  11    6   31 1
  12    7   15 2
  13    7   18 1
  14    8    9 1
  15    8   16 1
  16    8   32 1
  17    9   10 ar
  18    9   14 ar
  19   10   11 ar
  20   10   33 1
  21   11   12 ar
  22   11   34 1
  23   12   13 ar
  24   12   24 1
  25   13   14 ar
  26   13   25 1
  27   14   35 1
  28   15   16 1
  29   16   17 2
  30   17   18 1
  31   18   19 1
  32   19   20 1
  33   19   36 1
  34   19   37 1
  35   20   21 1
  36   20   38 1
  37   20   39 1
  38   21   22 3
  39   25   26 1
  40   25   27 1
  41   25   28 1

#	End of record

