#	Name: ASD01912227
#	Creating user name:	WinNT
#	Creation time:	15. 06. 2019 19:59

#	Modifying user name:	WinNT
#	Modification time:	15. 06. 2019 19:59

#	Program:	/corina/corina34_cracker 3.40 0067  02.08.2006

@<TRIPOS>MOLECULE
ASD01912227
  45   47    0    0    0
SMALL
NO_CHARGES


@<TRIPOS>ATOM
   1 C1            -0.0169     1.3937     0.0097 C.ar    
   2 C2             0.0021    -0.0041     0.0020 C.ar    
   3 C3             1.2200    -0.6586    -0.0132 C.ar    
   4 C4             2.3820     0.1017    -0.0202 C.ar    
   5 C5             2.2917     1.4816    -0.0120 C.ar    
   6 N6             1.1202     2.0835     0.0026 N.ar    
   7 C7             3.5515     2.3086    -0.0196 C.3     
   8 C8            -1.2694     2.0877     0.0194 C.1     
   9 C9            -2.2963     2.6567     0.0274 C.1     
  10 C10           -3.5488     3.3508     0.0371 C.2     
  11 N11           -3.6148     7.3285     0.9695 N.3     
  12 C12           -4.8137     6.5026     1.1598 C.3     
  13 C13           -4.8824     5.4423     0.0547 C.3     
  14 C14           -3.5723     4.6828     0.0444 C.2     
  15 C15           -2.2897     5.4880     0.0432 C.3     
  16 C16           -2.3858     6.5453     1.1491 C.3     
  17 C17           -3.6313     8.4944     1.8630 C.3     
  18 C18           -2.2895     9.1790     1.8205 C.ar    
  19 C19           -2.0534    10.1803     0.8972 C.ar    
  20 C20           -0.8225    10.8082     0.8582 C.ar    
  21 C21            0.1721    10.4352     1.7428 C.ar    
  22 C22           -0.0643     9.4345     2.6667 C.ar    
  23 C23           -1.2966     8.8095     2.7086 C.ar    
  24 H24           -0.9211    -0.5645     0.0082 H       
  25 H25            1.2665    -1.7376    -0.0191 H       
  26 H26            3.3483    -0.3807    -0.0317 H       
  27 H27            3.8454     2.5135    -1.0490 H       
  28 H28            3.3719     3.2492     0.5010 H       
  29 H29            4.3485     1.7612     0.4837 H       
  30 H30           -4.4745     2.7944     0.0384 H       
  31 H31           -4.7666     6.0119     2.1320 H       
  32 H32           -5.7011     7.1338     1.1136 H       
  33 H33           -5.7042     4.7550     0.2553 H       
  34 H34           -5.0343     5.9263    -0.9101 H       
  35 H35           -1.4424     4.8301     0.2364 H       
  36 H36           -2.1635     5.9769    -0.9228 H       
  37 H37           -1.5217     7.2075     1.0951 H       
  38 H38           -2.4070     6.0534     2.1215 H       
  39 H39           -4.4047     9.1903     1.5380 H       
  40 H40           -3.8408     8.1684     2.8818 H       
  41 H41           -2.8304    10.4717     0.2061 H       
  42 H42           -0.6378    11.5900     0.1364 H       
  43 H43            1.1340    10.9253     1.7118 H       
  44 H44            0.7128     9.1428     3.3576 H       
  45 H45           -1.4826     8.0302     3.4329 H       
@<TRIPOS>BOND
   1    1    2 ar
   2    1    6 ar
   3    1    8 1
   4    2    3 ar
   5    2   24 1
   6    3    4 ar
   7    3   25 1
   8    4    5 ar
   9    4   26 1
  10    5    6 ar
  11    5    7 1
  12    7   27 1
  13    7   28 1
  14    7   29 1
  15    8    9 3
  16    9   10 1
  17   10   14 2
  18   10   30 1
  19   11   12 1
  20   11   16 1
  21   11   17 1
  22   12   13 1
  23   12   31 1
  24   12   32 1
  25   13   14 1
  26   13   33 1
  27   13   34 1
  28   14   15 1
  29   15   16 1
  30   15   35 1
  31   15   36 1
  32   16   37 1
  33   16   38 1
  34   17   18 1
  35   17   39 1
  36   17   40 1
  37   18   19 ar
  38   18   23 ar
  39   19   20 ar
  40   19   41 1
  41   20   21 ar
  42   20   42 1
  43   21   22 ar
  44   21   43 1
  45   22   23 ar
  46   22   44 1
  47   23   45 1

#	End of record

