#	Name: ASD03090772
#	Creating user name:	WinNT
#	Creation time:	15. 06. 2019 20:29

#	Modifying user name:	WinNT
#	Modification time:	15. 06. 2019 20:29

#	Program:	/corina/corina34_cracker 3.40 0067  02.08.2006

@<TRIPOS>MOLECULE
ASD03090772
  44   46    0    0    0
SMALL
NO_CHARGES


@<TRIPOS>ATOM
   1 O1            -0.0173     1.4248     0.0099 O.3     
   2 C2             0.0021    -0.0041     0.0020 C.3     
   3 C3            -1.4333    -0.5336     0.0129 C.3     
   4 C4            -2.1755     0.0508     1.1870 C.ar    
   5 C5            -2.3452    -0.6969     2.3377 C.ar    
   6 C6            -3.0252    -0.1634     3.4154 C.ar    
   7 C7            -3.5379     1.1236     3.3425 C.ar    
   8 C8            -3.3663     1.8718     2.1868 C.ar    
   9 C9            -2.6806     1.3358     1.1139 C.ar    
  10 O10           -4.2076     1.6505     4.4011 O.3     
  11 C11           -4.7079     2.9811     4.2552 C.3     
  12 N12           -2.1054    -0.1483    -1.2305 N.am    
  13 C13           -1.9698    -0.9103    -2.3339 C.2     
  14 O14           -1.2914    -1.9150    -2.2975 O.2     
  15 C15           -2.6612    -0.5139    -3.6130 C.3     
  16 C16           -1.7823    -0.0538    -4.7778 C.3     
  17 C17           -2.4684    -1.4203    -4.8304 C.3     
  18 C18           -3.6343    -1.5778    -5.7722 C.ar    
  19 C19           -4.1593    -0.4719    -6.4131 C.ar    
  20 C20           -5.2293    -0.6160    -7.2769 C.ar    
  21 C21           -5.7750    -1.8661    -7.5004 C.ar    
  22 C22           -5.2512    -2.9738    -6.8608 C.ar    
  23 C23           -4.1763    -2.8316    -6.0001 C.ar    
  24 F24           -3.6632    -3.9136    -5.3747 F       
  25 H25            0.8606     1.8301     0.0037 H       
  26 H26            0.5123    -0.3556    -0.8948 H       
  27 H27            0.5293    -0.3651     0.8851 H       
  28 H28           -1.4190    -1.6203     0.0965 H       
  29 H29           -1.9462    -1.6989     2.3938 H       
  30 H30           -3.1579    -0.7479     4.3138 H       
  31 H31           -3.7645     2.8739     2.1276 H       
  32 H32           -2.5467     1.9178     0.2140 H       
  33 H33           -3.8786     3.6623     4.0649 H       
  34 H34           -5.4067     3.0169     3.4194 H       
  35 H35           -5.2202     3.2790     5.1701 H       
  36 H36           -2.6480     0.6552    -1.2597 H       
  37 H37           -3.6311    -0.0312    -3.4930 H       
  38 H38           -2.1742     0.7313    -5.4244 H       
  39 H39           -0.7041    -0.0378    -4.6190 H       
  40 H40           -1.8416    -2.3033    -4.7062 H       
  41 H41           -3.7339     0.5054    -6.2390 H       
  42 H42           -5.6392     0.2490    -7.7771 H       
  43 H43           -6.6112    -1.9774    -8.1748 H       
  44 H44           -5.6780    -3.9505    -7.0353 H       
@<TRIPOS>BOND
   1    1    2 1
   2    1   25 1
   3    2    3 1
   4    2   26 1
   5    2   27 1
   6    3    4 1
   7    3   12 1
   8    3   28 1
   9    4    5 ar
  10    4    9 ar
  11    5    6 ar
  12    5   29 1
  13    6    7 ar
  14    6   30 1
  15    7    8 ar
  16    7   10 1
  17    8    9 ar
  18    8   31 1
  19    9   32 1
  20   10   11 1
  21   11   33 1
  22   11   34 1
  23   11   35 1
  24   12   13 am
  25   12   36 1
  26   13   14 2
  27   13   15 1
  28   15   16 1
  29   15   17 1
  30   15   37 1
  31   16   17 1
  32   16   38 1
  33   16   39 1
  34   17   18 1
  35   17   40 1
  36   18   19 ar
  37   18   23 ar
  38   19   20 ar
  39   19   41 1
  40   20   21 ar
  41   20   42 1
  42   21   22 ar
  43   21   43 1
  44   22   23 ar
  45   22   44 1
  46   23   24 1

#	End of record

