#	Name: ASD02038612
#	Creating user name:	WinNT
#	Creation time:	15. 06. 2019 20:17

#	Modifying user name:	WinNT
#	Modification time:	15. 06. 2019 20:17

#	Program:	/corina/corina34_cracker 3.40 0067  02.08.2006

@<TRIPOS>MOLECULE
ASD02038612
  58   59    0    0    0
SMALL
NO_CHARGES


@<TRIPOS>ATOM
   1 C1            -0.6255     1.1455    -0.9777 C.ar    
   2 C2            -0.6029    -0.2380    -0.9239 C.ar    
   3 C3            -1.7787    -0.9428    -0.7457 C.ar    
   4 C4            -2.9824    -0.2619    -0.6208 C.ar    
   5 C5            -3.0015     1.1262    -0.6752 C.ar    
   6 C6            -1.8234     1.8259    -0.8481 C.ar    
   7 N7            -4.1726    -0.9716    -0.4410 N.pl3   
   8 C8            -4.1512    -2.4354    -0.3843 C.3     
   9 C9            -3.9624    -2.8869     1.0654 C.3     
  10 N10           -3.9409    -4.3506     1.1221 N.am    
  11 C11           -3.7844    -4.9769     2.3052 C.2     
  12 C12           -3.7623    -6.4826     2.3636 C.3     
  13 O13           -3.5860    -6.9043     3.7175 O.3     
  14 C14           -3.5438    -8.2443     3.9464 C.ar    
  15 Cl15           0.8526     2.0283    -1.2010 Cl      
  16 C16           -3.3750    -8.7219     5.2375 C.ar    
  17 C17           -3.6754    -9.1324     2.8892 C.ar    
  18 C18           -3.6332   -10.4933     3.1207 C.ar    
  19 C19           -3.4585   -10.9723     4.4123 C.ar    
  20 C20           -3.3320   -10.0825     5.4708 C.ar    
  21 N21           -3.4156   -12.3511     4.6479 N.am    
  22 S22           -2.0638   -13.2183     4.2445 S.o2    
  23 O23           -2.3708   -14.5489     4.6377 O.2     
  24 O24           -3.6612    -4.3287     3.3229 O.2     
  25 Cl25           0.9027    -1.0878    -1.0809 Cl      
  26 C26           -5.4419    -0.2520    -0.3093 C.3     
  27 C27           -6.0650    -0.0596    -1.6933 C.3     
  28 C28           -7.3906     0.6920    -1.5557 C.3     
  29 C29           -8.0138     0.8845    -2.9398 C.3     
  30 O30           -1.8322   -12.8923     2.8809 O.2     
  31 C31           -0.7545   -12.5303     5.2948 C.3     
  32 H32           -1.7612    -2.0219    -0.7041 H       
  33 H33           -3.9365     1.6579    -0.5785 H       
  34 H34           -1.8382     2.9050    -0.8900 H       
  35 H35           -5.0933    -2.8277    -0.7672 H       
  36 H36           -3.3276    -2.8105    -0.9918 H       
  37 H37           -3.0203    -2.4946     1.4483 H       
  38 H38           -4.7859    -2.5117     1.6729 H       
  39 H39           -4.0394    -4.8690     0.3082 H       
  40 H40           -4.7044    -6.8749     1.9806 H       
  41 H41           -2.9387    -6.8577     1.7560 H       
  42 H42           -3.2766    -8.0297     6.0607 H       
  43 H43           -3.8113    -8.7597     1.8847 H       
  44 H44           -3.7364   -11.1847     2.2975 H       
  45 H45           -3.1961   -10.4542     6.4757 H       
  46 H46           -4.1778   -12.7988     5.0474 H       
  47 H47           -6.1222    -0.8272     0.3187 H       
  48 H48           -5.2619     0.7215     0.1467 H       
  49 H49           -5.3847     0.5157    -2.3213 H       
  50 H50           -6.2450    -1.0331    -2.1493 H       
  51 H51           -8.0709     0.1168    -0.9277 H       
  52 H52           -7.2107     1.6656    -1.0997 H       
  53 H53           -7.3335     1.4597    -3.5678 H       
  54 H54           -8.1937    -0.0891    -3.3958 H       
  55 H55           -8.9581     1.4199    -2.8418 H       
  56 H56           -1.0632   -12.5791     6.3390 H       
  57 H57            0.1606   -13.1067     5.1591 H       
  58 H58           -0.5743   -11.4917     5.0173 H       
@<TRIPOS>BOND
   1    1    2 ar
   2    1   15 1
   3    1    6 ar
   4    2    3 ar
   5    2   25 1
   6    3    4 ar
   7    3   32 1
   8    4    5 ar
   9    4    7 1
  10    5    6 ar
  11    5   33 1
  12    6   34 1
  13    7    8 1
  14    7   26 1
  15    8    9 1
  16    8   35 1
  17    8   36 1
  18    9   10 1
  19    9   37 1
  20    9   38 1
  21   10   11 am
  22   10   39 1
  23   11   12 1
  24   11   24 2
  25   12   13 1
  26   12   40 1
  27   12   41 1
  28   13   14 1
  29   14   16 ar
  30   14   17 ar
  31   16   20 ar
  32   16   42 1
  33   17   18 ar
  34   17   43 1
  35   18   19 ar
  36   18   44 1
  37   19   20 ar
  38   19   21 1
  39   20   45 1
  40   21   22 am
  41   21   46 1
  42   22   23 2
  43   22   30 2
  44   22   31 1
  45   26   27 1
  46   26   47 1
  47   26   48 1
  48   27   28 1
  49   27   49 1
  50   27   50 1
  51   28   29 1
  52   28   51 1
  53   28   52 1
  54   29   53 1
  55   29   54 1
  56   29   55 1
  57   31   56 1
  58   31   57 1
  59   31   58 1

#	End of record

