#	Name: ASD08150661
#	Creating user name:	WinNT
#	Creation time:	15. 06. 2019 21:16

#	Modifying user name:	WinNT
#	Modification time:	15. 06. 2019 21:16

#	Program:	/corina/corina34_cracker 3.40 0067  02.08.2006

@<TRIPOS>MOLECULE
ASD08150661
  61   66    0    0    0
SMALL
NO_CHARGES


@<TRIPOS>ATOM
   1 N1            -1.0464    -0.0473     1.4072 N.am    
   2 C2            -1.5372    -1.1505     0.8097 C.2     
   3 C3            -0.7367    -2.2983     0.6399 C.2     
   4 C4             0.5476    -2.3066     1.0792 C.2     
   5 C5             1.0672    -1.1475     1.7078 C.ar    
   6 C6             2.3924    -1.1029     2.1812 C.ar    
   7 N7             2.8691    -0.0322     2.7608 N.ar    
   8 C8             2.1339     1.0760     2.9373 C.ar    
   9 C9             0.7898     1.1211     2.4916 C.ar    
  10 C10            0.2434    -0.0215     1.8612 C.ar    
  11 C11            0.0318     2.2804     2.6812 C.ar    
  12 C12            0.6056     3.3764     3.3051 C.ar    
  13 C13            1.9364     3.3246     3.7431 C.ar    
  14 C14            2.6865     2.2041     3.5658 C.ar    
  15 O15           -2.6893    -1.1564     0.4108 O.2     
  16 C16           -0.1914     4.6101     3.5102 C.ar    
  17 C17           -1.8607     1.0827     1.5592 C.ar    
  18 C18           -2.0764     1.9332     0.4823 C.ar    
  19 C19           -2.8788     3.0460     0.6318 C.ar    
  20 C20           -3.4709     3.3156     1.8595 C.ar    
  21 C21           -3.2551     2.4651     2.9362 C.ar    
  22 C22           -2.4567     1.3491     2.7849 C.ar    
  23 N23           -4.2834     4.4431     2.0112 N.3     
  24 C24           -5.6812     4.0568     2.2493 C.3     
  25 C25           -4.1767     5.3300     0.8443 C.3     
  26 C26           -5.0168     6.5868     1.0835 C.3     
  27 N27           -6.4145     6.2005     1.3217 N.3     
  28 C28           -6.5213     5.3136     2.4886 C.3     
  29 N29           -1.1365     4.9357     2.6359 N.ar    
  30 C30           -1.8695     6.0228     2.7777 C.ar    
  31 C31           -1.6815     6.8713     3.8489 C.ar    
  32 C32           -0.6993     6.5703     4.7941 C.ar    
  33 C33            0.0541     5.4125     4.6194 C.ar    
  34 N34           -0.4823     7.4041     5.8874 N.pl3   
  35 C35           -3.8969     2.7576     4.2680 C.3     
  36 F36           -3.0294     2.3765     5.2973 F       
  37 F37           -4.1638     4.1274     4.3662 F       
  38 F38           -5.0931     2.0404     4.3768 F       
  39 H39           -1.1467    -3.1741     0.1589 H       
  40 H40            1.1645    -3.1839     0.9520 H       
  41 H41            3.0267    -1.9691     2.0639 H       
  42 H42           -0.9932     2.3216     2.3435 H       
  43 H43            2.3719     4.1861     4.2273 H       
  44 H44            3.7100     2.1814     3.9097 H       
  45 H45           -1.6159     1.7238    -0.4718 H       
  46 H46           -3.0462     3.7075    -0.2054 H       
  47 H47           -2.2925     0.6853     3.6208 H       
  48 H48           -6.0643     3.5235     1.3794 H       
  49 H49           -5.7356     3.4108     3.1255 H       
  50 H50           -3.1343     5.6122     0.6961 H       
  51 H51           -4.5427     4.8111    -0.0416 H       
  52 H52           -4.6336     7.1202     1.9535 H       
  53 H53           -4.9623     7.2329     0.2074 H       
  54 H54           -7.0009     7.0143     1.4312 H       
  55 H55           -7.5636     5.0315     2.6368 H       
  56 H56           -6.1552     5.8325     3.3745 H       
  57 H57           -2.6281     6.2522     2.0441 H       
  58 H58           -2.2873     7.7590     3.9550 H       
  59 H59            0.8227     5.1460     5.3297 H       
  60 H60           -1.0169     8.2057     5.9997 H       
  61 H61            0.2034     7.1835     6.5371 H       
@<TRIPOS>BOND
   1    1    2 am
   2    1   10 1
   3    1   17 1
   4    2    3 1
   5    2   15 2
   6    3    4 2
   7    3   39 1
   8    4    5 1
   9    4   40 1
  10    5    6 ar
  11    5   10 ar
  12    6    7 ar
  13    6   41 1
  14    7    8 ar
  15    8    9 ar
  16    8   14 ar
  17    9   10 ar
  18    9   11 ar
  19   11   12 ar
  20   11   42 1
  21   12   13 ar
  22   12   16 1
  23   13   14 ar
  24   13   43 1
  25   14   44 1
  26   16   29 ar
  27   16   33 ar
  28   17   18 ar
  29   17   22 ar
  30   18   19 ar
  31   18   45 1
  32   19   20 ar
  33   19   46 1
  34   20   21 ar
  35   20   23 1
  36   21   22 ar
  37   21   35 1
  38   22   47 1
  39   23   24 1
  40   23   25 1
  41   24   28 1
  42   24   48 1
  43   24   49 1
  44   25   26 1
  45   25   50 1
  46   25   51 1
  47   26   27 1
  48   26   52 1
  49   26   53 1
  50   27   28 1
  51   27   54 1
  52   28   55 1
  53   28   56 1
  54   29   30 ar
  55   30   31 ar
  56   30   57 1
  57   31   32 ar
  58   31   58 1
  59   32   33 ar
  60   32   34 1
  61   33   59 1
  62   34   60 1
  63   34   61 1
  64   35   36 1
  65   35   37 1
  66   35   38 1

#	End of record

