#	Name: ASD01880102
#	Creating user name:	WinNT
#	Creation time:	15. 06. 2019 19:40

#	Modifying user name:	WinNT
#	Modification time:	15. 06. 2019 19:40

#	Program:	/corina/corina34_cracker 3.40 0067  02.08.2006

@<TRIPOS>MOLECULE
ASD01880102
  64   68    0    0    0
SMALL
NO_CHARGES


@<TRIPOS>ATOM
   1 C1            -0.0169     1.3932     0.0097 C.ar    
   2 C2             0.0021    -0.0041     0.0020 C.ar    
   3 C3            -1.1804    -0.7091     0.0100 C.ar    
   4 C4            -2.3985    -0.0300     0.0253 C.ar    
   5 C5            -2.4203     1.3671     0.0325 C.ar    
   6 C6            -1.2368     2.0746     0.0308 C.ar    
   7 C7            -3.6708    -0.7909     0.0334 C.ar    
   8 C8            -3.8824    -1.8101    -0.8937 C.ar    
   9 C9            -5.0688    -2.5153    -0.8810 C.ar    
  10 C10           -6.0468    -2.2122     0.0488 C.ar    
  11 C11           -5.8424    -1.2016     0.9714 C.ar    
  12 C12           -4.6581    -0.4936     0.9721 C.ar    
  13 C13           -6.9129    -0.8774     1.9813 C.3     
  14 O14           -6.7134    -1.6653     3.1566 O.3     
  15 C15           -7.5978    -1.4934     4.1708 C.ar    
  16 C16           -8.6391    -0.5827     4.0371 C.ar    
  17 C17           -9.5403    -0.4052     5.0661 C.ar    
  18 C18           -9.4056    -1.1430     6.2443 C.ar    
  19 C19           -8.3482    -2.0612     6.3664 C.ar    
  20 C20           -7.4651    -2.2329     5.3412 C.ar    
  21 C21          -10.7400     0.5051     5.1736 C.3     
  22 C22          -11.3470     0.2540     6.5609 C.3     
  23 C23          -10.4681    -0.7950     7.1977 C.2     
  24 C24          -11.3238     1.5395     7.3902 C.3     
  25 C25          -12.1389     2.6371     6.6841 C.3     
  26 C26          -13.2809     3.0255     7.6458 C.3     
  27 C27          -12.7535     2.6207     9.0448 C.3     
  28 C28          -11.9989     1.2992     8.7564 C.3     
  29 O29          -10.6136    -1.2684     8.3049 O.2     
  30 C30           -6.3350    -3.2200     5.4813 C.3     
  31 C31           -8.1926    -2.8625     7.6332 C.3     
  32 F32           -3.6005     2.0245     0.0465 F       
  33 C33            1.2510     2.1489     0.0017 C.2     
  34 O34            2.3114     1.5562    -0.0117 O.2     
  35 O35            1.2323     3.4961     0.0091 O.3     
  36 H36            0.9447    -0.5311    -0.0105 H       
  37 H37           -1.1648    -1.7889     0.0041 H       
  38 H38           -1.2526     3.1545     0.0364 H       
  39 H39           -3.1197    -2.0472    -1.6206 H       
  40 H40           -5.2338    -3.3052    -1.5988 H       
  41 H41           -6.9738    -2.7662     0.0545 H       
  42 H42           -4.4996     0.2951     1.6927 H       
  43 H43           -6.8604     0.1803     2.2396 H       
  44 H44           -7.8920    -1.0995     1.5568 H       
  45 H45           -8.7426    -0.0125     3.1257 H       
  46 H46          -10.4295     1.5461     5.0835 H       
  47 H47          -11.4657     0.2617     4.3976 H       
  48 H48          -12.3677    -0.1161     6.4650 H       
  49 H49          -10.2958     1.8721     7.5342 H       
  50 H50          -11.5067     3.5027     6.4862 H       
  51 H51          -12.5510     2.2539     5.7506 H       
  52 H52          -13.4664     4.0988     7.6039 H       
  53 H53          -14.1878     2.4710     7.4048 H       
  54 H54          -12.0726     3.3773     9.4346 H       
  55 H55          -13.5800     2.4509     9.7348 H       
  56 H56          -12.6987     0.4659     8.6947 H       
  57 H57          -11.2488     1.1127     9.5250 H       
  58 H58           -6.6599    -4.1973     5.1243 H       
  59 H59           -5.4827    -2.8827     4.8914 H       
  60 H60           -6.0450    -3.2940     6.5294 H       
  61 H61           -8.7510    -3.7944     7.5445 H       
  62 H62           -7.1379    -3.0850     7.7951 H       
  63 H63           -8.5763    -2.2878     8.4761 H       
  64 H64            2.0877     3.9471     0.0033 H       
@<TRIPOS>BOND
   1    1    2 ar
   2    1   33 1
   3    1    6 ar
   4    2    3 ar
   5    2   36 1
   6    3    4 ar
   7    3   37 1
   8    4    5 ar
   9    4    7 1
  10    5    6 ar
  11    5   32 1
  12    6   38 1
  13    7    8 ar
  14    7   12 ar
  15    8    9 ar
  16    8   39 1
  17    9   10 ar
  18    9   40 1
  19   10   11 ar
  20   10   41 1
  21   11   12 ar
  22   11   13 1
  23   12   42 1
  24   13   14 1
  25   13   43 1
  26   13   44 1
  27   14   15 1
  28   15   16 ar
  29   15   20 ar
  30   16   17 ar
  31   16   45 1
  32   17   18 ar
  33   17   21 1
  34   18   19 ar
  35   18   23 1
  36   19   20 ar
  37   19   31 1
  38   20   30 1
  39   21   22 1
  40   21   46 1
  41   21   47 1
  42   22   23 1
  43   22   24 1
  44   22   48 1
  45   23   29 2
  46   24   25 1
  47   24   28 1
  48   24   49 1
  49   25   26 1
  50   25   50 1
  51   25   51 1
  52   26   27 1
  53   26   52 1
  54   26   53 1
  55   27   28 1
  56   27   54 1
  57   27   55 1
  58   28   56 1
  59   28   57 1
  60   30   58 1
  61   30   59 1
  62   30   60 1
  63   31   61 1
  64   31   62 1
  65   31   63 1
  66   33   34 2
  67   33   35 1
  68   35   64 1

#	End of record

