#	Name: ASD02198127
#	Creating user name:	WinNT
#	Creation time:	15. 06. 2019 20:18

#	Modifying user name:	WinNT
#	Modification time:	15. 06. 2019 20:18

#	Program:	/corina/corina34_cracker 3.40 0067  02.08.2006

@<TRIPOS>MOLECULE
ASD02198127
  55   59    0    0    0
SMALL
NO_CHARGES


@<TRIPOS>ATOM
   1 C1            -0.0158     1.3820    -0.0198 C.2     
   2 C2             0.0065    -0.0016    -0.0045 C.2     
   3 C3            -1.1811    -0.7992     0.0607 C.1     
   4 S4             1.6241     2.0072    -0.1043 S.3     
   5 C5             2.2960     0.3839    -0.1168 C.2     
   6 C6             1.2823    -0.5487    -0.0581 C.2     
   7 C7             3.6772     0.0780    -0.1781 C.2     
   8 C8             4.6231     1.1129    -0.2343 C.2     
   9 O9             4.0461    -1.0897    -0.1822 O.2     
  10 N10            1.5161    -1.9148    -0.0530 N.pl3   
  11 N11           -1.1516     2.1522     0.0194 N.pl3   
  12 N12           -2.1231    -1.4319     0.1125 N.1     
  13 S13            4.2630     2.6239    -0.2340 S.o     
  14 C14           -1.0507     3.5353     0.1314 C.ar    
  15 C15           -1.9545     4.3545    -0.5397 C.ar    
  16 C16           -1.8570     5.7230    -0.4312 C.ar    
  17 C17           -0.8494     6.2903     0.3542 C.ar    
  18 C18            0.0563     5.4653     1.0273 C.ar    
  19 C19           -0.0496     4.0974     0.9191 C.ar    
  20 C20            5.9535     3.3030    -0.3207 C.3     
  21 C21            6.8170     2.0556    -0.3475 C.ar    
  22 C22            6.0194     0.9081    -0.2919 C.ar    
  23 C23            8.1924     1.9562    -0.4109 C.ar    
  24 C24            8.8094     0.7173    -0.4262 C.ar    
  25 C25            8.0403    -0.4351    -0.3776 C.ar    
  26 C26            6.6745    -0.3564    -0.3085 C.ar    
  27 C27           -0.7418     7.7573     0.4723 C.2     
  28 O28           -1.5300     8.4739    -0.1140 O.2     
  29 N29            0.2302     8.3029     1.2300 N.am    
  30 C30            0.3371     9.7593     1.3472 C.3     
  31 C31           -0.5547    10.2649     2.4603 C.2     
  32 C32            1.7668    10.1610     1.7727 C.3     
  33 C33            1.4954    11.1984     2.8860 C.3     
  34 O34            0.1927    10.8228     3.4234 O.3     
  35 O35           -1.7597    10.1788     2.4784 O.2     
  36 H36            2.4250    -2.2514    -0.0918 H       
  37 H37            0.7708    -2.5342    -0.0107 H       
  38 H38           -2.0245     1.7321    -0.0310 H       
  39 H39            3.7928     2.8232    -1.4782 H       
  40 H40           -2.7328     3.9156    -1.1464 H       
  41 H41           -2.5579     6.3580    -0.9526 H       
  42 H42            0.8358     5.9008     1.6348 H       
  43 H43            0.6499     3.4594     1.4388 H       
  44 H44            6.0891     3.8860    -1.2317 H       
  45 H45            6.1731     3.9056     0.5607 H       
  46 H46            8.7925     2.8533    -0.4492 H       
  47 H47            9.8861     0.6486    -0.4763 H       
  48 H48            8.5216    -1.4019    -0.3896 H       
  49 H49            6.0881    -1.2626    -0.2712 H       
  50 H50            0.8590     7.7313     1.6977 H       
  51 H51            0.0725    10.2356     0.4031 H       
  52 H52            2.3105     9.3022     2.1664 H       
  53 H53            2.3060    10.6156     0.9416 H       
  54 H54            2.2596    11.1341     3.6607 H       
  55 H55            1.4592    12.2045     2.4683 H       
@<TRIPOS>BOND
   1    1    2 2
   2    1    4 1
   3    1   11 1
   4    2    3 1
   5    2    6 1
   6    3   12 3
   7    4    5 1
   8    5    6 2
   9    5    7 1
  10    6   10 1
  11    7    8 1
  12    7    9 2
  13    8   13 2
  14    8   22 1
  15   10   36 1
  16   10   37 1
  17   11   14 1
  18   11   38 1
  19   13   20 1
  20   13   39 1
  21   14   15 ar
  22   14   19 ar
  23   15   16 ar
  24   15   40 1
  25   16   17 ar
  26   16   41 1
  27   17   18 ar
  28   17   27 1
  29   18   19 ar
  30   18   42 1
  31   19   43 1
  32   20   21 1
  33   20   44 1
  34   20   45 1
  35   21   22 ar
  36   21   23 ar
  37   22   26 ar
  38   23   24 ar
  39   23   46 1
  40   24   25 ar
  41   24   47 1
  42   25   26 ar
  43   25   48 1
  44   26   49 1
  45   27   28 2
  46   27   29 am
  47   29   30 1
  48   29   50 1
  49   30   31 1
  50   30   32 1
  51   30   51 1
  52   31   35 2
  53   31   34 1
  54   32   33 1
  55   32   52 1
  56   32   53 1
  57   33   34 1
  58   33   54 1
  59   33   55 1

#	End of record

