#	Name: ASD01230729
#	Creating user name:	WinNT
#	Creation time:	15. 06. 2019 19:14

#	Modifying user name:	WinNT
#	Modification time:	15. 06. 2019 19:14

#	Program:	/corina/corina34_cracker 3.40 0067  02.08.2006

@<TRIPOS>MOLECULE
ASD01230729
  45   48    0    0    0
SMALL
NO_CHARGES


@<TRIPOS>ATOM
   1 C1            -0.3372     3.4398     0.6823 C.3     
   2 C2            -0.7672     2.1027     1.2919 C.3     
   3 C3            -2.2778     2.0368     1.4665 C.3     
   4 C4            -2.9070     3.4091     1.6631 C.3     
   5 N5            -1.9611     4.3464     2.2729 N.pl3   
   6 C6            -0.7501     4.5292     1.6572 C.2     
   7 C7            -2.2926     5.0337     3.5186 C.3     
   8 C8            -2.0784     6.5380     3.3435 C.3     
   9 S9            -0.3850     6.8411     2.7742 S.o2    
  10 N10           -0.0026     5.5478     1.8289 N.am    
  11 C11            1.1576     3.4605     0.4920 C.ar    
  12 C12            1.6899     3.6267    -0.7736 C.ar    
  13 O13           -0.3525     7.9456     1.8807 O.2     
  14 O14            0.5261     6.7577     3.8615 O.2     
  15 C15            1.9938     3.3189     1.5834 C.ar    
  16 C16            3.3653     3.3378     1.4128 C.ar    
  17 C17            3.9033     3.4986     0.1452 C.ar    
  18 C18            3.0613     3.6456    -0.9506 C.ar    
  19 O19            5.2519     3.5179    -0.0248 O.3     
  20 C20            6.0349     3.2680     1.0572 C.ar    
  21 C21            6.3990     1.9650     1.3656 C.ar    
  22 F22            3.5817     3.8024    -2.1875 F       
  23 C23            7.1955     1.7138     2.4659 C.ar    
  24 C24            7.6296     2.7593     3.2599 C.ar    
  25 C25            7.2678     4.0586     2.9551 C.ar    
  26 C26            6.4766     4.3159     1.8524 C.ar    
  27 H27           -0.8355     3.5886    -0.2757 H       
  28 H28           -0.4477     1.2923     0.6368 H       
  29 H29           -0.2897     1.9837     2.2645 H       
  30 H30           -2.7144     1.5730     0.5820 H       
  31 H31           -2.5052     1.4179     2.3344 H       
  32 H32           -3.2221     3.7991     0.6953 H       
  33 H33           -3.7798     3.3122     2.3088 H       
  34 H34           -3.3351     4.8423     3.7728 H       
  35 H35           -1.6501     4.6658     4.3186 H       
  36 H36           -2.7840     6.9226     2.6071 H       
  37 H37           -2.2371     7.0413     4.2972 H       
  38 H38            1.0343     3.7415    -1.6241 H       
  39 H39            1.5750     3.1937     2.5710 H       
  40 H40            4.0175     3.2278     2.2666 H       
  41 H41            6.0596     1.1480     0.7462 H       
  42 H42            7.4791     0.6998     2.7064 H       
  43 H43            8.2519     2.5607     4.1199 H       
  44 H44            7.6079     4.8734     3.5770 H       
  45 H45            6.1946     5.3309     1.6145 H       
@<TRIPOS>BOND
   1    1    2 1
   2    1   11 1
   3    1    6 1
   4    1   27 1
   5    2    3 1
   6    2   28 1
   7    2   29 1
   8    3    4 1
   9    3   30 1
  10    3   31 1
  11    4    5 1
  12    4   32 1
  13    4   33 1
  14    5    6 1
  15    5    7 1
  16    6   10 2
  17    7    8 1
  18    7   34 1
  19    7   35 1
  20    8    9 1
  21    8   36 1
  22    8   37 1
  23    9   10 am
  24    9   13 2
  25    9   14 2
  26   11   12 ar
  27   11   15 ar
  28   12   18 ar
  29   12   38 1
  30   15   16 ar
  31   15   39 1
  32   16   17 ar
  33   16   40 1
  34   17   18 ar
  35   17   19 1
  36   18   22 1
  37   19   20 1
  38   20   21 ar
  39   20   26 ar
  40   21   23 ar
  41   21   41 1
  42   23   24 ar
  43   23   42 1
  44   24   25 ar
  45   24   43 1
  46   25   26 ar
  47   25   44 1
  48   26   45 1

#	End of record

