#	Name: ASD01817060
#	Creating user name:	WinNT
#	Creation time:	15. 06. 2019 19:36

#	Modifying user name:	WinNT
#	Modification time:	15. 06. 2019 19:36

#	Program:	/corina/corina34_cracker 3.40 0067  02.08.2006

@<TRIPOS>MOLECULE
ASD01817060
  55   59    0    0    0
SMALL
NO_CHARGES


@<TRIPOS>ATOM
   1 C1            -0.0167     1.3785     0.0096 C.ar    
   2 C2             0.0021    -0.0041     0.0020 C.ar    
   3 C3             1.2023    -0.6845    -0.0123 C.ar    
   4 C4             2.4052     0.0177    -0.0194 C.ar    
   5 C5             2.3734     1.4081    -0.0131 C.ar    
   6 C6             1.1742     2.0838     0.0020 C.ar    
   7 N7             3.7256    -0.4347    -0.0324 N.am    
   8 C8             4.6104     0.5783    -0.0368 C.2     
   9 C9             3.8112     1.8594    -0.0264 C.3     
  10 O10            5.8194     0.4814    -0.0469 O.2     
  11 C11            4.1041    -1.8500    -0.0394 C.3     
  12 C12            4.2218    -2.3314    -1.4626 C.ar    
  13 C13            5.3667    -2.0562    -2.1921 C.ar    
  14 C14            5.4786    -2.4966    -3.4980 C.ar    
  15 C15            4.4379    -3.2172    -4.0781 C.ar    
  16 C16            3.2890    -3.4906    -3.3389 C.ar    
  17 C17            3.1887    -3.0514    -2.0344 C.ar    
  18 F18            6.3749    -1.3564    -1.6271 F       
  19 C19            4.5521    -3.6924    -5.4802 C.2     
  20 C20            5.6485    -3.4902    -6.3408 C.2     
  21 N21            5.3747    -4.0556    -7.4867 N.2     
  22 N22            4.1034    -4.6363    -7.4037 N.pl3   
  23 C23            3.6164    -4.4093    -6.1672 C.2     
  24 C24            3.4224    -5.3692    -8.4739 C.3     
  25 C25            4.1049     2.6783    -1.2805 C.3     
  26 C26            5.5663     3.1356    -1.2545 C.3     
  27 N27            5.8094     3.9295    -0.0436 N.3     
  28 C28            5.5909     3.1321     1.1700 C.3     
  29 C29            4.1306     2.6742     1.2242 C.3     
  30 C30            7.1590     4.5095    -0.0565 C.3     
  31 H31           -0.9586     1.9069     0.0170 H       
  32 H32           -0.9274    -0.5541     0.0077 H       
  33 H33            1.2091    -1.7645    -0.0177 H       
  34 H34            1.1626     3.1637     0.0083 H       
  35 H35            5.0621    -1.9724     0.4659 H       
  36 H36            3.3427    -2.4323     0.4793 H       
  37 H37            6.3711    -2.2818    -4.0670 H       
  38 H38            2.4794    -4.0492    -3.7850 H       
  39 H39            2.2981    -3.2634    -1.4614 H       
  40 H40            6.5569    -2.9597    -6.0965 H       
  41 H41            2.6564    -4.7307    -5.7909 H       
  42 H42            3.6751    -6.4274    -8.4074 H       
  43 H43            2.3445    -5.2458    -8.3698 H       
  44 H44            3.7410    -4.9796    -9.4408 H       
  45 H45            3.9311     2.0650    -2.1646 H       
  46 H46            3.4512     3.5501    -1.3073 H       
  47 H47            6.2199     2.2633    -1.2544 H       
  48 H48            5.7723     3.7439    -2.1352 H       
  49 H49            6.2447     2.2601     1.1544 H       
  50 H50            5.8145     3.7381     2.0480 H       
  51 H51            3.4773     3.5457     1.2675 H       
  52 H52            3.9750     2.0578     2.1097 H       
  53 H53            7.2679     5.1569    -0.9266 H       
  54 H54            7.3127     5.0924     0.8516 H       
  55 H55            7.8978     3.7095    -0.1042 H       
@<TRIPOS>BOND
   1    1    2 ar
   2    1    6 ar
   3    1   31 1
   4    2    3 ar
   5    2   32 1
   6    3    4 ar
   7    3   33 1
   8    4    5 ar
   9    4    7 1
  10    5    6 ar
  11    5    9 1
  12    6   34 1
  13    7    8 am
  14    7   11 1
  15    8    9 1
  16    8   10 2
  17    9   25 1
  18    9   29 1
  19   11   12 1
  20   11   35 1
  21   11   36 1
  22   12   13 ar
  23   12   17 ar
  24   13   14 ar
  25   13   18 1
  26   14   15 ar
  27   14   37 1
  28   15   16 ar
  29   15   19 1
  30   16   17 ar
  31   16   38 1
  32   17   39 1
  33   19   20 1
  34   19   23 2
  35   20   21 2
  36   20   40 1
  37   21   22 1
  38   22   23 1
  39   22   24 1
  40   23   41 1
  41   24   42 1
  42   24   43 1
  43   24   44 1
  44   25   26 1
  45   25   45 1
  46   25   46 1
  47   26   27 1
  48   26   47 1
  49   26   48 1
  50   27   28 1
  51   27   30 1
  52   28   29 1
  53   28   49 1
  54   28   50 1
  55   29   51 1
  56   29   52 1
  57   30   53 1
  58   30   54 1
  59   30   55 1

#	End of record

