#	Name: ASD01230378
#	Creating user name:	WinNT
#	Creation time:	15. 06. 2019 19:14

#	Modifying user name:	WinNT
#	Modification time:	15. 06. 2019 19:14

#	Program:	/corina/corina34_cracker 3.40 0067  02.08.2006

@<TRIPOS>MOLECULE
ASD01230378
  49   52    0    0    0
SMALL
NO_CHARGES


@<TRIPOS>ATOM
   1 S1            -1.6221     2.7532     1.5546 S.o2    
   2 N2            -1.3530     1.2763     0.8760 N.am    
   3 C3            -0.2283     0.8830     0.4269 C.2     
   4 N4             0.9278     1.6192     0.4816 N.pl3   
   5 C5             1.1084     2.6856     1.4602 C.3     
   6 C6            -0.0658     3.6623     1.3700 C.3     
   7 C7            -0.0964    -0.4903    -0.2114 C.3     
   8 C8             1.2810    -1.0391     0.1690 C.3     
   9 C9             2.3963    -0.1582    -0.3778 C.3     
  10 C10            1.9791     1.3030    -0.4910 C.3     
  11 C11           -1.1746    -1.4043     0.3113 C.ar    
  12 C12           -2.0848    -1.9687    -0.5633 C.ar    
  13 C13           -3.0741    -2.8068    -0.0868 C.ar    
  14 C14           -3.1539    -3.0821     1.2709 C.ar    
  15 C15           -2.2393    -2.5144     2.1464 C.ar    
  16 C16           -1.2485    -1.6815     1.6639 C.ar    
  17 O17           -4.1264    -3.9059     1.7422 O.3     
  18 C18           -4.9323    -4.5237     0.8391 C.ar    
  19 C19           -4.5693    -5.7545     0.3130 C.ar    
  20 C20           -5.3929    -6.3823    -0.6078 C.ar    
  21 C21           -6.5796    -5.7778    -1.0017 C.ar    
  22 C22           -6.9391    -4.5510    -0.4758 C.ar    
  23 C23           -6.1216    -3.9261     0.4470 C.ar    
  24 O24           -5.0394    -7.5884    -1.1254 O.3     
  25 C25           -3.8053    -8.1509    -0.6755 C.3     
  26 Cl26          -7.6119    -6.5630    -2.1556 Cl      
  27 O27           -2.6329     3.3303     0.7394 O.2     
  28 O28           -1.8686     2.4656     2.9242 O.2     
  29 H29            1.1487     2.2570     2.4616 H       
  30 H30            2.0385     3.2151     1.2534 H       
  31 H31           -0.0494     4.1618     0.4013 H       
  32 H32            0.0175     4.4050     2.1634 H       
  33 H33           -0.1750    -0.4046    -1.2952 H       
  34 H34            1.3605    -1.0827     1.2552 H       
  35 H35            1.3891    -2.0451    -0.2366 H       
  36 H36            3.2590    -0.2288     0.2847 H       
  37 H37            2.6812    -0.5216    -1.3652 H       
  38 H38            1.6059     1.4929    -1.4974 H       
  39 H39            2.8443     1.9389    -0.3038 H       
  40 H40           -2.0224    -1.7537    -1.6199 H       
  41 H41           -3.7850    -3.2470    -0.7703 H       
  42 H42           -2.2994    -2.7269     3.2036 H       
  43 H43           -0.5336    -1.2429     2.3444 H       
  44 H44           -3.6459    -6.2229     0.6202 H       
  45 H45           -7.8620    -4.0820    -0.7833 H       
  46 H46           -6.4066    -2.9697     0.8599 H       
  47 H47           -2.9865    -7.4750    -0.9223 H       
  48 H48           -3.8441    -8.2956     0.4042 H       
  49 H49           -3.6438    -9.1113    -1.1652 H       
@<TRIPOS>BOND
   1    1    2 am
   2    1    6 1
   3    1   27 2
   4    1   28 2
   5    2    3 2
   6    3    4 1
   7    3    7 1
   8    4    5 1
   9    4   10 1
  10    5    6 1
  11    5   29 1
  12    5   30 1
  13    6   31 1
  14    6   32 1
  15    7    8 1
  16    7   11 1
  17    7   33 1
  18    8    9 1
  19    8   34 1
  20    8   35 1
  21    9   10 1
  22    9   36 1
  23    9   37 1
  24   10   38 1
  25   10   39 1
  26   11   12 ar
  27   11   16 ar
  28   12   13 ar
  29   12   40 1
  30   13   14 ar
  31   13   41 1
  32   14   15 ar
  33   14   17 1
  34   15   16 ar
  35   15   42 1
  36   16   43 1
  37   17   18 1
  38   18   19 ar
  39   18   23 ar
  40   19   20 ar
  41   19   44 1
  42   20   21 ar
  43   20   24 1
  44   21   22 ar
  45   21   26 1
  46   22   23 ar
  47   22   45 1
  48   23   46 1
  49   24   25 1
  50   25   47 1
  51   25   48 1
  52   25   49 1

#	End of record

