#	Name: ASD05940045
#	Creating user name:	WinNT
#	Creation time:	15. 06. 2019 21:04

#	Modifying user name:	WinNT
#	Modification time:	15. 06. 2019 21:04

#	Program:	/corina/corina34_cracker 3.40 0067  02.08.2006

@<TRIPOS>MOLECULE
ASD05940045
  70   74    0    0    0
SMALL
NO_CHARGES


@<TRIPOS>ATOM
   1 N1            -0.0159     1.3181     0.0093 N.ar    
   2 C2             0.0021    -0.0041     0.0020 C.ar    
   3 N3             1.1319    -0.6930    -0.0101 N.ar    
   4 C4             2.3066    -0.0681    -0.0158 C.ar    
   5 C5             2.3274     1.3257    -0.0126 C.ar    
   6 C6             1.1197     2.0168     0.0022 C.ar    
   7 N7             3.4912    -0.7843    -0.0194 N.3     
   8 C8             4.5325    -0.1239    -0.8126 C.3     
   9 C9             4.6626     1.3202    -0.4024 C.2     
  10 N10            3.5574     2.0048    -0.0283 N.am    
  11 N11            1.0976     3.4049     0.0085 N.pl3   
  12 O12           -1.1750    -0.6756     0.0076 O.3     
  13 C13            3.2722    -2.1617    -0.4807 C.3     
  14 O14            5.7473     1.8634    -0.4080 O.2     
  15 C15           -2.3694     0.1089     0.0211 C.3     
  16 C16           -3.5876    -0.8168     0.0256 C.3     
  17 C17           -4.8663     0.0231     0.0401 C.3     
  18 C18            4.6022    -2.8335    -0.7061 C.ar    
  19 C19            5.2107    -3.5216     0.3281 C.ar    
  20 C20            5.2073    -2.7645    -1.9480 C.ar    
  21 C21            6.4252    -3.3783    -2.1601 C.ar    
  22 C22            7.0453    -4.0680    -1.1203 C.ar    
  23 C23            6.4290    -4.1383     0.1274 C.ar    
  24 C24           -6.0845    -0.9026     0.0446 C.3     
  25 C25            8.3547    -4.7298    -1.3424 C.ar    
  26 C26            8.9749    -5.4195    -0.3026 C.ar    
  27 C27           10.1925    -6.0336    -0.5148 C.ar    
  28 C28           10.7972    -5.9654    -1.7570 C.ar    
  29 C29           10.1860    -5.2821    -2.7928 C.ar    
  30 C30            8.9658    -4.6688    -2.5931 C.ar    
  31 C31           11.0022    -8.7403    -1.5175 C.3     
  32 C32           11.4676   -10.2079    -1.4866 C.3     
  33 C33           12.7027   -10.2594    -2.4150 C.3     
  34 C34           13.1789    -8.7852    -2.4402 C.3     
  35 N35           11.9075    -8.0173    -2.4368 N.3     
  36 C36           12.1270    -6.6376    -1.9826 C.3     
  37 H37            5.4840    -0.6315    -0.6537 H       
  38 H38            4.2697    -0.1768    -1.8692 H       
  39 H39            3.6126     2.9403     0.2223 H       
  40 H40            1.9298     3.9032     0.0026 H       
  41 H41            0.2500     3.8765     0.0188 H       
  42 H42            2.7102    -2.7125     0.2736 H       
  43 H43            2.7096    -2.1471    -1.4142 H       
  44 H44           -2.3840     0.7330     0.9146 H       
  45 H45           -2.3979     0.7426    -0.8653 H       
  46 H46           -3.5729    -1.4409    -0.8679 H       
  47 H47           -3.5591    -1.4505     0.9120 H       
  48 H48           -4.8810     0.6473     0.9336 H       
  49 H49           -4.8948     0.6569    -0.8463 H       
  50 H50            4.7317    -3.5760     1.2946 H       
  51 H51            4.7257    -2.2297    -2.7533 H       
  52 H52            6.8964    -3.3244    -3.1304 H       
  53 H53            6.9055    -4.6713     0.9369 H       
  54 H54           -6.0698    -1.5267    -0.8489 H       
  55 H55           -6.0560    -1.5363     0.9309 H       
  56 H56           -6.9955    -0.3042     0.0549 H       
  57 H57            8.5038    -5.4731     0.6678 H       
  58 H58           10.6743    -6.5682     0.2905 H       
  59 H59           10.6627    -5.2317    -3.7606 H       
  60 H60            8.4895    -4.1355    -3.4025 H       
  61 H61            9.9774    -8.6834    -1.8845 H       
  62 H62           11.0661    -8.3094    -0.5183 H       
  63 H63           11.7445   -10.4957    -0.4724 H       
  64 H64           10.6822   -10.8619    -1.8653 H       
  65 H65           13.4734   -10.9065    -1.9962 H       
  66 H66           12.4205   -10.5907    -3.4143 H       
  67 H67           13.7690    -8.5563    -1.5528 H       
  68 H68           13.7494    -8.5807    -3.3462 H       
  69 H69           12.6869    -6.0902    -2.7408 H       
  70 H70           12.6919    -6.6475    -1.0504 H       
@<TRIPOS>BOND
   1    1    2 ar
   2    1    6 ar
   3    2    3 ar
   4    2   12 1
   5    3    4 ar
   6    4    5 ar
   7    4    7 1
   8    5    6 ar
   9    5   10 1
  10    6   11 1
  11    7    8 1
  12    7   13 1
  13    8    9 1
  14    8   37 1
  15    8   38 1
  16    9   10 am
  17    9   14 2
  18   10   39 1
  19   11   40 1
  20   11   41 1
  21   12   15 1
  22   13   18 1
  23   13   42 1
  24   13   43 1
  25   15   16 1
  26   15   44 1
  27   15   45 1
  28   16   17 1
  29   16   46 1
  30   16   47 1
  31   17   24 1
  32   17   48 1
  33   17   49 1
  34   18   19 ar
  35   18   20 ar
  36   19   23 ar
  37   19   50 1
  38   20   21 ar
  39   20   51 1
  40   21   22 ar
  41   21   52 1
  42   22   23 ar
  43   22   25 1
  44   23   53 1
  45   24   54 1
  46   24   55 1
  47   24   56 1
  48   25   26 ar
  49   25   30 ar
  50   26   27 ar
  51   26   57 1
  52   27   28 ar
  53   27   58 1
  54   28   29 ar
  55   28   36 1
  56   29   30 ar
  57   29   59 1
  58   30   60 1
  59   31   32 1
  60   31   35 1
  61   31   61 1
  62   31   62 1
  63   32   33 1
  64   32   63 1
  65   32   64 1
  66   33   34 1
  67   33   65 1
  68   33   66 1
  69   34   35 1
  70   34   67 1
  71   34   68 1
  72   35   36 1
  73   36   69 1
  74   36   70 1

#	End of record

