#	Name: ASD01811436
#	Creating user name:	WinNT
#	Creation time:	15. 06. 2019 19:26

#	Modifying user name:	WinNT
#	Modification time:	15. 06. 2019 19:26

#	Program:	/corina/corina34_cracker 3.40 0067  02.08.2006

@<TRIPOS>MOLECULE
ASD01811436
  59   62    0    0    0
SMALL
NO_CHARGES


@<TRIPOS>ATOM
   1 N1            -0.1355     1.5175    -0.6189 N.am    
   2 C2            -0.1355     0.5306    -1.5368 C.2     
   3 O3             0.8965     0.2277    -2.1037 O.2     
   4 N4            -1.2795    -0.1205    -1.8262 N.am    
   5 O5            -1.7533    -3.5473    -2.7516 O.3     
   6 C6            -0.9065    -2.5447    -2.1777 C.3     
   7 C7            -1.2795    -1.1932    -2.8240 C.3     
   8 C8            -2.7173    -1.4630    -3.3455 C.3     
   9 C9            -2.6111    -2.9572    -3.7413 C.3     
  10 C10            3.4381     2.0192     0.1242 C.ar    
  11 C11            2.2619     1.3920    -0.2724 C.ar    
  12 C12            1.0673     2.1086    -0.2299 C.ar    
  13 C13            1.1039     3.4302     0.2103 C.ar    
  14 C14            2.3136     3.9839     0.5876 C.ar    
  15 N15            3.4256     3.2815     0.5369 N.ar    
  16 C16           -0.1607     4.2473     0.2739 C.3     
  17 C17            4.7164     1.2704     0.0913 C.2     
  18 O18            4.7115     0.0570     0.1549 O.2     
  19 N19            5.8844     1.9353    -0.0092 N.am    
  20 C20            5.9078     3.4032    -0.0655 C.3     
  21 C21            6.6993     3.8366    -1.3034 C.3     
  22 C22            8.0845     3.1867    -1.2715 C.3     
  23 C23            7.9362     1.6638    -1.3018 C.3     
  24 C24            7.1590     1.2061    -0.0582 C.3     
  25 C25            8.8784     3.6378    -2.4704 C.ar    
  26 C26           10.0710     4.3160    -2.2911 C.ar    
  27 C27           10.8028     4.7317    -3.3841 C.ar    
  28 C28           10.3376     4.4662    -4.6736 C.ar    
  29 C29            9.1335     3.7809    -4.8472 C.ar    
  30 C30            8.4142     3.3667    -3.7454 C.ar    
  31 C31           11.0917     4.8952    -5.8128 C.1     
  32 N32           11.6900     5.2355    -6.7166 N.1     
  33 H33           -0.9720     1.8196    -0.2316 H       
  34 H34           -2.1029     0.1212    -1.3739 H       
  35 H35           -1.0678    -2.4966    -1.1008 H       
  36 H36            0.1375    -2.7787    -2.3863 H       
  37 H37           -0.6036    -0.9564    -3.6456 H       
  38 H38           -3.4552    -1.3170    -2.5566 H       
  39 H39           -2.9437    -0.8421    -4.2124 H       
  40 H40           -2.1686    -3.0556    -4.7325 H       
  41 H41           -3.5949    -3.4259    -3.7171 H       
  42 H42            2.2740     0.3655    -0.6080 H       
  43 H43            2.3464     5.0079     0.9293 H       
  44 H44           -0.6219     4.1273     1.2542 H       
  45 H45            0.0772     5.2984     0.1106 H       
  46 H46           -0.8522     3.9072    -0.4970 H       
  47 H47            4.8881     3.7826    -0.1325 H       
  48 H48            6.3877     3.7957     0.8310 H       
  49 H49            6.1701     3.5211    -2.2025 H       
  50 H50            6.8064     4.9214    -1.3054 H       
  51 H51            8.6038     3.4830    -0.3601 H       
  52 H52            7.3953     1.3688    -2.2009 H       
  53 H53            8.9236     1.2021    -1.3027 H       
  54 H54            7.7389     1.4230     0.8389 H       
  55 H55            6.9652     0.1352    -0.1204 H       
  56 H56           10.4297     4.5206    -1.2932 H       
  57 H57           11.7332     5.2616    -3.2428 H       
  58 H58            8.7679     3.5724    -5.8419 H       
  59 H59            7.4848     2.8330    -3.8782 H       
@<TRIPOS>BOND
   1    1    2 am
   2    1   12 1
   3    1   33 1
   4    2    3 2
   5    2    4 am
   6    4    7 1
   7    4   34 1
   8    5    6 1
   9    5    9 1
  10    6    7 1
  11    6   35 1
  12    6   36 1
  13    7    8 1
  14    7   37 1
  15    8    9 1
  16    8   38 1
  17    8   39 1
  18    9   40 1
  19    9   41 1
  20   10   11 ar
  21   10   15 ar
  22   10   17 1
  23   11   12 ar
  24   11   42 1
  25   12   13 ar
  26   13   14 ar
  27   13   16 1
  28   14   15 ar
  29   14   43 1
  30   16   44 1
  31   16   45 1
  32   16   46 1
  33   17   18 2
  34   17   19 am
  35   19   20 1
  36   19   24 1
  37   20   21 1
  38   20   47 1
  39   20   48 1
  40   21   22 1
  41   21   49 1
  42   21   50 1
  43   22   23 1
  44   22   25 1
  45   22   51 1
  46   23   24 1
  47   23   52 1
  48   23   53 1
  49   24   54 1
  50   24   55 1
  51   25   26 ar
  52   25   30 ar
  53   26   27 ar
  54   26   56 1
  55   27   28 ar
  56   27   57 1
  57   28   29 ar
  58   28   31 1
  59   29   30 ar
  60   29   58 1
  61   30   59 1
  62   31   32 3

#	End of record

