#	Name: ASD01917702
#	Creating user name:	WinNT
#	Creation time:	15. 06. 2019 20:09

#	Modifying user name:	WinNT
#	Modification time:	15. 06. 2019 20:09

#	Program:	/corina/corina34_cracker 3.40 0067  02.08.2006

@<TRIPOS>MOLECULE
ASD01917702
  43   45    0    0    0
SMALL
NO_CHARGES


@<TRIPOS>ATOM
   1 C1            -0.0184     1.5028     0.0103 C.3     
   2 C2             0.0021    -0.0041     0.0020 C.ar    
   3 N3            -0.9366    -0.6618    -0.6517 N.ar    
   4 C4            -0.9652    -1.9775    -0.6908 C.ar    
   5 C5             0.0112    -2.7288    -0.0315 C.ar    
   6 C6             1.0208    -2.0576     0.6711 C.ar    
   7 C7             1.0078    -0.6741     0.6752 C.ar    
   8 C8            -0.0229    -4.1600    -0.0680 C.1     
   9 C9            -0.0508    -5.3333    -0.0979 C.1     
  10 C10           -0.0850    -6.7644    -0.1344 C.ar    
  11 C11           -1.0958    -7.4248    -0.8377 C.ar    
  12 C12           -1.1222    -8.8034    -0.8684 C.ar    
  13 C13           -0.1510    -9.5324    -0.2050 C.ar    
  14 C14            0.8528    -8.8853     0.4940 C.ar    
  15 C15            0.8957    -7.5072     0.5283 C.ar    
  16 C16            1.3922     2.0171    -0.0004 C.2     
  17 N17            1.7822     3.1692     0.5353 N.am    
  18 C18            0.9150     4.0443     1.3153 C.3     
  19 C19           -0.3684     4.3499     0.5351 C.3     
  20 C20           -1.4325     3.3294     0.9398 C.3     
  21 C21           -0.7598     1.9907     1.2576 C.3     
  22 O22            2.2369     1.3315    -0.5364 O.2     
  23 C23            3.1715     3.5860     0.3295 C.3     
  24 H24           -0.5380     1.8600    -0.8788 H       
  25 H25           -1.7500    -2.4801    -1.2366 H       
  26 H26            1.7892    -2.6060     1.1958 H       
  27 H27            1.7725    -0.1229     1.2022 H       
  28 H28           -1.8546    -6.8572    -1.3557 H       
  29 H29           -1.9031    -9.3153    -1.4113 H       
  30 H30           -0.1768   -10.6118    -0.2325 H       
  31 H31            1.6073    -9.4607     1.0097 H       
  32 H32            1.6799    -7.0034     1.0739 H       
  33 H33            0.6586     3.5546     2.2548 H       
  34 H34            1.4391     4.9761     1.5276 H       
  35 H35           -0.7137     5.3554     0.7755 H       
  36 H36           -0.1746     4.2737    -0.5348 H       
  37 H37           -1.9631     3.6879     1.8219 H       
  38 H38           -2.1385     3.1959     0.1201 H       
  39 H39           -1.5168     1.2598     1.5419 H       
  40 H40           -0.0513     2.1229     2.0753 H       
  41 H41            3.6913     2.8362    -0.2668 H       
  42 H42            3.1902     4.5426    -0.1927 H       
  43 H43            3.6666     3.6895     1.2951 H       
@<TRIPOS>BOND
   1    1    2 1
   2    1   16 1
   3    1   24 1
   4    1   21 1
   5    2    3 ar
   6    2    7 ar
   7    3    4 ar
   8    4    5 ar
   9    4   25 1
  10    5    6 ar
  11    5    8 1
  12    6    7 ar
  13    6   26 1
  14    7   27 1
  15    8    9 3
  16    9   10 1
  17   10   11 ar
  18   10   15 ar
  19   11   12 ar
  20   11   28 1
  21   12   13 ar
  22   12   29 1
  23   13   14 ar
  24   13   30 1
  25   14   15 ar
  26   14   31 1
  27   15   32 1
  28   16   17 am
  29   16   22 2
  30   17   18 1
  31   17   23 1
  32   18   19 1
  33   18   33 1
  34   18   34 1
  35   19   20 1
  36   19   35 1
  37   19   36 1
  38   20   21 1
  39   20   37 1
  40   20   38 1
  41   21   39 1
  42   21   40 1
  43   23   41 1
  44   23   42 1
  45   23   43 1

#	End of record

