#	Name: ASD00990093
#	Creating user name:	WinNT
#	Creation time:	15. 06. 2019 18:54

#	Modifying user name:	WinNT
#	Modification time:	15. 06. 2019 18:54

#	Program:	/corina/corina34_cracker 3.40 0067  02.08.2006

@<TRIPOS>MOLECULE
ASD00990093
  47   49    0    0    0
SMALL
NO_CHARGES


@<TRIPOS>ATOM
   1 C1            -0.0167     1.3769     0.0096 C.ar    
   2 C2             0.0021    -0.0041     0.0020 C.ar    
   3 C3             1.2125    -0.6793    -0.0132 C.ar    
   4 C4             2.4067     0.0410    -0.0208 C.ar    
   5 C5             2.3813     1.4268    -0.0138 C.ar    
   6 C6             1.1697     2.0919     0.0021 C.ar    
   7 N7             3.4381    -0.8976    -0.0357 N.am    
   8 C8             4.8739    -0.6067    -0.0475 C.3     
   9 C9             5.3795    -0.5150     1.3692 C.2     
  10 N10            6.6805    -0.2534     1.6048 N.am    
  11 C11            7.1720    -0.1642     2.9820 C.3     
  12 O12            4.6157    -0.6767     2.2973 O.2     
  13 C13            7.6031    -0.0581     0.4837 C.3     
  14 C14            7.6225    -1.5262     3.4438 C.2     
  15 N15            8.9025    -1.9831     3.3902 N.pl3   
  16 C16            8.9024    -3.2664     3.9043 C.ar    
  17 C17            7.5716    -3.5405     4.2600 C.ar    
  18 N18            6.8446    -2.4342     3.9569 N.2     
  19 C19            9.8870    -4.2240     4.1064 C.ar    
  20 C20            9.5563    -5.4439     4.6565 C.ar    
  21 C21            8.2384    -5.7229     5.0113 C.ar    
  22 C22            7.2485    -4.7813     4.8166 C.ar    
  23 Cl23           1.1347     3.8276     0.0104 Cl      
  24 Br24          10.8994    -6.7465     4.9307 Br      
  25 O25            1.5364    -1.9958    -0.0234 O.3     
  26 C26            2.8727    -2.1210    -0.0369 C.2     
  27 O27            3.4792    -3.1749    -0.0490 O.2     
  28 O28            7.9255    -6.9305     5.5527 O.3     
  29 C29            6.5558    -7.1530     5.8943 C.3     
  30 H30           -0.9606     1.9017     0.0169 H       
  31 H31           -0.9255    -0.5573     0.0083 H       
  32 H32            3.3056     1.9853    -0.0193 H       
  33 H33            5.4018    -1.4040    -0.5708 H       
  34 H34            5.0486     0.3405    -0.5576 H       
  35 H35            8.0115     0.5297     3.0240 H       
  36 H36            6.3723     0.1932     3.6308 H       
  37 H37            7.6280     0.9975     0.2133 H       
  38 H38            8.6023    -0.3823     0.7747 H       
  39 H39            7.2655    -0.6443    -0.3710 H       
  40 H40            9.6725    -1.4984     3.0539 H       
  41 H41           10.9103    -4.0137     3.8326 H       
  42 H42            6.2282    -5.0022     5.0934 H       
  43 H43            6.2395    -6.4120     6.6285 H       
  44 H44            5.9392    -7.0644     4.9999 H       
  45 H45            6.4441    -8.1522     6.3152 H       
  46 Cl46          15.9103     8.8276    11.6285 Cl      
  47 H47           15.9103    10.1976    11.6285 H       
@<TRIPOS>BOND
   1    1    2 ar
   2    1    6 ar
   3    1   30 1
   4    2    3 ar
   5    2   31 1
   6    3    4 ar
   7    3   25 1
   8    4    5 ar
   9    4    7 1
  10    5    6 ar
  11    5   32 1
  12    6   23 1
  13    7    8 1
  14    7   26 am
  15    8    9 1
  16    8   33 1
  17    8   34 1
  18    9   10 am
  19    9   12 2
  20   10   11 1
  21   10   13 1
  22   11   14 1
  23   11   35 1
  24   11   36 1
  25   13   37 1
  26   13   38 1
  27   13   39 1
  28   14   15 1
  29   14   18 2
  30   15   16 1
  31   15   40 1
  32   16   17 ar
  33   16   19 ar
  34   17   18 1
  35   17   22 ar
  36   19   20 ar
  37   19   41 1
  38   20   21 ar
  39   20   24 1
  40   21   22 ar
  41   21   28 1
  42   22   42 1
  43   25   26 1
  44   26   27 2
  45   28   29 1
  46   29   43 1
  47   29   44 1
  48   29   45 1
  49   46   47 1

#	End of record

