#	Name: ASD00431039
#	Creating user name:	WinNT
#	Creation time:	15. 06. 2019 18:35

#	Modifying user name:	WinNT
#	Modification time:	15. 06. 2019 18:35

#	Program:	/corina/corina34_cracker 3.40 0067  02.08.2006

@<TRIPOS>MOLECULE
ASD00431039
  75   78    0    0    0
SMALL
NO_CHARGES


@<TRIPOS>ATOM
   1 C1            -0.4696     1.8146     0.4533 C.2     
   2 C2            -0.7304     0.3708     0.0432 C.3     
   3 C3            -2.1404     0.1355     0.6225 C.3     
   4 C4            -2.6920     1.5414     0.7672 C.2     
   5 N5            -1.7119     2.4304     0.5144 N.am    
   6 C6            -2.9941    -0.6828    -0.3483 C.3     
   7 O7            -3.8345     1.8207     1.0635 O.2     
   8 C8            -4.3056    -1.0314     0.3071 C.2     
   9 N9            -5.2237    -1.7540    -0.3648 N.am    
  10 O10           -4.5349    -0.6617     1.4392 O.2     
  11 C11           -1.9300     3.8671     0.3279 C.3     
  12 C12           -2.3106     4.1355    -1.1053 C.ar    
  13 C13           -3.6403     4.2912    -1.4497 C.ar    
  14 C14           -1.3288     4.2317    -2.0752 C.ar    
  15 C15           -1.6784     4.4781    -3.3909 C.ar    
  16 C16           -3.0093     4.6282    -3.7358 C.ar    
  17 C17           -3.9901     4.5374    -2.7638 C.ar    
  18 Cl18           0.3416     4.0438    -1.6412 Cl      
  19 Cl19          -3.4489     4.9380    -5.3864 Cl      
  20 C20            0.7092     2.3069     0.7469 C.2     
  21 C21            1.9433     1.4495     0.7520 C.3     
  22 N22            1.6293     0.0513     0.4690 N.am    
  23 C23            0.3097    -0.4964     0.7605 C.3     
  24 C24            2.5699    -0.7449    -0.0768 C.2     
  25 O25            2.3166    -1.9091    -0.3152 O.2     
  26 O26            3.7901    -0.2502    -0.3579 O.3     
  27 C27            4.7531    -1.1649    -0.9446 C.3     
  28 C28           -6.5112    -2.1066     0.2542 C.3     
  29 C29           -4.9706    -2.2085    -1.7413 C.3     
  30 C30           -6.1726    -1.8170    -2.6084 C.3     
  31 O31           -7.3719    -2.2932    -1.9930 O.3     
  32 C32           -7.6351    -1.7203    -0.7141 C.3     
  33 C33            4.2089    -1.6958    -2.2724 C.3     
  34 C34           -0.6900     0.1837    -1.4516 C.2     
  35 O35           -0.5864     1.1437    -2.1781 O.2     
  36 O36           -0.7689    -1.0494    -1.9761 O.3     
  37 C37           -0.8258    -2.6252    -3.8318 C.3     
  38 C38           -0.7236    -1.1542    -3.4236 C.3     
  39 C39            6.0712    -0.4283    -1.1917 C.3     
  40 C40            4.9940    -2.3344     0.0120 C.3     
  41 H41           -2.0807    -0.3565     1.5933 H       
  42 H42           -3.1820    -0.0980    -1.2487 H       
  43 H43           -2.4658    -1.5986    -0.6135 H       
  44 H44           -2.7324     4.2011     0.9856 H       
  45 H45           -1.0145     4.4077     0.5681 H       
  46 H46           -4.4062     4.2200    -0.6915 H       
  47 H47           -0.9122     4.5537    -4.1484 H       
  48 H48           -5.0295     4.6545    -3.0330 H       
  49 H49            0.7957     3.3554     0.9910 H       
  50 H50            2.6359     1.8186    -0.0044 H       
  51 H51            2.4187     1.5162     1.7305 H       
  52 H52            0.1225    -0.4612     1.8337 H       
  53 H53            0.2489    -1.5254     0.4062 H       
  54 H54           -6.5447    -3.1790     0.4465 H       
  55 H55           -6.6299    -1.5614     1.1906 H       
  56 H56           -4.0694    -1.7307    -2.1258 H       
  57 H57           -4.8463    -3.2913    -1.7534 H       
  58 H58           -6.2169    -0.7318    -2.7007 H       
  59 H59           -6.0688    -2.2634    -3.5974 H       
  60 H60           -8.5838    -2.0991    -0.3337 H       
  61 H61           -7.6855    -0.6353    -0.8046 H       
  62 H62            4.0373    -0.8626    -2.9539 H       
  63 H63            4.9318    -2.3825    -2.7128 H       
  64 H64            3.2699    -2.2206    -2.0963 H       
  65 H65           -0.7918    -2.7039    -4.9184 H       
  66 H66            0.0073    -3.1806    -3.4010 H       
  67 H67           -1.7658    -3.0391    -3.4668 H       
  68 H68           -1.5567    -0.5989    -3.8543 H       
  69 H69            0.2164    -0.7403    -3.7886 H       
  70 H70            6.4589    -0.0501    -0.2458 H       
  71 H71            6.7941    -1.1150    -1.6322 H       
  72 H72            5.8996     0.4049    -1.8732 H       
  73 H73            4.0550    -2.8592     0.1880 H       
  74 H74            5.7170    -3.0211    -0.4285 H       
  75 H75            5.3818    -1.9562     0.9579 H       
@<TRIPOS>BOND
   1    1    2 1
   2    1   20 2
   3    1    5 1
   4    2   34 1
   5    2    3 1
   6    2   23 1
   7    3    4 1
   8    3    6 1
   9    3   41 1
  10    4    5 am
  11    4    7 2
  12    5   11 1
  13    6    8 1
  14    6   42 1
  15    6   43 1
  16    8    9 am
  17    8   10 2
  18    9   28 1
  19    9   29 1
  20   11   12 1
  21   11   44 1
  22   11   45 1
  23   12   13 ar
  24   12   14 ar
  25   13   17 ar
  26   13   46 1
  27   14   15 ar
  28   14   18 1
  29   15   16 ar
  30   15   47 1
  31   16   17 ar
  32   16   19 1
  33   17   48 1
  34   20   21 1
  35   20   49 1
  36   21   22 1
  37   21   50 1
  38   21   51 1
  39   22   23 1
  40   22   24 am
  41   23   52 1
  42   23   53 1
  43   24   25 2
  44   24   26 1
  45   26   27 1
  46   27   33 1
  47   27   39 1
  48   27   40 1
  49   28   32 1
  50   28   54 1
  51   28   55 1
  52   29   30 1
  53   29   56 1
  54   29   57 1
  55   30   31 1
  56   30   58 1
  57   30   59 1
  58   31   32 1
  59   32   60 1
  60   32   61 1
  61   33   62 1
  62   33   63 1
  63   33   64 1
  64   34   35 2
  65   34   36 1
  66   36   38 1
  67   37   38 1
  68   37   65 1
  69   37   66 1
  70   37   67 1
  71   38   68 1
  72   38   69 1
  73   39   70 1
  74   39   71 1
  75   39   72 1
  76   40   73 1
  77   40   74 1
  78   40   75 1

#	End of record

