#	Name: ASD01912030
#	Creating user name:	WinNT
#	Creation time:	15. 06. 2019 19:58

#	Modifying user name:	WinNT
#	Modification time:	15. 06. 2019 19:58

#	Program:	/corina/corina34_cracker 3.40 0067  02.08.2006

@<TRIPOS>MOLECULE
ASD01912030
  34   37    0    0    0
SMALL
NO_CHARGES


@<TRIPOS>ATOM
   1 C1            -0.0159     1.3246     0.0093 C.ar    
   2 N2             0.0021    -0.0041     0.0020 N.ar    
   3 C3            -1.1258    -0.6971     0.0090 C.ar    
   4 N4            -2.3146    -0.1083     0.0231 N.ar    
   5 C5            -2.4246     1.2069     0.0311 C.ar    
   6 C6            -1.2614     1.9871     0.0307 C.ar    
   7 C7            -1.3344     3.4173     0.0393 C.1     
   8 N8            -1.3922     4.5518     0.0461 N.1     
   9 N9            -1.0629    -2.0798     0.0010 N.pl3   
  10 C10           -2.2252    -2.8233     0.0081 C.2     
  11 O11           -2.2803    -4.1668     0.0014 O.3     
  12 C12           -3.5816    -4.5360     0.0123 C.ar    
  13 C13           -4.3296    -3.3491     0.0260 C.ar    
  14 N14           -3.4340    -2.3242     0.0279 N.2     
  15 C15           -4.2312    -5.7598     0.0125 C.ar    
  16 C16           -5.6105    -5.8065     0.0263 C.ar    
  17 C17           -6.3535    -4.6359     0.0395 C.ar    
  18 C18           -5.7238    -3.4107     0.0399 C.ar    
  19 C19            1.2495     2.0965     0.0014 C.ar    
  20 C20            2.4153     1.5174     0.4986 C.ar    
  21 C21            3.5898     2.2510     0.4845 C.ar    
  22 C22            3.5589     3.5401    -0.0267 C.ar    
  23 C23            2.3652     4.0524    -0.5042 C.ar    
  24 N24            1.2639     3.3314    -0.4841 N.ar    
  25 H25           -3.3979     1.6749     0.0421 H       
  26 H26           -0.2017    -2.5260    -0.0096 H       
  27 H27           -3.6591    -6.6757     0.0015 H       
  28 H28           -6.1147    -6.7616     0.0264 H       
  29 H29           -7.4323    -4.6850     0.0498 H       
  30 H30           -6.3066    -2.5016     0.0510 H       
  31 H31            2.4031     0.5108     0.8897 H       
  32 H32            4.5089     1.8291     0.8634 H       
  33 H33            4.4577     4.1385    -0.0515 H       
  34 H34            2.3377     5.0559    -0.9026 H       
@<TRIPOS>BOND
   1    1    2 ar
   2    1   19 1
   3    1    6 ar
   4    2    3 ar
   5    3    4 ar
   6    3    9 1
   7    4    5 ar
   8    5    6 ar
   9    5   25 1
  10    6    7 1
  11    7    8 3
  12    9   10 1
  13    9   26 1
  14   10   11 1
  15   10   14 2
  16   11   12 1
  17   12   13 ar
  18   12   15 ar
  19   13   14 1
  20   13   18 ar
  21   15   16 ar
  22   15   27 1
  23   16   17 ar
  24   16   28 1
  25   17   18 ar
  26   17   29 1
  27   18   30 1
  28   19   20 ar
  29   19   24 ar
  30   20   21 ar
  31   20   31 1
  32   21   22 ar
  33   21   32 1
  34   22   23 ar
  35   22   33 1
  36   23   24 ar
  37   23   34 1

#	End of record

