#	Name: ASD03330954
#	Creating user name:	WinNT
#	Creation time:	15. 06. 2019 20:38

#	Modifying user name:	WinNT
#	Modification time:	15. 06. 2019 20:38

#	Program:	/corina/corina34_cracker 3.40 0067  02.08.2006

@<TRIPOS>MOLECULE
ASD03330954
  33   35    0    0    0
SMALL
NO_CHARGES


@<TRIPOS>ATOM
   1 C1            -0.0167     1.3767     0.0082 C.ar    
   2 C2             0.0021    -0.0041     0.0006 C.ar    
   3 C3            -1.1986    -0.7153     0.0097 C.ar    
   4 C4            -2.4119    -0.0269     0.0263 C.ar    
   5 C5            -2.4205     1.3528     0.0338 C.ar    
   6 C6            -1.2272     2.0557     0.0306 C.ar    
   7 F7            -1.2415     3.4066     0.0384 F       
   8 C8            -1.1848    -2.1944     0.0011 C.2     
   9 N9            -2.2158    -3.0027     0.3859 N.pl3   
  10 C10           -1.7989    -4.2839     0.2518 C.2     
  11 C11           -0.5288    -4.2466    -0.2391 C.2     
  12 N12           -0.1818    -2.9482    -0.3829 N.2     
  13 C13           -3.5421    -2.5740     0.8411 C.3     
  14 C14           -4.1291    -3.6441     1.7654 C.3     
  15 C15           -4.8383    -4.7119     0.9349 C.3     
  16 O16           -3.9223    -5.3700     0.0675 O.3     
  17 C17           -2.6034    -5.5067     0.6074 C.3     
  18 C18            0.3130    -5.4110    -0.5594 C.2     
  19 O19           -0.1153    -6.5357    -0.3893 O.2     
  20 O20            1.5587    -5.2300    -1.0414 O.3     
  21 F21            1.1444     2.0674    -0.0005 F       
  22 H22            0.9439    -0.5324    -0.0126 H       
  23 H23           -3.3434    -0.5734     0.0330 H       
  24 H24           -3.3598     1.8856     0.0463 H       
  25 H25           -3.4541    -1.6328     1.3838 H       
  26 H26           -4.1963    -2.4383    -0.0202 H       
  27 H27           -3.3267    -4.1060     2.3405 H       
  28 H28           -4.8430    -3.1821     2.4473 H       
  29 H29           -5.2890    -5.4453     1.6034 H       
  30 H30           -5.6211    -4.2418     0.3396 H       
  31 H31           -2.1269    -6.3920     0.1863 H       
  32 H32           -2.6612    -5.6026     1.6916 H       
  33 H33            2.0735    -6.0248    -1.2370 H       
@<TRIPOS>BOND
   1    1    2 ar
   2    1   21 1
   3    1    6 ar
   4    2    3 ar
   5    2   22 1
   6    3    4 ar
   7    3    8 1
   8    4    5 ar
   9    4   23 1
  10    5    6 ar
  11    5   24 1
  12    6    7 1
  13    8    9 1
  14    8   12 2
  15    9   10 1
  16    9   13 1
  17   10   11 2
  18   10   17 1
  19   11   12 1
  20   11   18 1
  21   13   14 1
  22   13   25 1
  23   13   26 1
  24   14   15 1
  25   14   27 1
  26   14   28 1
  27   15   16 1
  28   15   29 1
  29   15   30 1
  30   16   17 1
  31   17   31 1
  32   17   32 1
  33   18   19 2
  34   18   20 1
  35   20   33 1

#	End of record

