#	Name: ASD02030033
#	Creating user name:	WinNT
#	Creation time:	15. 06. 2019 20:14

#	Modifying user name:	WinNT
#	Modification time:	15. 06. 2019 20:14

#	Program:	/corina/corina34_cracker 3.40 0067  02.08.2006

@<TRIPOS>MOLECULE
ASD02030033
  60   63    0    0    0
SMALL
NO_CHARGES


@<TRIPOS>ATOM
   1 C1            -0.5932     1.4640    -0.1358 C.ar    
   2 C2            -0.5797    -0.0109    -0.1472 C.2     
   3 N3             0.0001    -0.6716    -1.1688 N.am    
   4 C4             0.1116    -2.0597    -1.1267 C.ar    
   5 O5            -1.0915    -0.6306     0.7652 O.2     
   6 C6             0.0008    -2.8010    -2.2994 C.ar    
   7 C7             0.1105    -4.1724    -2.2615 C.ar    
   8 C8             0.3339    -4.8208    -1.0431 C.ar    
   9 C9             0.4451    -4.0729     0.1330 C.ar    
  10 C10            0.3392    -2.7014     0.0871 C.ar    
  11 C11            0.4515    -6.2899    -0.9985 C.2     
  12 O12            0.6668    -6.9132     0.1766 O.3     
  13 O13            0.3542    -6.9385    -2.0214 O.2     
  14 C14            0.7718    -8.3611     0.1453 C.3     
  15 C15           -0.6155    -9.0104     0.3749 C.3     
  16 C16           -0.2501   -10.4181     0.9078 C.3     
  17 C17            0.9763   -10.1740     1.8112 C.3     
  18 C18            1.6260    -8.8661     1.3264 C.3     
  19 N19            2.9977    -9.1225     0.8803 N.am    
  20 C20            4.0102    -9.1041     1.7696 C.2     
  21 O21            3.7853    -8.8748     2.9416 O.2     
  22 C22            5.3973    -9.3634     1.3184 C.ar    
  23 C23            6.4621    -9.3490     2.2245 C.ar    
  24 C24            7.7396    -9.5965     1.7606 C.ar    
  25 N25            7.9605    -9.8431     0.4847 N.ar    
  26 C26            6.9857    -9.8661    -0.4022 C.ar    
  27 C27            5.6771    -9.6351    -0.0242 C.ar    
  28 C28            0.4554     2.1739     0.4650 C.ar    
  29 C29            0.4321     3.5608     0.4698 C.ar    
  30 C30           -0.6197     4.2374    -0.1149 C.ar    
  31 C31           -1.6581     3.5393    -0.7099 C.ar    
  32 C32           -1.6486     2.1616    -0.7290 C.ar    
  33 O33            1.4880     1.5078     1.0395 O.3     
  34 S34           -2.9726     1.2806    -1.4875 S.o2    
  35 O35           -2.6794     1.2338    -2.8771 O.2     
  36 O36           -3.1851     0.1181    -0.6984 O.2     
  37 O37           -4.2242     2.1342    -1.3409 O.3     
  38 H38            0.3397    -0.1807    -1.9334 H       
  39 H39           -0.1717    -2.2995    -3.2402 H       
  40 H40            0.0237    -4.7471    -3.1718 H       
  41 H41            0.6173    -4.5706     1.0759 H       
  42 H42            0.4250    -2.1231     0.9951 H       
  43 H43            1.1954    -8.6915    -0.8032 H       
  44 H44           -1.1852    -8.4520     1.1177 H       
  45 H45           -1.1677    -9.0834    -0.5621 H       
  46 H46           -1.0748   -10.8323     1.4878 H       
  47 H47            0.0094   -11.0825     0.0836 H       
  48 H48            0.6607   -10.0716     2.8495 H       
  49 H49            1.6815   -10.9995     1.7146 H       
  50 H50            1.6258    -8.1290     2.1294 H       
  51 H51            3.1772    -9.3056    -0.0553 H       
  52 H52            6.2885    -9.1470     3.2711 H       
  53 H53            8.5686    -9.5876     2.4527 H       
  54 H54            7.2125   -10.0724    -1.4378 H       
  55 H55            4.8833    -9.6558    -0.7563 H       
  56 H56            1.2378     4.1120     0.9319 H       
  57 H57           -0.6333     5.3173    -0.1083 H       
  58 H58           -2.4765     4.0775    -1.1647 H       
  59 H59            2.2216     1.3242     0.4368 H       
  60 H60           -5.0174     1.7389    -1.7275 H       
@<TRIPOS>BOND
   1    1    2 1
   2    1   28 ar
   3    1   32 ar
   4    2    3 am
   5    2    5 2
   6    3    4 1
   7    3   38 1
   8    4    6 ar
   9    4   10 ar
  10    6    7 ar
  11    6   39 1
  12    7    8 ar
  13    7   40 1
  14    8    9 ar
  15    8   11 1
  16    9   10 ar
  17    9   41 1
  18   10   42 1
  19   11   12 1
  20   11   13 2
  21   12   14 1
  22   14   15 1
  23   14   18 1
  24   14   43 1
  25   15   16 1
  26   15   44 1
  27   15   45 1
  28   16   17 1
  29   16   46 1
  30   16   47 1
  31   17   18 1
  32   17   48 1
  33   17   49 1
  34   18   19 1
  35   18   50 1
  36   19   20 am
  37   19   51 1
  38   20   21 2
  39   20   22 1
  40   22   23 ar
  41   22   27 ar
  42   23   24 ar
  43   23   52 1
  44   24   25 ar
  45   24   53 1
  46   25   26 ar
  47   26   27 ar
  48   26   54 1
  49   27   55 1
  50   28   29 ar
  51   28   33 1
  52   29   30 ar
  53   29   56 1
  54   30   31 ar
  55   30   57 1
  56   31   32 ar
  57   31   58 1
  58   32   34 1
  59   33   59 1
  60   34   35 2
  61   34   36 2
  62   34   37 1
  63   37   60 1

#	End of record

