#	Name: ASD00171058
#	Creating user name:	WinNT
#	Creation time:	15. 06. 2019 18:32

#	Modifying user name:	WinNT
#	Modification time:	15. 06. 2019 18:32

#	Program:	/corina/corina34_cracker 3.40 0067  02.08.2006

@<TRIPOS>MOLECULE
ASD00171058
  61   64    0    0    0
SMALL
NO_CHARGES


@<TRIPOS>ATOM
   1 C1             0.2566     1.6739    -0.1080 C.ar    
   2 C2             0.3572     0.2850    -0.1383 C.ar    
   3 C3            -0.7711    -0.4824    -0.2028 C.ar    
   4 C4            -2.0308     0.1287    -0.2386 C.ar    
   5 C5            -2.1287     1.5262    -0.2080 C.ar    
   6 C6            -0.9959     2.2868    -0.1380 C.ar    
   7 Cl7           -1.1150     4.0183    -0.1000 Cl      
   8 C8            -3.2458    -0.6930    -0.3085 C.2     
   9 C9            -4.4602    -0.1016    -0.3429 C.2     
  10 C10           -5.6695    -0.9194    -0.4124 C.2     
  11 N11           -6.8823    -0.3369    -0.3337 N.am    
  12 O12           -5.5813    -2.1266    -0.5415 O.2     
  13 C13           -7.0047     1.1025    -0.0637 C.3     
  14 C14           -7.8400     1.7413    -1.1801 C.3     
  15 N15           -9.0638     0.9485    -1.3632 N.am    
  16 C16           -8.9415    -0.4910    -1.6332 C.3     
  17 C17           -8.1060    -1.1287    -0.5223 C.3     
  18 S18            1.7151     2.6590    -0.0241 S.3     
  19 C19            2.9949     1.4591     0.1402 C.ar    
  20 C20          -10.2767     1.5310    -1.2844 C.2     
  21 C21          -11.5229     0.7052    -1.4743 C.3     
  22 O22          -10.3651     2.7197    -1.0607 O.2     
  23 C23            3.4180     0.7349    -0.9705 C.ar    
  24 C24            4.4273    -0.2112    -0.8384 C.ar    
  25 C25            5.0132    -0.4291     0.4019 C.ar    
  26 C26            4.5870     0.2947     1.5067 C.ar    
  27 C27            3.5866     1.2387     1.3766 C.ar    
  28 O28            4.8263    -0.9185    -1.9320 O.3     
  29 C29            6.0892    -1.5867    -1.8410 C.3     
  30 C30            6.1502    -2.3173    -0.4928 C.3     
  31 O31            6.0092    -1.3465     0.5499 O.3     
  32 O32            2.8435     0.9527    -2.1848 O.3     
  33 C33            3.4403     1.9509    -3.0151 C.3     
  34 C34            2.6628     2.0529    -4.3290 C.3     
  35 H35            1.3287    -0.1859    -0.1111 H       
  36 H36           -0.6918    -1.5592    -0.2266 H       
  37 H37           -3.0982     2.0011    -0.2357 H       
  38 H38           -3.1688    -1.7699    -0.3324 H       
  39 H39           -4.5373     0.9754    -0.3190 H       
  40 H40           -7.4994     1.2540     0.8957 H       
  41 H41           -6.0139     1.5563    -0.0428 H       
  42 H42           -8.1034     2.7617    -0.9017 H       
  43 H43           -7.2668     1.7488    -2.1072 H       
  44 H44           -9.9323    -0.9448    -1.6540 H       
  45 H45           -8.4467    -0.6424    -2.5926 H       
  46 H46           -7.8434    -2.1489    -0.8019 H       
  47 H47           -8.6770    -1.1366     0.4062 H       
  48 H48          -11.5578    -0.0791    -0.7182 H       
  49 H49          -12.4006     1.3440    -1.3760 H       
  50 H50          -11.5117     0.2533    -2.4662 H       
  51 H51            5.0419     0.1223     2.4710 H       
  52 H52            3.2582     1.7993     2.2393 H       
  53 H53            6.1834    -2.3068    -2.6539 H       
  54 H54            6.8964    -0.8567    -1.9004 H       
  55 H55            5.3394    -3.0432    -0.4310 H       
  56 H56            7.1088    -2.8267    -0.3937 H       
  57 H57            3.4151     2.9125    -2.5025 H       
  58 H58            4.4744     1.6780    -3.2252 H       
  59 H59            3.1180     2.8143    -4.9623 H       
  60 H60            2.6880     1.0913    -4.8416 H       
  61 H61            1.6286     2.3258    -4.1189 H       
@<TRIPOS>BOND
   1    1    2 ar
   2    1   18 1
   3    1    6 ar
   4    2    3 ar
   5    2   35 1
   6    3    4 ar
   7    3   36 1
   8    4    5 ar
   9    4    8 1
  10    5    6 ar
  11    5   37 1
  12    6    7 1
  13    8    9 2
  14    8   38 1
  15    9   10 1
  16    9   39 1
  17   10   11 am
  18   10   12 2
  19   11   13 1
  20   11   17 1
  21   13   14 1
  22   13   40 1
  23   13   41 1
  24   14   15 1
  25   14   42 1
  26   14   43 1
  27   15   16 1
  28   15   20 am
  29   16   17 1
  30   16   44 1
  31   16   45 1
  32   17   46 1
  33   17   47 1
  34   18   19 1
  35   19   23 ar
  36   19   27 ar
  37   20   21 1
  38   20   22 2
  39   21   48 1
  40   21   49 1
  41   21   50 1
  42   23   24 ar
  43   23   32 1
  44   24   25 ar
  45   24   28 1
  46   25   26 ar
  47   25   31 1
  48   26   27 ar
  49   26   51 1
  50   27   52 1
  51   28   29 1
  52   29   30 1
  53   29   53 1
  54   29   54 1
  55   30   31 1
  56   30   55 1
  57   30   56 1
  58   32   33 1
  59   33   34 1
  60   33   57 1
  61   33   58 1
  62   34   59 1
  63   34   60 1
  64   34   61 1

#	End of record

