#	Name: ASD01150789
#	Creating user name:	WinNT
#	Creation time:	15. 06. 2019 19:05

#	Modifying user name:	WinNT
#	Modification time:	15. 06. 2019 19:05

#	Program:	/corina/corina34_cracker 3.40 0067  02.08.2006

@<TRIPOS>MOLECULE
ASD01150789
  65   66    0    0    0
SMALL
NO_CHARGES


@<TRIPOS>ATOM
   1 N1             1.9822     0.9892    -1.6115 N.3     
   2 C2             2.3137    -0.4197    -1.8691 C.3     
   3 C3             3.1583    -0.5151    -3.1424 C.3     
   4 O4             4.3259     0.2978    -2.9959 O.3     
   5 C5             4.0399     1.6763    -2.7446 C.3     
   6 C6             3.2041     1.7939    -1.4672 C.3     
   7 C7             1.1230     1.1199    -0.4272 C.3     
   8 C8             1.8265     4.4224     1.0493 C.ar    
   9 N9             1.9231     3.1436     0.7136 N.ar    
  10 C10            1.0055     2.5741    -0.0497 C.ar    
  11 C11           -0.0656     3.3312    -0.4989 C.ar    
  12 C12           -0.1358     4.6651    -0.1292 C.ar    
  13 N13            0.8154     5.1735     0.6365 N.ar    
  14 S14            3.0679     5.1388     2.0742 S.3     
  15 C15            2.4381     6.8315     2.1943 C.3     
  16 C16            3.3669     7.6535     3.0502 C.2     
  17 C17            4.0733     8.6166     2.5120 C.2     
  18 C18            4.9097     9.5159     3.3852 C.3     
  19 C19            6.3445     8.9869     3.4359 C.3     
  20 C20            7.1809     9.8863     4.3091 C.2     
  21 C21            7.7975     9.3947     5.3552 C.2     
  22 C22            8.7409    10.2607     6.1496 C.3     
  23 C23            7.9935    10.8754     7.3346 C.3     
  24 C24            7.5577     9.7659     8.2938 C.3     
  25 C25            8.9156    11.8510     8.0686 C.3     
  26 C26            7.5633     7.9633     5.7642 C.3     
  27 C27            4.0494     8.8250     1.0197 C.3     
  28 C28           -1.2817     5.5261    -0.5946 C.3     
  29 H29            2.8779    -0.8207    -1.0271 H       
  30 H30            1.3950    -0.9920    -1.9980 H       
  31 H31            3.4544    -1.5512    -3.3060 H       
  32 H32            2.5748    -0.1639    -3.9934 H       
  33 H33            4.9735     2.2250    -2.6205 H       
  34 H34            3.4819     2.0912    -3.5840 H       
  35 H35            2.9355     2.8374    -1.3028 H       
  36 H36            3.7826     1.4283    -0.6188 H       
  37 H37            0.1333     0.7214    -0.6505 H       
  38 H38            1.5601     0.5635     0.4020 H       
  39 H39           -0.8287     2.8910    -1.1237 H       
  40 H40            2.3798     7.2690     1.1976 H       
  41 H41            1.4453     6.8187     2.6441 H       
  42 H42            3.4501     7.4487     4.1073 H       
  43 H43            4.9090    10.5252     2.9734 H       
  44 H44            4.4934     9.5341     4.3924 H       
  45 H45            6.3452     7.9777     3.8476 H       
  46 H46            6.7608     8.9687     2.4287 H       
  47 H47            7.2721    10.9361     4.0724 H       
  48 H48            9.5686     9.6540     6.5172 H       
  49 H49            9.1282    11.0557     5.5124 H       
  50 H50            7.1145    11.4088     6.9727 H       
  51 H51            7.0252    10.2039     9.1380 H       
  52 H52            6.9007     9.0709     7.7709 H       
  53 H53            8.4367     9.2325     8.6558 H       
  54 H54            9.2261    12.6415     7.3853 H       
  55 H55            8.3831    12.2890     8.9129 H       
  56 H56            9.7946    11.3177     8.4306 H       
  57 H57            8.2187     7.3093     5.1891 H       
  58 H58            7.7777     7.8494     6.8268 H       
  59 H59            6.5241     7.6961     5.5725 H       
  60 H60            3.1947     9.4468     0.7533 H       
  61 H61            4.9694     9.3189     0.7071 H       
  62 H62            3.9668     7.8602     0.5193 H       
  63 H63           -2.0937     5.4734     0.1308 H       
  64 H64           -0.9454     6.5586    -0.6891 H       
  65 H65           -1.6350     5.1691    -1.5619 H       
@<TRIPOS>BOND
   1    1    2 1
   2    1    6 1
   3    1    7 1
   4    2    3 1
   5    2   29 1
   6    2   30 1
   7    3    4 1
   8    3   31 1
   9    3   32 1
  10    4    5 1
  11    5    6 1
  12    5   33 1
  13    5   34 1
  14    6   35 1
  15    6   36 1
  16    7   10 1
  17    7   37 1
  18    7   38 1
  19    8    9 ar
  20    8   13 ar
  21    8   14 1
  22    9   10 ar
  23   10   11 ar
  24   11   12 ar
  25   11   39 1
  26   12   13 ar
  27   12   28 1
  28   14   15 1
  29   15   16 1
  30   15   40 1
  31   15   41 1
  32   16   17 2
  33   16   42 1
  34   17   18 1
  35   17   27 1
  36   18   19 1
  37   18   43 1
  38   18   44 1
  39   19   20 1
  40   19   45 1
  41   19   46 1
  42   20   21 2
  43   20   47 1
  44   21   22 1
  45   21   26 1
  46   22   23 1
  47   22   48 1
  48   22   49 1
  49   23   24 1
  50   23   25 1
  51   23   50 1
  52   24   51 1
  53   24   52 1
  54   24   53 1
  55   25   54 1
  56   25   55 1
  57   25   56 1
  58   26   57 1
  59   26   58 1
  60   26   59 1
  61   27   60 1
  62   27   61 1
  63   27   62 1
  64   28   63 1
  65   28   64 1
  66   28   65 1

#	End of record

