#	Name: ASD01917907
#	Creating user name:	WinNT
#	Creation time:	15. 06. 2019 20:10

#	Modifying user name:	WinNT
#	Modification time:	15. 06. 2019 20:10

#	Program:	/corina/corina34_cracker 3.40 0067  02.08.2006

@<TRIPOS>MOLECULE
ASD01917907
  41   44    0    0    0
SMALL
NO_CHARGES


@<TRIPOS>ATOM
   1 C1             0.0344     1.2123    -0.2088 C.2     
   2 C2            -0.0079    -0.1337    -0.1823 C.2     
   3 C3            -1.2727    -0.9474    -0.0761 C.3     
   4 C4            -2.4004    -0.0449     0.4398 C.3     
   5 N5            -2.3664     1.2328    -0.2876 N.am    
   6 C6            -1.1839     2.0982    -0.1253 C.3     
   7 C7            -3.3897     1.6029    -1.0828 C.2     
   8 O8            -4.2979     0.8273    -1.3044 O.2     
   9 O9             1.3204     1.5720    -0.3134 O.3     
  10 C10            2.0534     0.4478    -0.3466 C.2     
  11 N11            1.2526    -0.5795    -0.2671 N.2     
  12 C12            3.5549     0.3828    -0.4578 C.3     
  13 O13            3.9289     0.3369    -1.8362 O.3     
  14 C14            5.2579     0.2755    -2.1132 C.ar    
  15 C15            5.6918     0.2284    -3.4301 C.ar    
  16 C16            7.0433     0.1659    -3.7090 C.ar    
  17 C17            7.9634     0.1503    -2.6770 C.ar    
  18 C18            7.5335     0.1967    -1.3637 C.ar    
  19 C19            6.1833     0.2654    -1.0796 C.ar    
  20 C20           -3.4070     2.9593    -1.6880 C.ar    
  21 N21           -4.3236     3.2482    -2.5996 N.ar    
  22 C22           -4.3679     4.4447    -3.1578 C.ar    
  23 C23           -3.4387     5.4032    -2.7779 C.ar    
  24 C24           -2.4926     5.0657    -1.8199 C.ar    
  25 N25           -2.5088     3.8517    -1.2989 N.ar    
  26 H26           -1.5385    -1.3390    -1.0580 H       
  27 H27           -1.1186    -1.7728     0.6189 H       
  28 H28           -3.3613    -0.5323     0.2752 H       
  29 H29           -2.2616     0.1387     1.5052 H       
  30 H30           -1.2167     2.5928     0.8455 H       
  31 H31           -1.1570     2.8426    -0.9211 H       
  32 H32            3.9922     1.2659     0.0081 H       
  33 H33            3.9182    -0.5121     0.0473 H       
  34 H34            4.9735     0.2402    -4.2365 H       
  35 H35            7.3816     0.1289    -4.7340 H       
  36 H36            9.0196     0.1014    -2.8971 H       
  37 H37            8.2541     0.1836    -0.5593 H       
  38 H38            5.8480     0.3017    -0.0536 H       
  39 H39           -5.1174     4.6741    -3.9008 H       
  40 H40           -3.4512     6.3894    -3.2179 H       
  41 H41           -1.7552     5.7876    -1.5015 H       
@<TRIPOS>BOND
   1    1    2 2
   2    1    9 1
   3    1    6 1
   4    2    3 1
   5    2   11 1
   6    3    4 1
   7    3   26 1
   8    3   27 1
   9    4    5 1
  10    4   28 1
  11    4   29 1
  12    5    6 1
  13    5    7 am
  14    6   30 1
  15    6   31 1
  16    7    8 2
  17    7   20 1
  18    9   10 1
  19   10   11 2
  20   10   12 1
  21   12   13 1
  22   12   32 1
  23   12   33 1
  24   13   14 1
  25   14   15 ar
  26   14   19 ar
  27   15   16 ar
  28   15   34 1
  29   16   17 ar
  30   16   35 1
  31   17   18 ar
  32   17   36 1
  33   18   19 ar
  34   18   37 1
  35   19   38 1
  36   20   21 ar
  37   20   25 ar
  38   21   22 ar
  39   22   23 ar
  40   22   39 1
  41   23   24 ar
  42   23   40 1
  43   24   25 ar
  44   24   41 1

#	End of record

