#	Name: ASD08830153
#	Creating user name:	WinNT
#	Creation time:	15. 06. 2019 21:19

#	Modifying user name:	WinNT
#	Modification time:	15. 06. 2019 21:19

#	Program:	/corina/corina34_cracker 3.40 0067  02.08.2006

@<TRIPOS>MOLECULE
ASD08830153
  47   49    0    0    0
SMALL
NO_CHARGES


@<TRIPOS>ATOM
   1 C1            -0.0179     1.4665     0.0101 C.ar    
   2 C2             0.0021    -0.0041     0.0020 C.2     
   3 C3            -1.2926    -0.7753     0.0102 C.3     
   4 C4            -0.9927    -2.2755    -0.0007 C.3     
   5 N5            -2.2547    -3.0273     0.0073 N.3     
   6 O6             1.0604    -0.5961    -0.0113 O.2     
   7 C7             1.1774     2.1722     0.0025 C.ar    
   8 C8            -0.0981     4.2489     0.0258 C.ar    
   9 C9            -1.2934     3.5051     0.0274 C.ar    
  10 C10           -2.0174    -4.4610    -0.2417 C.3     
  11 C11            1.1497     3.5742     0.0103 C.ar    
  12 C12           -1.2502     2.1496     0.0197 C.ar    
  13 C13            2.3394     4.3244     0.0035 C.ar    
  14 C14            2.2784     5.6843     0.0117 C.ar    
  15 C15            1.0527     6.3463     0.0273 C.ar    
  16 C16           -0.1195     5.6528     0.0348 C.ar    
  17 C17           -2.6164    -5.2373     0.9499 C.3     
  18 C18           -3.6579    -4.2427     1.5269 C.3     
  19 C19           -2.9489    -2.8834     1.3047 C.3     
  20 C20           -3.3004    -6.5195     0.4713 C.3     
  21 C21           -2.2765    -7.4107    -0.2347 C.3     
  22 C22           -3.8833    -7.2657     1.6731 C.3     
  23 H23           -1.8592    -0.5245     0.9070 H       
  24 H24           -1.8762    -0.5150    -0.8728 H       
  25 H25           -0.4261    -2.5263    -0.8975 H       
  26 H26           -0.4091    -2.5358     0.8824 H       
  27 H27            2.1205     1.6461    -0.0090 H       
  28 H28           -2.2457     4.0145     0.0396 H       
  29 H29           -2.5094    -4.7632    -1.1662 H       
  30 H30           -0.9466    -4.6534    -0.3089 H       
  31 H31           -2.1719     1.5867     0.0206 H       
  32 H32            3.2965     3.8241    -0.0079 H       
  33 H33            3.1933     6.2582     0.0065 H       
  34 H34            1.0316     7.4261     0.0340 H       
  35 H35           -1.0617     6.1806     0.0468 H       
  36 H36           -1.8476    -5.4622     1.6891 H       
  37 H37           -4.5937    -4.2905     0.9702 H       
  38 H38           -3.8268    -4.4261     2.5880 H       
  39 H39           -2.2291    -2.6961     2.1015 H       
  40 H40           -3.6808    -2.0771     1.2562 H       
  41 H41           -4.1018    -6.2665    -0.2229 H       
  42 H42           -1.4751    -7.6637     0.4594 H       
  43 H43           -2.7637    -8.3241    -0.5757 H       
  44 H44           -1.8612    -6.8790    -1.0909 H       
  45 H45           -4.6127    -6.6309     2.1760 H       
  46 H46           -4.3705    -8.1792     1.3321 H       
  47 H47           -3.0819    -7.5188     2.3672 H       
@<TRIPOS>BOND
   1    1    2 1
   2    1    7 ar
   3    1   12 ar
   4    2    3 1
   5    2    6 2
   6    3    4 1
   7    3   23 1
   8    3   24 1
   9    4    5 1
  10    4   25 1
  11    4   26 1
  12    5   10 1
  13    5   19 1
  14    7   11 ar
  15    7   27 1
  16    8    9 ar
  17    8   11 ar
  18    8   16 ar
  19    9   12 ar
  20    9   28 1
  21   10   17 1
  22   10   29 1
  23   10   30 1
  24   11   13 ar
  25   12   31 1
  26   13   14 ar
  27   13   32 1
  28   14   15 ar
  29   14   33 1
  30   15   16 ar
  31   15   34 1
  32   16   35 1
  33   17   18 1
  34   17   20 1
  35   17   36 1
  36   18   19 1
  37   18   37 1
  38   18   38 1
  39   19   39 1
  40   19   40 1
  41   20   21 1
  42   20   22 1
  43   20   41 1
  44   21   42 1
  45   21   43 1
  46   21   44 1
  47   22   45 1
  48   22   46 1
  49   22   47 1

#	End of record

