#	Name: ASD01230466
#	Creating user name:	WinNT
#	Creation time:	15. 06. 2019 19:14

#	Modifying user name:	WinNT
#	Modification time:	15. 06. 2019 19:14

#	Program:	/corina/corina34_cracker 3.40 0067  02.08.2006

@<TRIPOS>MOLECULE
ASD01230466
  40   43    0    0    0
SMALL
NO_CHARGES


@<TRIPOS>ATOM
   1 S1            -0.0204     1.6504     0.0111 S.o2    
   2 N2             0.0021    -0.0041     0.0020 N.am    
   3 C3             1.0228    -0.6873    -0.4556 C.2     
   4 N4             2.1688    -0.1518    -0.9712 N.pl3   
   5 C5             2.3935     1.2854    -1.1472 C.3     
   6 C6             1.7501     2.0749    -0.0035 C.3     
   7 C7             0.8949    -2.1592    -0.3950 C.2     
   8 C8             1.9459    -2.9423    -0.8229 C.2     
   9 C9             3.1045    -2.3192    -1.3056 C.2     
  10 C10            3.1908    -0.9789    -1.3650 C.2     
  11 C11           -2.6674    -3.9539     1.0819 C.ar    
  12 C12           -2.4070    -3.9503    -0.2884 C.ar    
  13 C13           -1.2529    -3.3686    -0.7692 C.ar    
  14 C14           -0.3443    -2.7834     0.1185 C.ar    
  15 C15           -0.6074    -2.7890     1.4892 C.ar    
  16 C16           -1.7610    -3.3701     1.9668 C.ar    
  17 C17           -3.9116    -4.5741     1.5979 C.ar    
  18 C18           -4.1751    -4.5795     2.9667 C.ar    
  19 C19           -5.3346    -5.1582     3.4412 C.ar    
  20 C20           -6.2344    -5.7325     2.5613 C.ar    
  21 C21           -5.9780    -5.7304     1.2019 C.ar    
  22 C22           -4.8249    -5.1488     0.7154 C.ar    
  23 F23           -0.9996    -3.3650    -2.0962 F       
  24 O24           -0.6346     2.0065    -1.2198 O.2     
  25 O25           -0.6110     1.9931     1.2573 O.2     
  26 H26            3.4654     1.4825    -1.1616 H       
  27 H27            1.9572     1.6041    -2.0939 H       
  28 H28            1.8743     3.1442    -0.1745 H       
  29 H29            2.2074     1.7939     0.9452 H       
  30 H30            1.8775    -4.0195    -0.7862 H       
  31 H31            3.9378    -2.9227    -1.6336 H       
  32 H32            4.1019    -0.5348    -1.7380 H       
  33 H33           -3.1092    -4.4029    -0.9728 H       
  34 H34            0.0937    -2.3373     2.1754 H       
  35 H35           -1.9641    -3.3738     3.0275 H       
  36 H36           -3.4730    -4.1321     3.6547 H       
  37 H37           -5.5398    -5.1630     4.5015 H       
  38 H38           -7.1404    -6.1845     2.9371 H       
  39 H39           -6.6838    -6.1806     0.5196 H       
  40 H40           -4.6283    -5.1431    -0.3465 H       
@<TRIPOS>BOND
   1    1    2 am
   2    1    6 1
   3    1   24 2
   4    1   25 2
   5    2    3 2
   6    3    4 1
   7    3    7 1
   8    4    5 1
   9    4   10 1
  10    5    6 1
  11    5   26 1
  12    5   27 1
  13    6   28 1
  14    6   29 1
  15    7    8 2
  16    7   14 1
  17    8    9 1
  18    8   30 1
  19    9   10 2
  20    9   31 1
  21   10   32 1
  22   11   12 ar
  23   11   16 ar
  24   11   17 1
  25   12   13 ar
  26   12   33 1
  27   13   14 ar
  28   13   23 1
  29   14   15 ar
  30   15   16 ar
  31   15   34 1
  32   16   35 1
  33   17   18 ar
  34   17   22 ar
  35   18   19 ar
  36   18   36 1
  37   19   20 ar
  38   19   37 1
  39   20   21 ar
  40   20   38 1
  41   21   22 ar
  42   21   39 1
  43   22   40 1

#	End of record

