#	Name: ASD02500113
#	Creating user name:	WinNT
#	Creation time:	15. 06. 2019 20:22

#	Modifying user name:	WinNT
#	Modification time:	15. 06. 2019 20:22

#	Program:	/corina/corina34_cracker 3.40 0067  02.08.2006

@<TRIPOS>MOLECULE
ASD02500113
  65   69    0    0    0
SMALL
NO_CHARGES


@<TRIPOS>ATOM
   1 C1            -0.0395     1.1159    -0.1010 C.ar    
   2 C2            -0.0188    -0.0105    -0.9041 C.ar    
   3 C3             1.1090    -0.8033    -0.9568 C.ar    
   4 C4             2.2308    -0.4669    -0.1974 C.ar    
   5 C5             2.2033     0.6708     0.6107 C.ar    
   6 C6             1.0692     1.4550     0.6542 C.ar    
   7 S7            -1.4814     2.1270    -0.0452 S.o2    
   8 O8            -1.0514     3.4167     0.3685 O.2     
   9 O9            -2.1823     1.8937    -1.2591 O.2     
  10 N10           -2.4431     1.5428     1.1698 N.am    
  11 N11           -3.1249    -0.5348     2.9257 N.ar    
  12 C12           -3.4624    -1.5204     3.7213 C.ar    
  13 C13           -3.0100    -1.5873     5.0375 C.ar    
  14 C14           -2.1931    -0.6089     5.5277 C.ar    
  15 C15           -1.8331     0.4480     4.6696 C.ar    
  16 C16           -0.9964     1.4882     5.1048 C.ar    
  17 C17           -0.6657     2.4964     4.2508 C.ar    
  18 C18           -1.1454     2.5149     2.9447 C.ar    
  19 C19           -1.9689     1.5121     2.4806 C.ar    
  20 C20           -2.3291     0.4534     3.3431 C.ar    
  21 C21            3.4427    -1.3122    -0.2486 C.2     
  22 O22            3.3463    -2.5195    -0.1456 O.2     
  23 N23            4.6542    -0.7441    -0.4093 N.am    
  24 C24            5.7781    -1.5754    -0.5654 C.3     
  25 C25            6.8230    -1.2896     0.5430 C.3     
  26 N26            7.4463    -0.0109     0.2692 N.3     
  27 C27            6.8356     1.1473     0.9541 C.3     
  28 C28            5.3080     1.1371     0.9298 C.3     
  29 C29            4.7542     0.7296    -0.4213 C.3     
  30 C30            8.8248    -0.0640     0.5058 C.ar    
  31 C31            9.7215     0.1174    -0.5454 C.ar    
  32 C32           11.0842     0.0644    -0.3054 C.ar    
  33 C33           11.5528    -0.1686     0.9750 C.ar    
  34 C34           10.6641    -0.3491     2.0181 C.ar    
  35 C35            9.3019    -0.2915     1.7879 C.ar    
  36 O36            9.2594     0.3456    -1.8040 O.3     
  37 C37           10.2364     0.5222    -2.8318 C.3     
  38 H38           -0.8876    -0.2699    -1.4909 H       
  39 H39            1.1237    -1.6825    -1.5838 H       
  40 H40            3.0679     0.9364     1.2010 H       
  41 H41            1.0466     2.3356     1.2791 H       
  42 H42           -3.3363     1.2219     0.9696 H       
  43 H43           -4.1082    -2.3009     3.3469 H       
  44 H44           -3.3054    -2.4118     5.6694 H       
  45 H45           -1.8333    -0.6446     6.5454 H       
  46 H46           -0.6158     1.4890     6.1155 H       
  47 H47           -0.0219     3.2934     4.5925 H       
  48 H48           -0.8693     3.3255     2.2867 H       
  49 H49            5.4655    -2.6179    -0.5049 H       
  50 H50            6.2288    -1.3916    -1.5407 H       
  51 H51            6.3275    -1.2551     1.5132 H       
  52 H52            7.5803    -2.0735     0.5432 H       
  53 H53            7.1678     1.1533     1.9922 H       
  54 H54            7.1859     2.0609     0.4736 H       
  55 H55            4.9478     0.4390     1.6854 H       
  56 H56            4.9447     2.1356     1.1728 H       
  57 H57            5.4295     1.0506    -1.2144 H       
  58 H58            3.7677     1.1685    -0.5705 H       
  59 H59           11.7813     0.2046    -1.1182 H       
  60 H60           12.6160    -0.2100     1.1602 H       
  61 H61           11.0346    -0.5315     3.0160 H       
  62 H62            8.6097    -0.4284     2.6055 H       
  63 H63           10.8660     1.3789    -2.5912 H       
  64 H64           10.8535    -0.3733    -2.9042 H       
  65 H65            9.7349     0.6959    -3.7839 H       
@<TRIPOS>BOND
   1    1    2 ar
   2    1    6 ar
   3    1    7 1
   4    2    3 ar
   5    2   38 1
   6    3    4 ar
   7    3   39 1
   8    4    5 ar
   9    4   21 1
  10    5    6 ar
  11    5   40 1
  12    6   41 1
  13    7    8 2
  14    7    9 2
  15    7   10 am
  16   10   19 1
  17   10   42 1
  18   11   12 ar
  19   11   20 ar
  20   12   13 ar
  21   12   43 1
  22   13   14 ar
  23   13   44 1
  24   14   15 ar
  25   14   45 1
  26   15   16 ar
  27   15   20 ar
  28   16   17 ar
  29   16   46 1
  30   17   18 ar
  31   17   47 1
  32   18   19 ar
  33   18   48 1
  34   19   20 ar
  35   21   22 2
  36   21   23 am
  37   23   24 1
  38   23   29 1
  39   24   25 1
  40   24   49 1
  41   24   50 1
  42   25   26 1
  43   25   51 1
  44   25   52 1
  45   26   27 1
  46   26   30 1
  47   27   28 1
  48   27   53 1
  49   27   54 1
  50   28   29 1
  51   28   55 1
  52   28   56 1
  53   29   57 1
  54   29   58 1
  55   30   31 ar
  56   30   35 ar
  57   31   32 ar
  58   31   36 1
  59   32   33 ar
  60   32   59 1
  61   33   34 ar
  62   33   60 1
  63   34   35 ar
  64   34   61 1
  65   35   62 1
  66   36   37 1
  67   37   63 1
  68   37   64 1
  69   37   65 1

#	End of record

