#	Name: ASD03080137
#	Creating user name:	WinNT
#	Creation time:	15. 06. 2019 20:26

#	Modifying user name:	WinNT
#	Modification time:	15. 06. 2019 20:26

#	Program:	/corina/corina34_cracker 3.40 0067  02.08.2006

@<TRIPOS>MOLECULE
ASD03080137
  36   38    0    0    0
SMALL
NO_CHARGES


@<TRIPOS>ATOM
   1 C1            -0.5071     1.1488     0.1785 C.3     
   2 C2            -0.0340    -0.2828     0.0781 C.3     
   3 C3             0.6561     2.1380     0.1064 C.3     
   4 N4             1.9183     1.4484     0.0879 N.3     
   5 N5             0.5341    -0.5853    -1.2387 N.am    
   6 C6             1.0387    -0.6016     1.1209 C.3     
   7 C7             2.0498     0.5347     1.2262 C.3     
   8 C8            -0.2437    -0.8782    -2.2997 C.2     
   9 O9             0.3191    -1.1503    -3.4925 O.3     
  10 C10           -0.5221    -1.3303    -4.5452 C.ar    
  11 C11            2.3848     0.9227    -1.1674 C.3     
  12 C12            2.0160    -0.5501    -1.3375 C.3     
  13 O13           -1.4528    -0.8969    -2.1799 O.2     
  14 C14           -1.1225    -0.2356    -5.1496 C.ar    
  15 C15           -0.7768    -2.6086    -5.0200 C.ar    
  16 C16           -1.6320    -2.7894    -6.0897 C.ar    
  17 C17           -2.2342    -1.6967    -6.6875 C.ar    
  18 C18           -1.9770    -0.4206    -6.2191 C.ar    
  19 Br19          -3.4039    -1.9471    -8.1521 Br      
  20 H20           -1.1978     1.3527    -0.6397 H       
  21 H21           -1.0302     1.2843     1.1251 H       
  22 H22           -0.8848    -0.9452     0.2377 H       
  23 H23            0.5617     2.7362    -0.7999 H       
  24 H24            0.6205     2.7964     0.9743 H       
  25 H25            0.5632    -0.7491     2.0905 H       
  26 H26            1.5567    -1.5167     0.8339 H       
  27 H27            3.0574     0.1192     1.2391 H       
  28 H28            1.8768     1.0852     2.1509 H       
  29 H29            1.9396     1.4965    -1.9802 H       
  30 H30            3.4689     1.0251    -1.2144 H       
  31 H31            2.4633    -1.1472    -0.5429 H       
  32 H32            2.3397    -0.9117    -2.3135 H       
  33 H33           -0.9223     0.7608    -4.7840 H       
  34 H34           -0.3066    -3.4618    -4.5539 H       
  35 H35           -1.8302    -3.7844    -6.4599 H       
  36 H36           -2.4484     0.4311    -6.6868 H       
@<TRIPOS>BOND
   1    1    2 1
   2    1    3 1
   3    1   20 1
   4    1   21 1
   5    2    6 1
   6    2    5 1
   7    2   22 1
   8    3    4 1
   9    3   23 1
  10    3   24 1
  11    4   11 1
  12    4    7 1
  13    5   12 1
  14    5    8 am
  15    6    7 1
  16    6   25 1
  17    6   26 1
  18    7   27 1
  19    7   28 1
  20    8    9 1
  21    8   13 2
  22    9   10 1
  23   10   14 ar
  24   10   15 ar
  25   11   12 1
  26   11   29 1
  27   11   30 1
  28   12   31 1
  29   12   32 1
  30   14   18 ar
  31   14   33 1
  32   15   16 ar
  33   15   34 1
  34   16   17 ar
  35   16   35 1
  36   17   18 ar
  37   17   19 1
  38   18   36 1

#	End of record

