#	Name: ASD01911016
#	Creating user name:	WinNT
#	Creation time:	15. 06. 2019 19:56

#	Modifying user name:	WinNT
#	Modification time:	15. 06. 2019 19:56

#	Program:	/corina/corina34_cracker 3.40 0067  02.08.2006

@<TRIPOS>MOLECULE
ASD01911016
  56   59    0    0    0
SMALL
NO_CHARGES


@<TRIPOS>ATOM
   1 N1             0.1433     1.3733    -0.2010 N.3     
   2 C2             0.0815    -0.0924    -0.1242 C.3     
   3 C3            -1.3646    -0.5263     0.1382 C.3     
   4 N4            -2.2275     0.0796    -0.8872 N.am    
   5 C5            -2.1222     1.5283    -1.1179 C.3     
   6 C6            -0.6464     1.8814    -1.3308 C.3     
   7 C7            -3.0921    -0.6728    -1.5963 C.2     
   8 C8            -4.0356    -0.0291    -2.5319 C.ar    
   9 C9            -4.3103    -0.6236    -3.7675 C.ar    
  10 C10           -5.1900    -0.0272    -4.6447 C.ar    
  11 C11           -5.8098     1.1678    -4.3090 C.ar    
  12 C12           -5.5415     1.7747    -3.0709 C.ar    
  13 C13           -4.6572     1.1686    -2.1812 C.ar    
  14 C14           -6.1794     3.0083    -2.7219 C.1     
  15 O15           -3.0951    -1.8815    -1.4656 O.2     
  16 C16           -6.7023     4.0197    -2.4358 C.1     
  17 C17           -7.3402     5.2534    -2.0868 C.ar    
  18 N18           -7.0810     5.8217    -0.9129 N.ar    
  19 C19           -7.6477     6.9559    -0.5557 C.ar    
  20 C20           -8.5385     7.6004    -1.3940 C.ar    
  21 C21           -8.8386     7.0426    -2.6300 C.ar    
  22 C22           -8.2265     5.8547    -2.9849 C.ar    
  23 C23            1.4661     1.8153    -0.2760 C.ar    
  24 O24           -6.6743     1.7503    -5.1764 O.3     
  25 C25            1.7425     3.1741    -0.3559 C.ar    
  26 C26            3.0518     3.6078    -0.4294 C.ar    
  27 C27            4.0867     2.6909    -0.4239 C.ar    
  28 C28            3.8151     1.3371    -0.3444 C.ar    
  29 C29            2.5087     0.8970    -0.2649 C.ar    
  30 C30           -6.8997     1.0783    -6.4173 C.3     
  31 F31           -7.4181    -0.1972    -6.1694 F       
  32 F32           -7.8109     1.8109    -7.1855 F       
  33 F33           -5.6907     0.9634    -7.1117 F       
  34 C34            3.3526     5.0819    -0.5162 C.3     
  35 F35            3.4974     5.6050     0.7732 F       
  36 F36            4.5383     5.2744    -1.2334 F       
  37 F37            2.3015     5.7347    -1.1690 F       
  38 H38            0.4246    -0.5208    -1.0659 H       
  39 H39            0.7190    -0.4412     0.6883 H       
  40 H40           -1.4368    -1.6125     0.0824 H       
  41 H41           -1.6754    -0.1862     1.1260 H       
  42 H42           -2.6954     1.8006    -2.0041 H       
  43 H43           -2.5059     2.0660    -0.2508 H       
  44 H44           -0.5367     2.9640    -1.3934 H       
  45 H45           -0.2931     1.4255    -2.2557 H       
  46 H46           -3.8308    -1.5534    -4.0356 H       
  47 H47           -5.3976    -0.4917    -5.5973 H       
  48 H48           -4.4465     1.6298    -1.2276 H       
  49 H49           -7.4133     7.3885     0.4058 H       
  50 H50           -8.9975     8.5296    -1.0901 H       
  51 H51           -9.5315     7.5284    -3.3010 H       
  52 H52           -8.4367     5.3937    -3.9387 H       
  53 H53            0.9345     3.8907    -0.3610 H       
  54 H54            5.1096     3.0327    -0.4822 H       
  55 H55            4.6258     0.6236    -0.3407 H       
  56 H56            2.2972    -0.1602    -0.2024 H       
@<TRIPOS>BOND
   1    1    2 1
   2    1   23 1
   3    1    6 1
   4    2    3 1
   5    2   38 1
   6    2   39 1
   7    3    4 1
   8    3   40 1
   9    3   41 1
  10    4    5 1
  11    4    7 am
  12    5    6 1
  13    5   42 1
  14    5   43 1
  15    6   44 1
  16    6   45 1
  17    7    8 1
  18    7   15 2
  19    8    9 ar
  20    8   13 ar
  21    9   10 ar
  22    9   46 1
  23   10   11 ar
  24   10   47 1
  25   11   12 ar
  26   11   24 1
  27   12   13 ar
  28   12   14 1
  29   13   48 1
  30   14   16 3
  31   16   17 1
  32   17   18 ar
  33   17   22 ar
  34   18   19 ar
  35   19   20 ar
  36   19   49 1
  37   20   21 ar
  38   20   50 1
  39   21   22 ar
  40   21   51 1
  41   22   52 1
  42   23   25 ar
  43   23   29 ar
  44   24   30 1
  45   25   26 ar
  46   25   53 1
  47   26   27 ar
  48   26   34 1
  49   27   28 ar
  50   27   54 1
  51   28   29 ar
  52   28   55 1
  53   29   56 1
  54   30   31 1
  55   30   32 1
  56   30   33 1
  57   34   35 1
  58   34   36 1
  59   34   37 1

#	End of record

