#	Name: ASD03331354
#	Creating user name:	WinNT
#	Creation time:	15. 06. 2019 20:39

#	Modifying user name:	WinNT
#	Modification time:	15. 06. 2019 20:39

#	Program:	/corina/corina34_cracker 3.40 0067  02.08.2006

@<TRIPOS>MOLECULE
ASD03331354
  61   63    0    0    0
SMALL
NO_CHARGES


@<TRIPOS>ATOM
   1 C1             0.4144     1.4404     0.6236 C.3     
   2 C2             0.4098    -0.0106     0.2135 C.2     
   3 C3             1.5374    -0.7279    -0.0088 C.2     
   4 C4             2.9245    -0.1496     0.1256 C.3     
   5 C5             2.7969     1.3802     0.1412 C.3     
   6 N6             1.7638     1.7796     1.1068 N.3     
   7 N7            -0.2311    -2.0421    -0.3465 N.2     
   8 N8             1.1715    -1.9854    -0.3538 N.am    
   9 C9            -0.6904    -0.8548    -0.0057 C.2     
  10 C10            2.0055    -3.0015    -0.6512 C.2     
  11 O11            3.2078    -2.8287    -0.6228 O.2     
  12 N12            1.5058    -4.2092    -0.9801 N.am    
  13 C13           -2.1190    -0.4768     0.1236 C.ar    
  14 C14           -3.0024    -1.3054     0.8171 C.ar    
  15 C15           -4.3324    -0.9489     0.9354 C.ar    
  16 C16           -4.7890     0.2283     0.3668 C.ar    
  17 C17           -3.9145     1.0548    -0.3239 C.ar    
  18 C18           -2.5818     0.7095    -0.4419 C.ar    
  19 F19           -4.3655     2.2019    -0.8770 F       
  20 F20           -6.0900     0.5727     0.4845 F       
  21 F21           -2.5581    -2.4546     1.3715 F       
  22 C22            1.8651     3.2103     1.4245 C.3     
  23 C23            1.1617     3.4884     2.7544 C.3     
  24 O24            1.8287     2.7827     3.8028 O.3     
  25 C25            1.7023    -6.3029    -2.1913 C.2     
  26 C26            2.4123    -5.3137    -1.3034 C.3     
  27 C27            2.8495    -6.0092    -0.0126 C.3     
  28 C28            1.6128    -6.4439     0.7764 C.3     
  29 O29            0.4946    -6.4031    -2.1431 O.2     
  30 N30            2.4093    -7.0761    -3.0390 N.am    
  31 C31            1.7136    -7.9556    -3.9817 C.3     
  32 C32            3.6934    -7.2383    -0.3562 C.3     
  33 C33            3.6793    -5.0407     0.8326 C.3     
  34 H34            0.1631     2.0654    -0.2333 H       
  35 H35           -0.3120     1.5993     1.4206 H       
  36 H36            3.3783    -0.4915     1.0558 H       
  37 H37            3.5373    -0.4601    -0.7206 H       
  38 H38            3.7516     1.8211     0.4280 H       
  39 H39            2.5196     1.7313    -0.8528 H       
  40 H40            0.5459    -4.3471    -1.0028 H       
  41 H41           -5.0167    -1.5895     1.4719 H       
  42 H42           -1.9009     1.3558    -0.9759 H       
  43 H43            2.9153     3.4915     1.5032 H       
  44 H44            1.3913     3.7924     0.6341 H       
  45 H45            1.1878     4.5580     2.9625 H       
  46 H46            0.1256     3.1552     2.6941 H       
  47 H47            1.4357     2.9130     4.6767 H       
  48 H48            3.2889    -4.9245    -1.8213 H       
  49 H49            1.0216    -7.1338     0.1743 H       
  50 H50            1.9243    -6.9394     1.6960 H       
  51 H51            1.0116    -5.5683     1.0212 H       
  52 H52            3.3789    -7.0503    -3.0250 H       
  53 H53            1.0975    -8.6653    -3.4295 H       
  54 H54            1.0802    -7.3576    -4.6369 H       
  55 H55            2.4454    -8.4984    -4.5801 H       
  56 H56            4.5369    -6.9377    -0.9776 H       
  57 H57            4.0630    -7.6935     0.5626 H       
  58 H58            3.0814    -7.9592    -0.8982 H       
  59 H59            3.0781    -4.1651     1.0774 H       
  60 H60            3.9908    -5.5362     1.7522 H       
  61 H61            4.5603    -4.7310     0.2705 H       
@<TRIPOS>BOND
   1    1    2 1
   2    1    6 1
   3    1   34 1
   4    1   35 1
   5    2    3 2
   6    2    9 1
   7    3    4 1
   8    3    8 1
   9    4    5 1
  10    4   36 1
  11    4   37 1
  12    5    6 1
  13    5   38 1
  14    5   39 1
  15    6   22 1
  16    7    8 1
  17    7    9 2
  18    8   10 am
  19    9   13 1
  20   10   11 2
  21   10   12 am
  22   12   26 1
  23   12   40 1
  24   13   14 ar
  25   13   18 ar
  26   14   15 ar
  27   14   21 1
  28   15   16 ar
  29   15   41 1
  30   16   17 ar
  31   16   20 1
  32   17   18 ar
  33   17   19 1
  34   18   42 1
  35   22   23 1
  36   22   43 1
  37   22   44 1
  38   23   24 1
  39   23   45 1
  40   23   46 1
  41   24   47 1
  42   25   29 2
  43   25   30 am
  44   25   26 1
  45   26   27 1
  46   26   48 1
  47   27   28 1
  48   27   32 1
  49   27   33 1
  50   28   49 1
  51   28   50 1
  52   28   51 1
  53   30   31 1
  54   30   52 1
  55   31   53 1
  56   31   54 1
  57   31   55 1
  58   32   56 1
  59   32   57 1
  60   32   58 1
  61   33   59 1
  62   33   60 1
  63   33   61 1

#	End of record

