#	Name: ASD01120344
#	Creating user name:	WinNT
#	Creation time:	15. 06. 2019 18:59

#	Modifying user name:	WinNT
#	Modification time:	15. 06. 2019 18:59

#	Program:	/corina/corina34_cracker 3.40 0067  02.08.2006

@<TRIPOS>MOLECULE
ASD01120344
  33   34    0    0    0
SMALL
NO_CHARGES


@<TRIPOS>ATOM
   1 C1            -0.0187     1.5258     0.0104 C.3     
   2 C2             0.0021    -0.0041     0.0020 C.3     
   3 C3            -1.4333    -0.5336     0.0129 C.3     
   4 C4            -2.1001    -0.1511     1.3091 C.ar    
   5 C5            -2.7756     1.0309     1.3984 C.ar    
   6 C6            -3.3970     1.3892     2.6021 C.ar    
   7 C7            -4.1537     2.5146     3.0078 C.2     
   8 C8            -4.5111     2.3267     4.3060 C.2     
   9 N9            -4.0070     1.1168     4.7437 N.pl3   
  10 C10           -3.3188     0.5246     3.7115 C.ar    
  11 C11           -2.6239    -0.6763     3.5951 C.ar    
  12 C12           -2.0260    -1.0081     2.4003 C.ar    
  13 N13           -2.5325    -1.5960     4.7514 N.pl3   
  14 O14           -1.9242    -2.6461     4.6477 O.2     
  15 O15           -3.0655    -1.3026     5.8065 O.2     
  16 C16           -5.3061     3.2607     5.1143 C.2     
  17 O17           -5.7014     4.3020     4.6270 O.2     
  18 O18           -5.5975     2.9631     6.3968 O.3     
  19 C19            0.7182    -0.4975    -1.2568 C.3     
  20 H20            1.0039     1.9031     0.0027 H       
  21 H21           -0.5459     1.8868    -0.8726 H       
  22 H22           -0.5289     1.8773     0.9072 H       
  23 H23            0.5293    -0.3651     0.8851 H       
  24 H24           -1.9862    -0.1019    -0.8214 H       
  25 H25           -1.4207    -1.6194    -0.0826 H       
  26 H26           -2.8309     1.6888     0.5438 H       
  27 H27           -4.4021     3.3693     2.3961 H       
  28 H28           -4.1203     0.7462     5.6329 H       
  29 H29           -1.4875    -1.9402     2.3125 H       
  30 H30           -6.1233     3.6086     6.8887 H       
  31 H31            1.7408    -0.1202    -1.2645 H       
  32 H32            0.7330    -1.5874    -1.2628 H       
  33 H33            0.1910    -0.1364    -2.1398 H       
@<TRIPOS>BOND
   1    1    2 1
   2    1   20 1
   3    1   21 1
   4    1   22 1
   5    2    3 1
   6    2   19 1
   7    2   23 1
   8    3    4 1
   9    3   24 1
  10    3   25 1
  11    4    5 ar
  12    4   12 ar
  13    5    6 ar
  14    5   26 1
  15    6    7 1
  16    6   10 ar
  17    7    8 2
  18    7   27 1
  19    8    9 1
  20    8   16 1
  21    9   10 1
  22    9   28 1
  23   10   11 ar
  24   11   12 ar
  25   11   13 1
  26   12   29 1
  27   13   14 2
  28   13   15 2
  29   16   17 2
  30   16   18 1
  31   18   30 1
  32   19   31 1
  33   19   32 1
  34   19   33 1

#	End of record

