#	Name: ASD03330880
#	Creating user name:	WinNT
#	Creation time:	15. 06. 2019 20:38

#	Modifying user name:	WinNT
#	Modification time:	15. 06. 2019 20:38

#	Program:	/corina/corina34_cracker 3.40 0067  02.08.2006

@<TRIPOS>MOLECULE
ASD03330880
  64   66    0    0    0
SMALL
NO_CHARGES


@<TRIPOS>ATOM
   1 N1            -0.9916     1.9165    -2.2124 N.pl3   
   2 C2            -0.7715     0.6430    -1.7890 C.2     
   3 C3             0.5771     0.0289    -1.5179 C.3     
   4 N4             1.3740     0.9571    -0.7005 N.3     
   5 C5             2.1302     1.8880    -1.5403 C.3     
   6 C6             1.3549     2.2322    -2.8088 C.3     
   7 C7             0.0424     2.9297    -2.4410 C.3     
   8 C8            -2.3387     2.0682    -2.3683 C.2     
   9 N9            -2.9280     0.9427    -2.0382 N.2     
  10 C10           -1.9881     0.0430    -1.6730 C.2     
  11 C11           -2.2357    -1.3402    -1.2294 C.2     
  12 O12           -1.3019    -2.0579    -0.9261 O.2     
  13 N13           -3.4970    -1.8100    -1.1599 N.am    
  14 C14           -3.0208     3.2957    -2.8314 C.ar    
  15 C15           -4.0117     3.2192    -3.8140 C.ar    
  16 C16           -4.6461     4.3693    -4.2427 C.ar    
  17 C17           -4.3014     5.5963    -3.7007 C.ar    
  18 C18           -3.3177     5.6778    -2.7249 C.ar    
  19 C19           -2.6816     4.5338    -2.2848 C.ar    
  20 F20           -2.9856     6.8780    -2.2010 F       
  21 F21           -4.9245     6.7179    -4.1236 F       
  22 F22           -4.3482     2.0230    -4.3441 F       
  23 C23            2.2656     0.2251     0.2089 C.3     
  24 C24           -5.0551    -3.6665    -1.2832 C.2     
  25 C25           -3.7432    -3.1852    -0.7188 C.3     
  26 C26           -3.7989    -3.2284     0.8095 C.3     
  27 C27           -4.8508    -2.2363     1.3097 C.3     
  28 O28           -6.0690    -3.0302    -1.0881 O.2     
  29 C29           -4.1714    -4.6402     1.2666 C.3     
  30 C30           -2.4304    -2.8519     1.3806 C.3     
  31 N31           -5.1015    -4.8039    -2.0046 N.am    
  32 C32           -6.3924    -5.3434    -2.4393 C.3     
  33 O33           -3.9027    -5.4776    -2.3424 O.3     
  34 C34           -3.5683    -6.5482    -1.4571 C.3     
  35 H35            0.4483    -0.9109    -0.9810 H       
  36 H36            1.0892    -0.1569    -2.4620 H       
  37 H37            2.3219     2.8022    -0.9785 H       
  38 H38            3.0811     1.4312    -1.8146 H       
  39 H39            1.9553     2.8950    -3.4318 H       
  40 H40            1.1370     1.3173    -3.3598 H       
  41 H41           -0.2632     3.5847    -3.2569 H       
  42 H42            0.1838     3.5173    -1.5339 H       
  43 H43           -4.2418    -1.2376    -1.4018 H       
  44 H44           -5.4120     4.3115    -5.0020 H       
  45 H45           -1.9195     4.5980    -1.5222 H       
  46 H46            2.8963    -0.4518    -0.3674 H       
  47 H47            2.8927     0.9330     0.7508 H       
  48 H48            1.6695    -0.3491     0.9181 H       
  49 H49           -2.9378    -3.8295    -1.0714 H       
  50 H50           -5.8258    -2.5045     0.9029 H       
  51 H51           -4.8905    -2.2671     2.3986 H       
  52 H52           -4.5855    -1.2305     0.9841 H       
  53 H53           -3.3436    -5.3189     1.0610 H       
  54 H54           -4.3781    -4.6330     2.3368 H       
  55 H55           -5.0578    -4.9746     0.7276 H       
  56 H56           -2.1650    -1.8460     1.0550 H       
  57 H57           -2.4701    -2.8826     2.4695 H       
  58 H58           -1.6810    -3.5586     1.0243 H       
  59 H59           -6.6493    -4.9297    -3.4144 H       
  60 H60           -6.3268    -6.4291    -2.5110 H       
  61 H61           -7.1614    -5.0729    -1.7158 H       
  62 H62           -3.5109    -6.1710    -0.4361 H       
  63 H63           -4.3344    -7.3213    -1.5162 H       
  64 H64           -2.6045    -6.9691    -1.7436 H       
@<TRIPOS>BOND
   1    1    2 1
   2    1    7 1
   3    1    8 1
   4    2    3 1
   5    2   10 2
   6    3    4 1
   7    3   35 1
   8    3   36 1
   9    4    5 1
  10    4   23 1
  11    5    6 1
  12    5   37 1
  13    5   38 1
  14    6    7 1
  15    6   39 1
  16    6   40 1
  17    7   41 1
  18    7   42 1
  19    8    9 2
  20    8   14 1
  21    9   10 1
  22   10   11 1
  23   11   12 2
  24   11   13 am
  25   13   25 1
  26   13   43 1
  27   14   15 ar
  28   14   19 ar
  29   15   16 ar
  30   15   22 1
  31   16   17 ar
  32   16   44 1
  33   17   18 ar
  34   17   21 1
  35   18   19 ar
  36   18   20 1
  37   19   45 1
  38   23   46 1
  39   23   47 1
  40   23   48 1
  41   24   28 2
  42   24   31 am
  43   24   25 1
  44   25   26 1
  45   25   49 1
  46   26   27 1
  47   26   29 1
  48   26   30 1
  49   27   50 1
  50   27   51 1
  51   27   52 1
  52   29   53 1
  53   29   54 1
  54   29   55 1
  55   30   56 1
  56   30   57 1
  57   30   58 1
  58   31   32 1
  59   31   33 1
  60   32   59 1
  61   32   60 1
  62   32   61 1
  63   33   34 1
  64   34   62 1
  65   34   63 1
  66   34   64 1

#	End of record

