#	Name: ASD03330141
#	Creating user name:	WinNT
#	Creation time:	15. 06. 2019 20:36

#	Modifying user name:	WinNT
#	Modification time:	15. 06. 2019 20:36

#	Program:	/corina/corina34_cracker 3.40 0067  02.08.2006

@<TRIPOS>MOLECULE
ASD03330141
  55   57    0    0    0
SMALL
NO_CHARGES


@<TRIPOS>ATOM
   1 C1            -0.0866     1.1745     0.6093 C.ar    
   2 C2            -0.0746    -0.2936     0.4305 C.2     
   3 N3            -1.1627    -1.1099     0.4866 N.pl3   
   4 C4            -0.7283    -2.3835     0.2727 C.2     
   5 C5             0.6157    -2.3242     0.0882 C.2     
   6 N6             0.9870    -1.0275     0.1854 N.2     
   7 C7             1.5082    -3.4666    -0.1761 C.2     
   8 N8             2.8305    -3.2647    -0.3404 N.am    
   9 C9             0.5962     1.9964    -0.2906 C.ar    
  10 O10            1.0514    -4.5916    -0.2459 O.2     
  11 C11            3.7178    -4.4005    -0.6031 C.3     
  12 C12            3.7268    -4.7044    -2.1026 C.3     
  13 C13            5.1149    -4.0616    -0.1508 C.2     
  14 C14            4.1151    -3.4429    -2.8764 C.3     
  15 C15            0.5806     3.3681    -0.1181 C.ar    
  16 C16           -0.1084     3.9265     0.9424 C.ar    
  17 C17           -0.7878     3.1165     1.8387 C.ar    
  18 C18           -0.7848     1.7449     1.6742 C.ar    
  19 O19            5.4850    -2.9067    -0.1387 O.2     
  20 N20            5.9530    -5.0420     0.2402 N.am    
  21 C21            7.2708    -4.7054     0.7845 C.3     
  22 C22            4.7411    -5.8127    -2.3922 C.3     
  23 C23           -2.5600    -0.7412     0.7269 C.3     
  24 C24           -3.4589    -1.8979     0.2763 C.3     
  25 C25           -2.9635    -3.2073     0.8969 C.3     
  26 C26           -1.6237    -3.5958     0.2571 C.3     
  27 C27            2.3334    -5.1616    -2.5387 C.3     
  28 F28           -1.4583     3.6699     2.8727 F       
  29 F29            1.2707     1.4521    -1.3269 F       
  30 H30            3.1948    -2.3674    -0.2847 H       
  31 H31            3.3611    -5.2740    -0.0575 H       
  32 H32            5.1078    -3.1172    -2.5657 H       
  33 H33            4.1215    -3.6594    -3.9446 H       
  34 H34            3.3925    -2.6533    -2.6700 H       
  35 H35            1.1080     4.0046    -0.8131 H       
  36 H36           -0.1169     4.9985     1.0732 H       
  37 H37           -1.3146     1.1148     2.3733 H       
  38 H38            5.6836    -5.9705     0.1612 H       
  39 H39            7.8018    -5.6214     1.0433 H       
  40 H40            7.8418    -4.1529     0.0382 H       
  41 H41            7.1493    -4.0913     1.6768 H       
  42 H42            4.4339    -6.7277    -1.8857 H       
  43 H43            4.7882    -5.9904    -3.4666 H       
  44 H44            5.7237    -5.5096    -2.0307 H       
  45 H45           -2.7109    -0.5537     1.7900 H       
  46 H46           -2.8047     0.1552     0.1570 H       
  47 H47           -4.4828    -1.7084     0.5984 H       
  48 H48           -3.4299    -1.9778    -0.8104 H       
  49 H49           -2.8288    -3.0733     1.9702 H       
  50 H50           -3.6950    -3.9951     0.7168 H       
  51 H51           -1.7867    -3.9195    -0.7709 H       
  52 H52           -1.1628    -4.4015     0.8286 H       
  53 H53            1.6108    -4.3720    -2.3323 H       
  54 H54            2.3398    -5.3781    -3.6069 H       
  55 H55            2.0568    -6.0603    -1.9874 H       
@<TRIPOS>BOND
   1    1    2 1
   2    1    9 ar
   3    1   18 ar
   4    2    3 1
   5    2    6 2
   6    3    4 1
   7    3   23 1
   8    4    5 2
   9    4   26 1
  10    5    6 1
  11    5    7 1
  12    7    8 am
  13    7   10 2
  14    8   11 1
  15    8   30 1
  16    9   15 ar
  17    9   29 1
  18   11   12 1
  19   11   13 1
  20   11   31 1
  21   12   14 1
  22   12   22 1
  23   12   27 1
  24   13   19 2
  25   13   20 am
  26   14   32 1
  27   14   33 1
  28   14   34 1
  29   15   16 ar
  30   15   35 1
  31   16   17 ar
  32   16   36 1
  33   17   18 ar
  34   17   28 1
  35   18   37 1
  36   20   21 1
  37   20   38 1
  38   21   39 1
  39   21   40 1
  40   21   41 1
  41   22   42 1
  42   22   43 1
  43   22   44 1
  44   23   24 1
  45   23   45 1
  46   23   46 1
  47   24   25 1
  48   24   47 1
  49   24   48 1
  50   25   26 1
  51   25   49 1
  52   25   50 1
  53   26   51 1
  54   26   52 1
  55   27   53 1
  56   27   54 1
  57   27   55 1

#	End of record

