#	Name: ASD02198088
#	Creating user name:	WinNT
#	Creation time:	15. 06. 2019 20:18

#	Modifying user name:	WinNT
#	Modification time:	15. 06. 2019 20:18

#	Program:	/corina/corina34_cracker 3.40 0067  02.08.2006

@<TRIPOS>MOLECULE
ASD02198088
  53   56    0    0    0
SMALL
NO_CHARGES


@<TRIPOS>ATOM
   1 C1            -0.0166     1.3753     0.0162 C.2     
   2 C2             0.0020    -0.0040     0.0001 C.2     
   3 C3            -1.1879    -0.8007     0.0043 C.1     
   4 S4             1.5676     2.0054     0.0051 S.3     
   5 C5             2.2771     0.3990    -0.0217 C.2     
   6 C6             1.2823    -0.5519    -0.0212 C.2     
   7 C7             3.6578     0.1250    -0.0414 C.2     
   8 C8             4.6307     1.2352    -0.0398 C.2     
   9 O9             4.0503    -1.0299    -0.0597 O.2     
  10 N10            1.5292    -1.9152    -0.0402 N.pl3   
  11 N11           -1.1591     2.1392     0.0331 N.pl3   
  12 N12           -2.1318    -1.4327     0.0076 N.1     
  13 O13            4.3523     2.5520    -0.0205 O.3     
  14 N14            5.3580     3.2225    -0.0246 N.2     
  15 C15            6.4373     2.4803    -0.0468 C.2     
  16 C16            5.9934     1.1303    -0.0518 C.2     
  17 C17            7.8434     2.9548    -0.0587 C.ar    
  18 C18            8.8904     2.0402     0.0304 C.ar    
  19 C19           10.1964     2.4861     0.0190 C.ar    
  20 C20           10.4677     3.8400    -0.0807 C.ar    
  21 C21            9.4316     4.7538    -0.1690 C.ar    
  22 C22            8.1213     4.3174    -0.1648 C.ar    
  23 C23           -1.0628     3.6010     0.0494 C.3     
  24 C24           -3.6828     6.2813     0.3369 C.3     
  25 N25           -2.3720     5.6703     0.0826 N.3     
  26 C26           -2.4686     4.2046     0.0662 C.3     
  27 C27           -3.5202     7.7951     0.4915 C.3     
  28 C28           -2.9074     8.3710    -0.7881 C.3     
  29 C29           -1.5658     7.6836    -1.0564 C.3     
  30 C30           -1.7851     6.1730    -1.1661 C.3     
  31 Cl31           6.8223     5.4638    -0.2756 Cl      
  32 Cl32          12.1129     4.3939    -0.0944 Cl      
  33 H33            2.4421    -2.2426    -0.0549 H       
  34 H34            0.7890    -2.5422    -0.0388 H       
  35 H35           -2.0293     1.7105     0.0342 H       
  36 H36            6.5925     0.2319    -0.0682 H       
  37 H37            8.6804     0.9837     0.1086 H       
  38 H38           11.0084     1.7775     0.0884 H       
  39 H39            9.6483     5.8090    -0.2463 H       
  40 H40           -0.5200     3.9194     0.9394 H       
  41 H41           -0.5324     3.9401    -0.8404 H       
  42 H42           -4.3498     6.0712    -0.4992 H       
  43 H43           -4.1057     5.8662     1.2517 H       
  44 H44           -3.0114     3.8862    -0.8238 H       
  45 H45           -2.9990     3.8655     0.9560 H       
  46 H46           -4.4954     8.2501     0.6647 H       
  47 H47           -2.8643     8.0063     1.3361 H       
  48 H48           -3.5813     8.1942    -1.6263 H       
  49 H49           -2.7496     9.4426    -0.6661 H       
  50 H50           -1.1446     8.0589    -1.9891 H       
  51 H51           -0.8791     7.8930    -0.2362 H       
  52 H52           -0.8296     5.6792    -1.3430 H       
  53 H53           -2.4609     5.9634    -1.9952 H       
@<TRIPOS>BOND
   1    1    2 2
   2    1    4 1
   3    1   11 1
   4    2    3 1
   5    2    6 1
   6    3   12 3
   7    4    5 1
   8    5    6 2
   9    5    7 1
  10    6   10 1
  11    7    8 1
  12    7    9 2
  13    8   13 1
  14    8   16 2
  15   10   33 1
  16   10   34 1
  17   11   23 1
  18   11   35 1
  19   13   14 1
  20   14   15 2
  21   15   16 1
  22   15   17 1
  23   16   36 1
  24   17   18 ar
  25   17   22 ar
  26   18   19 ar
  27   18   37 1
  28   19   20 ar
  29   19   38 1
  30   20   21 ar
  31   20   32 1
  32   21   22 ar
  33   21   39 1
  34   22   31 1
  35   23   26 1
  36   23   40 1
  37   23   41 1
  38   24   25 1
  39   24   27 1
  40   24   42 1
  41   24   43 1
  42   25   26 1
  43   25   30 1
  44   26   44 1
  45   26   45 1
  46   27   28 1
  47   27   46 1
  48   27   47 1
  49   28   29 1
  50   28   48 1
  51   28   49 1
  52   29   30 1
  53   29   50 1
  54   29   51 1
  55   30   52 1
  56   30   53 1

#	End of record

