#	Name: ASD03331038
#	Creating user name:	WinNT
#	Creation time:	15. 06. 2019 20:38

#	Modifying user name:	WinNT
#	Modification time:	15. 06. 2019 20:38

#	Program:	/corina/corina34_cracker 3.40 0067  02.08.2006

@<TRIPOS>MOLECULE
ASD03331038
  71   74    0    0    0
SMALL
NO_CHARGES


@<TRIPOS>ATOM
   1 N1            -0.3199     1.4398    -0.3047 N.pl3   
   2 C2            -0.2212     0.0866    -0.2169 C.2     
   3 C3             1.0624    -0.6951    -0.1145 C.3     
   4 N4             1.9224    -0.0782     0.9074 N.3     
   5 C5             2.7738     0.9617     0.3266 C.3     
   6 C6             2.0563     1.6823    -0.8112 C.3     
   7 C7             0.8037     2.3804    -0.2745 C.3     
   8 C8            -1.6450     1.7468    -0.4122 C.2     
   9 N9            -2.3376     0.6326    -0.3742 N.2     
  10 C10           -1.4883    -0.4110    -0.2512 C.2     
  11 C11           -1.8656    -1.8331    -0.1694 C.2     
  12 O12           -1.0049    -2.6853    -0.0601 O.2     
  13 N13           -3.1646    -2.1893    -0.2157 N.am    
  14 C14            2.7284    -1.0928     1.5995 C.3     
  15 C15           -4.8780    -3.8067    -0.7968 C.2     
  16 C16           -3.5398    -3.6031    -0.1343 C.3     
  17 C17           -3.6284    -4.0236     1.3341 C.3     
  18 C18           -4.1439    -5.4614     1.4227 C.3     
  19 O19           -5.7337    -2.9516    -0.7103 O.2     
  20 C20           -2.2410    -3.9390     1.9734 C.3     
  21 C21           -4.5889    -3.0909     2.0746 C.3     
  22 N22           -5.1238    -4.9389    -1.4852 N.am    
  23 C23           -6.4122    -5.3136    -2.0864 C.3     
  24 C24           -6.2253    -6.6964    -2.7456 C.3     
  25 C25           -4.9997    -7.2777    -1.9923 C.3     
  26 C26           -4.1438    -6.0039    -1.7657 C.3     
  27 C27           -6.8123    -4.2828    -3.1439 C.3     
  28 O28           -5.8737    -4.3165    -4.2210 O.3     
  29 C29           -2.2072     3.1080    -0.5483 C.ar    
  30 C30           -3.1786     3.3725    -1.5175 C.ar    
  31 C31           -3.6998     4.6469    -1.6387 C.ar    
  32 C32           -3.2618     5.6582    -0.8033 C.ar    
  33 C33           -2.2993     5.4021     0.1585 C.ar    
  34 C34           -1.7744     4.1321     0.2940 C.ar    
  35 F35           -3.6068     2.3852    -2.3343 F       
  36 Cl36          -1.7558     6.6794     1.2011 Cl      
  37 H37            0.8408    -1.7241     0.1685 H       
  38 H38            1.5741    -0.6830    -1.0769 H       
  39 H39            3.0348     1.6842     1.0999 H       
  40 H40            3.6857     0.5047    -0.0576 H       
  41 H41            2.7246     2.4235    -1.2493 H       
  42 H42            1.7690     0.9588    -1.5742 H       
  43 H43            0.5727     3.2443    -0.8977 H       
  44 H44            0.9791     2.7058     0.7509 H       
  45 H45           -3.8512    -1.5096    -0.3028 H       
  46 H46            3.3077    -1.6571     0.8687 H       
  47 H47            3.4051    -0.6034     2.3000 H       
  48 H48            2.0704    -1.7706     2.1433 H       
  49 H49           -2.7879    -4.2083    -0.6408 H       
  50 H50           -3.4190    -6.1360     0.9671 H       
  51 H51           -4.2853    -5.7329     2.4688 H       
  52 H52           -5.0946    -5.5397     0.8953 H       
  53 H53           -1.8737    -2.9146     1.9103 H       
  54 H54           -2.3041    -4.2385     3.0196 H       
  55 H55           -1.5567    -4.6034     1.4459 H       
  56 H56           -5.5774    -3.1512     1.6191 H       
  57 H57           -4.6521    -3.3904     3.1207 H       
  58 H58           -4.2217    -2.0666     2.0115 H       
  59 H59           -7.1788    -5.3718    -1.3138 H       
  60 H60           -7.1054    -7.3202    -2.5894 H       
  61 H61           -6.0099    -6.5908    -3.8089 H       
  62 H62           -5.2997    -7.7246    -1.0445 H       
  63 H63           -4.4668    -7.9994    -2.6114 H       
  64 H64           -3.5701    -5.7653    -2.6613 H       
  65 H65           -3.4784    -6.1412    -0.9134 H       
  66 H66           -7.8074    -4.5174    -3.5217 H       
  67 H67           -6.8180    -3.2883    -2.6980 H       
  68 H68           -6.0655    -3.6872    -4.9297 H       
  69 H69           -4.4503     4.8533    -2.3874 H       
  70 H70           -3.6721     6.6524    -0.9019 H       
  71 H71           -1.0272     3.9330     1.0480 H       
@<TRIPOS>BOND
   1    1    2 1
   2    1    7 1
   3    1    8 1
   4    2    3 1
   5    2   10 2
   6    3    4 1
   7    3   37 1
   8    3   38 1
   9    4    5 1
  10    4   14 1
  11    5    6 1
  12    5   39 1
  13    5   40 1
  14    6    7 1
  15    6   41 1
  16    6   42 1
  17    7   43 1
  18    7   44 1
  19    8    9 2
  20    8   29 1
  21    9   10 1
  22   10   11 1
  23   11   12 2
  24   11   13 am
  25   13   16 1
  26   13   45 1
  27   14   46 1
  28   14   47 1
  29   14   48 1
  30   15   19 2
  31   15   22 am
  32   15   16 1
  33   16   17 1
  34   16   49 1
  35   17   18 1
  36   17   20 1
  37   17   21 1
  38   18   50 1
  39   18   51 1
  40   18   52 1
  41   20   53 1
  42   20   54 1
  43   20   55 1
  44   21   56 1
  45   21   57 1
  46   21   58 1
  47   22   23 1
  48   22   26 1
  49   23   24 1
  50   23   27 1
  51   23   59 1
  52   24   25 1
  53   24   60 1
  54   24   61 1
  55   25   26 1
  56   25   62 1
  57   25   63 1
  58   26   64 1
  59   26   65 1
  60   27   28 1
  61   27   66 1
  62   27   67 1
  63   28   68 1
  64   29   30 ar
  65   29   34 ar
  66   30   31 ar
  67   30   35 1
  68   31   32 ar
  69   31   69 1
  70   32   33 ar
  71   32   70 1
  72   33   34 ar
  73   33   36 1
  74   34   71 1

#	End of record

