#	Name: ASD08170197
#	Creating user name:	WinNT
#	Creation time:	15. 06. 2019 21:17

#	Modifying user name:	WinNT
#	Modification time:	15. 06. 2019 21:17

#	Program:	/corina/corina34_cracker 3.40 0067  02.08.2006

@<TRIPOS>MOLECULE
ASD08170197
  41   42    0    0    0
SMALL
NO_CHARGES


@<TRIPOS>ATOM
   1 N1            -0.0150     1.2583     0.0090 N.2     
   2 N2             0.0021    -0.0041     0.0020 N.2     
   3 C3             1.1271     1.8769     0.0014 C.2     
   4 S4             2.3826     0.7116    -0.0169 S.3     
   5 C5             1.1681    -0.5677    -0.0121 C.2     
   6 C6             1.4387    -2.0502    -0.0227 C.3     
   7 C7             1.5165    -2.5442    -1.4687 C.3     
   8 C8             1.8690    -4.5432    -2.9254 C.3     
   9 C9             2.1437    -6.0483    -2.9361 C.3     
  10 C10            2.2203    -6.5349    -4.3603 C.2     
  11 N11            3.2881    -6.5941    -5.0910 N.2     
  12 S12            0.8732    -7.1331    -5.3293 S.3     
  13 C13            1.9513    -7.3871    -6.6362 C.2     
  14 N14            3.1450    -7.0336    -6.2658 N.2     
  15 N15            1.6063    -7.8924    -7.8851 N.am    
  16 C16            2.5508    -8.0460    -8.8342 C.2     
  17 O17            3.7016    -7.7434    -8.5991 O.2     
  18 C18            2.1771    -8.5935   -10.1875 C.3     
  19 N19            1.3017     3.2566     0.0067 N.am    
  20 C20            0.2284     4.0717     0.0214 C.2     
  21 O21           -0.8897     3.6019     0.0299 O.2     
  22 C22            1.7912    -4.0493    -1.4794 C.3     
  23 F23           -0.8323     6.1949     0.0426 F       
  24 F24            1.1416     5.9408     1.1643 F       
  25 C25            0.4176     5.5667     0.0272 C.3     
  26 F26            1.1192     5.9524    -1.1201 F       
  27 F27            3.3176    -8.6598   -10.9950 F       
  28 F28            1.6359    -9.8750   -10.0388 F       
  29 F29            1.2308    -7.7542   -10.7851 F       
  30 H30            2.3843    -2.2506     0.4811 H       
  31 H31            0.6334    -2.5702     0.4961 H       
  32 H32            0.5709    -2.3438    -1.9724 H       
  33 H33            2.3218    -2.0242    -1.9874 H       
  34 H34            2.6743    -4.0232    -3.4441 H       
  35 H35            0.9234    -4.3429    -3.4291 H       
  36 H36            3.0893    -6.2487    -2.4323 H       
  37 H37            1.3383    -6.5683    -2.4173 H       
  38 H38            0.6860    -8.1344    -8.0731 H       
  39 H39            2.1959     3.6323    -0.0001 H       
  40 H40            2.7368    -4.2496    -0.9756 H       
  41 H41            0.9858    -4.5693    -0.9606 H       
@<TRIPOS>BOND
   1    1    2 1
   2    1    3 2
   3    2    5 2
   4    3    4 1
   5    3   19 1
   6    4    5 1
   7    5    6 1
   8    6    7 1
   9    6   30 1
  10    6   31 1
  11    7   22 1
  12    7   32 1
  13    7   33 1
  14    8    9 1
  15    8   22 1
  16    8   34 1
  17    8   35 1
  18    9   10 1
  19    9   36 1
  20    9   37 1
  21   10   11 2
  22   10   12 1
  23   11   14 1
  24   12   13 1
  25   13   14 2
  26   13   15 1
  27   15   16 am
  28   15   38 1
  29   16   17 2
  30   16   18 1
  31   18   27 1
  32   18   28 1
  33   18   29 1
  34   19   20 am
  35   19   39 1
  36   20   21 2
  37   20   25 1
  38   22   40 1
  39   22   41 1
  40   23   25 1
  41   24   25 1
  42   25   26 1

#	End of record

