#	Name: ASD01000061
#	Creating user name:	WinNT
#	Creation time:	15. 06. 2019 18:54

#	Modifying user name:	WinNT
#	Modification time:	15. 06. 2019 18:54

#	Program:	/corina/corina34_cracker 3.40 0067  02.08.2006

@<TRIPOS>MOLECULE
ASD01000061
  47   49    0    0    0
SMALL
NO_CHARGES


@<TRIPOS>ATOM
   1 N1            -0.0269     1.4718     0.0153 N.3     
   2 C2            -0.0108     0.0029     0.0059 C.3     
   3 C3            -0.6879     0.6894     7.8258 C.ar    
   4 C4             4.7867     1.1011     3.5198 C.ar    
   5 C5             1.1887    -4.8543     4.0351 C.ar    
   6 C6            -1.5394     0.4003     6.7760 C.ar    
   7 C7             0.6790     0.5657     7.6613 C.ar    
   8 C8             4.5860    -0.2507     3.3114 C.ar    
   9 C9             3.7315     1.9045     3.9097 C.ar    
  10 C10            1.9688    -4.1177     4.9067 C.ar    
  11 C11            0.3180    -4.2116     3.1751 C.ar    
  12 C12           -1.0241    -0.0143     5.5621 C.ar    
  13 C13            1.1943     0.1507     6.4476 C.ar    
  14 C14            3.3297    -0.7987     3.4913 C.ar    
  15 C15            2.4751     1.3565     4.0891 C.ar    
  16 C16            1.8770    -2.7385     4.9195 C.ar    
  17 C17            0.2258    -2.8324     3.1881 C.ar    
  18 C18            0.3427    -0.1393     5.3980 C.ar    
  19 C19            2.2742     0.0050     3.8799 C.ar    
  20 C20            1.0053    -2.0958     4.0604 C.ar    
  21 C21            0.9045    -0.5923     4.0750 C.3     
  22 C22            0.6886    -0.4839    -1.2371 C.2     
  23 O23            1.4312     0.2538    -1.8406 O.2     
  24 C24            0.7327    -0.5069     1.2422 C.3     
  25 S25           -0.1896    -0.0466     2.7349 S.3     
  26 O26            0.4866    -1.7370    -1.6737 O.3     
  27 H27            0.9110     1.8437     0.0050 H       
  28 H28           -0.5673     1.8324    -0.7567 H       
  29 H29           -1.0343    -0.3718     0.0172 H       
  30 H30           -1.0903     1.0176     8.7728 H       
  31 H31            5.7691     1.5284     3.3836 H       
  32 H32            1.2636    -5.9317     4.0221 H       
  33 H33           -2.6074     0.4966     6.9047 H       
  34 H34            1.3443     0.7919     8.4814 H       
  35 H35            5.4103    -0.8783     3.0064 H       
  36 H36            3.8884     2.9605     4.0728 H       
  37 H37            2.6488    -4.6199     5.5790 H       
  38 H38           -0.2913    -4.7871     2.4939 H       
  39 H39           -1.6894    -0.2409     4.7421 H       
  40 H40            2.2622     0.0533     6.3192 H       
  41 H41            3.1728    -1.8546     3.3278 H       
  42 H42            1.6506     1.9843     4.3931 H       
  43 H43            2.4860    -2.1630     5.6009 H       
  44 H44           -0.4549    -2.3303     2.5167 H       
  45 H45            0.8222    -1.5920     1.1906 H       
  46 H46            1.7269    -0.0616     1.2776 H       
  47 H47            0.9571    -2.0038    -2.4752 H       
@<TRIPOS>BOND
   1    1    2 1
   2    1   27 1
   3    1   28 1
   4    2   22 1
   5    2   24 1
   6    2   29 1
   7    3    6 ar
   8    3    7 ar
   9    3   30 1
  10    4    8 ar
  11    4    9 ar
  12    4   31 1
  13    5   10 ar
  14    5   11 ar
  15    5   32 1
  16    6   12 ar
  17    6   33 1
  18    7   13 ar
  19    7   34 1
  20    8   14 ar
  21    8   35 1
  22    9   15 ar
  23    9   36 1
  24   10   16 ar
  25   10   37 1
  26   11   17 ar
  27   11   38 1
  28   12   18 ar
  29   12   39 1
  30   13   18 ar
  31   13   40 1
  32   14   19 ar
  33   14   41 1
  34   15   19 ar
  35   15   42 1
  36   16   20 ar
  37   16   43 1
  38   17   20 ar
  39   17   44 1
  40   18   21 1
  41   19   21 1
  42   20   21 1
  43   21   25 1
  44   22   23 2
  45   22   26 1
  46   24   25 1
  47   24   45 1
  48   24   46 1
  49   26   47 1

#	End of record

