#	Name: ASD01140212
#	Creating user name:	WinNT
#	Creation time:	15. 06. 2019 19:00

#	Modifying user name:	WinNT
#	Modification time:	15. 06. 2019 19:00

#	Program:	/corina/corina34_cracker 3.40 0067  02.08.2006

@<TRIPOS>MOLECULE
ASD01140212
 967  977    0    0    0
SMALL
NO_CHARGES


@<TRIPOS>ATOM
   1 C1             3.8498    31.6611    21.5352 C.3     
   2 C2            72.2391    14.4728   -15.5762 C.3     
   3 C3             1.8642    28.7729    20.2973 C.3     
   4 C4             2.1668    29.9473    21.2302 C.3     
   5 C5             0.8829    30.6544    21.5804 C.2     
   6 N6             3.0749    30.8857    20.5573 N.3     
   7 O7             0.5205    31.6112    20.9292 O.2     
   8 C8             3.1362    27.9498    20.0844 C.3     
   9 C9             3.5564    27.3087    21.4085 C.3     
  10 C10            2.8680    26.8549    19.0500 C.3     
  11 C11           -0.8045    32.1050    23.8640 C.3     
  12 C12           -1.1107    30.9110    22.9576 C.3     
  13 C13           -2.0296    29.9571    23.6767 C.2     
  14 N14            0.1374    30.2235    22.6172 N.am    
  15 O15           -1.6766    28.8156    23.8843 O.2     
  16 O16           -0.1723    31.6452    25.0602 O.3     
  17 C17            0.1283    33.0734    23.1339 C.3     
  18 C18           -3.7958    29.4356    26.2795 C.3     
  19 C19           -4.1368    29.4455    24.7880 C.3     
  20 C20           -5.5653    29.8879    24.6022 C.2     
  21 N21           -3.2435    30.3727    24.0890 N.am    
  22 O22           -5.8129    30.8801    23.9501 O.2     
  23 S23           -2.0762    28.9031    26.5031 S.3     
  24 C24           -8.4954    29.0543    23.6608 C.3     
  25 C25           -7.9565    29.6111    24.9801 C.3     
  26 C26           -8.7944    29.0964    26.1221 C.2     
  27 N27           -6.5678    29.1810    25.1607 N.am    
  28 O28           -8.2819    28.4354    27.0004 O.2     
  29 C29           -7.7247    29.6737    22.4932 C.3     
  30 C30           -8.2636    29.1169    21.1739 C.3     
  31 C31           -7.4929    29.7363    20.0062 C.3     
  32 N32           -8.0103    29.2017    18.7396 N.3     
  33 C33          -11.3844    27.4424    26.9719 C.3     
  34 C34          -10.9276    28.8703    27.2776 C.3     
  35 C35          -12.1336    29.7564    27.4550 C.2     
  36 N36          -10.1131    29.3707    26.1674 N.am    
  37 O37          -12.4096    30.5813    26.6099 O.2     
  38 O38          -12.2078    27.4454    25.8040 O.3     
  39 C39          -10.1608    26.5561    26.7310 C.3     
  40 C40          -15.2797    29.6821    27.9678 C.3     
  41 C41          -14.1377    30.4152    28.6744 C.3     
  42 C42          -14.4793    30.5912    30.1316 C.2     
  43 N43          -12.9055    29.6321    28.5528 N.am    
  44 O44          -13.7639    30.1099    30.9846 O.2     
  45 S45          -14.8685    29.4703    26.2138 S.3     
  46 C46          -16.4664    30.0739    32.4079 C.2     
  47 N47          -15.5797    31.2835    30.4870 N.am    
  48 C48          -16.0972    31.4265    31.8557 C.3     
  49 C49          -17.3512    32.3227    31.7800 C.3     
  50 C50          -17.1450    33.0975    30.4516 C.3     
  51 C51          -16.4603    32.0280    29.5684 C.3     
  52 O52          -16.4736    29.1033    31.6807 O.2     
  53 C53          -17.2533    28.6516    34.2232 C.3     
  54 C54          -18.5361    28.8476    34.9894 C.2     
  55 N55          -16.7888    29.9427    33.7100 N.am    
  56 O56          -19.0151    29.9567    35.0962 O.2     
  57 C57          -13.9118    28.6917    34.3308 C.ar    
  58 C58          -12.7648    28.4247    33.6070 C.ar    
  59 C59          -12.6461    27.2345    32.9139 C.ar    
  60 C60          -13.6743    26.3111    32.9451 C.ar    
  61 C61          -14.8216    26.5783    33.6685 C.ar    
  62 C62          -14.9402    27.7685    34.3615 C.ar    
  63 C63          -16.1905    28.0593    35.1509 C.3     
  64 C64          -20.0753    28.3795    37.7422 C.3     
  65 C65          -20.3980    27.9811    36.3006 C.3     
  66 C66          -21.1856    26.6962    36.2989 C.2     
  67 N67          -19.1510    27.7905    35.5558 N.am    
  68 O68          -20.6480    25.6559    35.9833 O.2     
  69 O69          -19.2419    27.3825    38.3367 O.3     
  70 C70          -19.3455    29.7242    37.7484 C.3     
  71 C71          -23.8228    25.3758    35.0874 C.3     
  72 C72          -23.2875    25.4832    36.5167 C.3     
  73 C73          -24.4426    25.5335    37.4833 C.2     
  74 N74          -22.4873    26.7032    36.6481 N.am    
  75 O75          -24.5835    26.4939    38.2103 O.2     
  76 O76          -24.6375    26.5134    34.7972 O.3     
  77 C77          -22.6501    25.3247    34.1061 C.3     
  78 C78          -27.6037    25.3285    37.8462 C.3     
  79 C79          -26.4420    24.5601    38.4794 C.3     
  80 C80          -26.8858    23.1573    38.8052 C.2     
  81 N81          -25.3190    24.5112    37.5398 N.am    
  82 O82          -26.3198    22.2099    38.3021 O.2     
  83 S83          -27.0694    27.0171    37.4540 S.3     
  84 C84          -28.9689    20.9087    38.8603 C.2     
  85 N85          -27.9116    22.9555    39.6557 N.am    
  86 C86          -28.4413    21.6461    40.0640 C.3     
  87 C87          -29.5877    21.9071    41.0636 C.3     
  88 C88          -29.2678    23.3291    41.5957 C.3     
  89 C89          -28.6843    24.0109    40.3357 C.3     
  90 O90          -28.9118    21.4208    37.7623 O.2     
  91 C91          -31.1778    18.0228    38.3455 C.3     
  92 C92          -30.1161    19.0089    37.8544 C.3     
  93 C93          -29.0560    18.2637    37.0850 C.2     
  94 N94          -29.5042    19.6802    39.0038 N.am    
  95 O95          -27.9029    18.2907    37.4599 O.2     
  96 C96          -32.3030    18.7814    39.0010 C.2     
  97 N97          -33.2973    18.1124    39.6177 N.am    
  98 O98          -32.3138    19.9938    38.9735 O.2     
  99 C99          -27.6782    17.7960    34.2479 C.3     
 100 C100         -28.3587    16.8428    35.2324 C.3     
 101 C101         -28.9942    15.7064    34.4736 C.2     
 102 N102         -29.3893    17.5673    35.9803 N.am    
 103 O103         -30.1902    15.5200    34.5500 O.2     
 104 O104         -28.6256    18.2246    33.2678 O.3     
 105 C105         -28.9716    12.5723    33.8876 C.3     
 106 C106         -28.8512    13.7925    32.9724 C.3     
 107 C107         -27.9969    13.4443    31.7808 C.2     
 108 N108         -28.2335    14.8972    33.7101 N.am    
 109 O109         -26.9729    14.0585    31.5686 O.2     
 110 C110         -29.9383    12.8860    35.0313 C.3     
 111 C111         -30.0568    11.6842    35.9328 C.2     
 112 O112         -29.4321    10.6799    35.6859 O.2     
 113 O113         -30.8563    11.7295    37.0100 O.3     
 114 C114         -27.9013    13.0276    28.6211 C.3     
 115 C115         -27.5404    12.1119    29.7925 C.3     
 116 C116         -27.7839    10.6769    29.4019 C.2     
 117 N117         -28.3709    12.4504    30.9509 N.am    
 118 O118         -28.5735    10.0033    30.0293 O.2     
 119 O119         -29.2456    12.7690    28.2110 O.3     
 120 C120         -28.5826     8.6688    27.0576 C.3     
 121 C121         -27.3611     8.7472    27.9755 C.3     
 122 C122         -26.1531     8.2118    27.2509 C.2     
 123 N123         -27.1243    10.1422    28.3552 N.am    
 124 O124         -25.1892     8.9253    27.0695 O.2     
 125 S125         -30.0368     9.3132    27.9298 S.3     
 126 C126         -24.7679     7.0105    24.7940 C.2     
 127 N127         -26.1438     6.9402    26.8044 N.am    
 128 C128         -25.0344     6.2907    26.0909 C.3     
 129 C129         -25.4627     4.8358    25.8053 C.3     
 130 C130         -26.5615     4.5815    26.8708 C.3     
 131 C131         -27.2418     5.9682    26.9562 C.3     
 132 O132         -25.4362     7.9749    24.4873 O.2     
 133 C133         -23.5278     7.2821    22.7143 C.3     
 134 C134         -22.3898     6.6091    21.9909 C.2     
 135 N135         -23.7869     6.5824    23.9750 N.am    
 136 O136         -21.8485     5.6404    22.4803 O.2     
 137 C137         -20.8674     6.4296    20.0970 C.3     
 138 C138         -20.6008     7.1493    18.8001 C.2     
 139 N139         -21.9736     7.0838    20.8001 N.am    
 140 O140         -21.2691     8.1138    18.4934 O.2     
 141 C141         -20.2985     6.8843    15.6371 C.3     
 142 C142         -19.3607     7.4210    16.7203 C.3     
 143 C143         -17.9303     7.1933    16.3042 C.2     
 144 N144         -19.6198     6.7213    17.9810 N.am    
 145 O145         -17.1992     6.5135    16.9930 O.2     
 146 C146         -21.7451     7.2260    15.9998 C.3     
 147 C147         -22.6688     6.6974    14.9328 C.2     
 148 O148         -22.2148     6.1056    13.9765 O.2     
 149 N149         -23.9994     6.8823    15.0413 N.am    
 150 C150         -15.1710     8.5470    15.4556 C.3     
 151 C151         -16.0728     7.5239    14.7622 C.3     
 152 C152         -15.9533     7.6800    13.2681 C.2     
 153 N153         -17.4634     7.7452    15.1667 N.am    
 154 O154         -16.9333     7.9495    12.6063 O.2     
 155 O155         -15.4953     9.8593    14.9921 O.3     
 156 C156         -14.9959     6.3483    10.5338 C.3     
 157 C157         -14.6414     7.6718    11.2148 C.3     
 158 C158         -13.2277     8.0558    10.8613 C.2     
 159 N159         -14.7575     7.5200    12.6673 N.am    
 160 O160         -12.3418     7.9274    11.6796 O.2     
 161 C161         -14.1306     5.2281    11.1146 C.3     
 162 C162         -16.4726     6.0297    10.7759 C.3     
 163 C163         -16.8582     4.7731     9.9929 C.3     
 164 C164         -10.7349     7.8172     8.8876 C.3     
 165 C165         -11.5938     9.0060     9.3236 C.3     
 166 C166         -11.6544    10.0178     8.2084 C.2     
 167 N167         -12.9478     8.5418     9.6358 N.am    
 168 O168         -12.7233    10.3212     7.7222 O.2     
 169 S169         -10.6620     6.5994    10.2300 S.3     
 170 C170         -10.8644    12.9545     7.2504 C.3     
 171 C171         -10.5796    11.5690     6.6671 C.3     
 172 C172          -9.2610    11.5924     5.9379 C.2     
 173 N173         -10.5207    10.5855     7.7512 N.am    
 174 O174          -8.3607    10.8596     6.2891 O.2     
 175 C175         -12.2367    12.9650     7.8731 C.ar    
 176 C176         -12.3930    12.6264     9.2045 C.ar    
 177 C177         -13.6499    12.6351     9.7777 C.ar    
 178 C178         -14.7558    12.9841     9.0162 C.ar    
 179 C179         -14.5963    13.3235     7.6805 C.ar    
 180 C180         -13.3366    13.3186     7.1135 C.ar    
 181 O181         -15.9934    12.9931     9.5777 O.3     
 182 C182          -6.8321    13.3860     4.9131 C.3     
 183 C183          -7.8003    12.4504     4.1864 C.3     
 184 C184          -8.0136    12.9433     2.7784 C.2     
 185 N185          -9.0822    12.4276     4.8953 N.am    
 186 O186          -9.1268    13.2458     2.4039 O.2     
 187 C187          -6.5182    12.8187     6.2990 C.3     
 188 C188          -5.5646    13.7403     7.0148 C.2     
 189 O189          -5.1744    14.7512     6.4701 O.2     
 190 N190          -5.1454    13.4410     8.2602 N.am    
 191 C191          -7.5890    12.3560    -0.3266 C.3     
 192 C192          -7.1747    13.5271     0.5665 C.3     
 193 C193          -5.8947    14.1280     0.0453 C.2     
 194 N194          -6.9673    13.0479     1.9353 N.am    
 195 O195          -4.9066    14.1534     0.7480 O.2     
 196 N196         -10.6684    10.1461    -0.3316 N.pl3   
 197 C197         -11.2475     9.0871    -0.9897 C.2     
 198 N198         -10.6367     8.5350    -2.0002 N.2     
 199 N199         -12.4708     8.6103    -0.5820 N.pl3   
 200 C200          -8.9505    11.8254     0.1271 C.3     
 201 C201          -9.3648    10.6542    -0.7660 C.3     
 202 C202          -4.5093    16.6828    -1.2661 C.3     
 203 C203          -4.6038    15.2212    -1.7084 C.3     
 204 C204          -4.5919    15.1501    -3.2137 C.2     
 205 N205          -5.8481    14.6371    -1.2018 N.am    
 206 O206          -5.6131    14.8967    -3.8169 O.2     
 207 C207          -4.4860    16.7527     0.2621 C.3     
 208 C208          -4.3916    18.2143     0.7044 C.3     
 209 C209          -4.3683    18.2842     2.2326 C.3     
 210 N210          -4.2776    19.6876     2.6573 N.3     
 211 C211          -2.2827    16.0443    -5.9317 C.3     
 212 C212          -3.4090    15.1919    -5.3435 C.3     
 213 C213          -3.1624    13.7410    -5.6675 C.2     
 214 N214          -3.4464    15.3682    -3.8896 N.am    
 215 O215          -3.0310    12.9336    -4.7721 O.2     
 216 C216          -2.5469    17.4984    -5.6371 C.2     
 217 C217          -3.1889    18.3701    -6.4308 C.2     
 218 N218          -3.2373    19.5990    -5.8309 N.pl3   
 219 C219          -2.6118    19.5466    -4.6054 C.ar    
 220 C220          -2.1575    18.2272    -4.4275 C.ar    
 221 C221          -2.3800    20.4877    -3.6073 C.ar    
 222 C222          -1.7057    20.1202    -2.4638 C.ar    
 223 C223          -1.2538    18.8182    -2.2957 C.ar    
 224 C224          -1.4830    17.8745    -3.2569 C.ar    
 225 C225          -1.3441    11.6513    -7.2464 C.3     
 226 C226          -2.8483    11.9300    -7.2672 C.3     
 227 C227          -3.3978    11.6205    -8.6359 C.2     
 228 N228          -3.0880    13.3406    -6.9522 N.am    
 229 O229          -3.9365    12.4924    -9.2844 O.2     
 230 C230          -0.8089    11.8456    -5.8263 C.3     
 231 C231           0.6727    11.5710    -5.8059 C.2     
 232 O232           1.2422    11.2527    -6.8229 O.2     
 233 O233           1.3598    11.6802    -4.6580 O.3     
 234 C234          -5.3141     9.7427   -10.3585 C.3     
 235 C235          -3.8246    10.0741   -10.4698 C.3     
 236 C236          -3.0895     8.8939   -11.0511 C.2     
 237 N237          -3.2905    10.3749    -9.1393 N.am    
 238 O238          -2.2064     8.3570   -10.4165 O.2     
 239 C239          -6.0782    10.9812    -9.8862 C.3     
 240 C240          -7.5453    10.6548    -9.7765 C.2     
 241 O241          -7.9394     9.5454   -10.0483 O.2     
 242 O242          -8.4144    11.5965    -9.3769 O.3     
 243 C243          -3.3431     5.9914   -12.3463 C.3     
 244 C244          -2.6988     7.2879   -12.8414 C.3     
 245 C245          -2.7713     7.3422   -14.3457 C.2     
 246 N246          -3.4134     8.4351   -12.2763 N.am    
 247 O247          -3.3617     8.2499   -14.8920 O.2     
 248 C248          -3.1621     5.8784   -10.8545 C.2     
 249 N249          -4.0569     6.2628    -9.8926 N.pl3   
 250 C250          -3.4993     5.9851    -8.6945 C.2     
 251 N251          -2.3226     5.4569    -8.8930 N.2     
 252 C252          -2.0915     5.3744   -10.2116 C.2     
 253 C253          -3.5547     5.7891   -17.0178 C.3     
 254 C254          -2.2504     6.4351   -16.5464 C.3     
 255 C255          -1.0797     5.6891   -17.1330 C.2     
 256 N256          -2.1799     6.3822   -15.0840 N.am    
 257 O257          -0.2666     5.1649   -16.4015 O.2     
 258 N258          -7.1832     6.7675   -16.5248 N.pl3   
 259 C259          -8.4666     6.3788   -16.8281 C.2     
 260 N260          -8.6719     5.3034   -17.5354 N.2     
 261 N261          -9.5334     7.1245   -16.3854 N.pl3   
 262 C262          -4.7420     6.6189   -16.5251 C.3     
 263 C263          -6.0464     5.9729   -16.9966 C.3     
 264 C264           0.2017     4.8793   -19.0407 C.3     
 265 C265           0.1293     4.9337   -20.5449 C.2     
 266 N266          -0.9363     5.6045   -18.4704 N.am    
 267 O267          -0.7832     5.5204   -21.0873 O.2     
 268 C268           0.1032     3.2588   -23.2579 C.3     
 269 C269           1.0080     4.3832   -22.7499 C.3     
 270 C270           2.3903     4.2146   -23.3258 C.2     
 271 N271           1.0784     4.3303   -21.2876 N.am    
 272 O272           3.3408     4.0650   -22.5875 O.2     
 273 C273          -1.3285     3.4986   -22.7748 C.3     
 274 C274          -2.2197     2.3911   -23.2751 C.2     
 275 O275          -1.7571     1.5013   -23.9490 O.2     
 276 O276          -3.5273     2.3932   -22.9722 O.3     
 277 C277           4.6205     5.4229   -25.2578 C.3     
 278 C278           3.9143     4.0661   -25.2213 C.3     
 279 C279           3.8119     3.5153   -26.6203 C.2     
 280 N280           2.5704     4.2300   -24.6614 N.am    
 281 O281           2.7235     3.2825   -27.1022 O.2     
 282 N282           5.7484     7.7613   -22.4964 N.pl3   
 283 C283           6.3688     8.9685   -22.2776 C.2     
 284 N284           6.5523     9.3957   -21.0600 N.2     
 285 N285           6.7957     9.7251   -23.3432 N.pl3   
 286 C286           4.8359     5.9244   -23.8285 C.3     
 287 C287           5.5421     7.2811   -23.8650 C.3     
 288 C288           4.7248     1.2206   -28.6370 C.3     
 289 C289           4.8302     2.7458   -28.6959 C.3     
 290 C290           6.0570     3.1347   -29.4799 C.2     
 291 N291           4.9297     3.2813   -27.3359 N.am    
 292 O292           7.0408     3.5460   -28.9021 O.2     
 293 C293           5.9149     0.6569   -27.8581 C.3     
 294 C294           3.4234     0.8260   -27.9359 C.3     
 295 C295           2.2311     1.2855   -28.7774 C.3     
 296 C296           6.9298     4.9217   -32.1001 C.3     
 297 C297           7.2107     3.5055   -31.5939 C.3     
 298 C298           7.4464     2.5900   -32.7675 C.2     
 299 N299           6.0609     3.0254   -30.8233 N.am    
 300 O300           6.6038     1.7756   -33.0801 O.2     
 301 C301           6.8139     5.8754   -30.9094 C.3     
 302 C302           6.5373     7.2704   -31.4080 C.2     
 303 O303           6.4425     7.4802   -32.5941 O.2     
 304 O304           6.3962     8.2797   -30.5345 O.3     
 305 C305           9.3982     0.4585   -34.1141 C.3     
 306 C306           8.8227     1.7864   -34.6106 C.3     
 307 C307           9.7965     2.4311   -35.5630 C.2     
 308 N308           8.5935     2.6763   -33.4697 N.am    
 309 O309          10.2541     3.5262   -35.3133 O.2     
 310 N310           7.9401    -2.2659   -31.9192 N.pl3   
 311 C311           8.2342    -3.4862   -31.3583 C.2     
 312 N312           7.3492    -4.0940   -30.6192 N.2     
 313 N313           9.4618    -4.0654   -31.5770 N.pl3   
 314 C314           8.3593    -0.2549   -33.2465 C.3     
 315 C315           8.9348    -1.5828   -32.7500 C.3     
 316 C316          10.3501     3.3522   -38.5649 C.3     
 317 C317          11.1057     2.4176   -37.6180 C.3     
 318 C318          11.8064     1.3505   -38.4188 C.2     
 319 N319          10.1590     1.7908   -36.6922 N.am    
 320 O320          11.5412     0.1815   -38.2343 O.2     
 321 N321           8.4044     6.5454   -37.9458 N.pl3   
 322 C322           7.6749     7.5178   -38.5881 C.2     
 323 N323           7.1569     8.5008   -37.9066 N.2     
 324 N324           7.4917     7.4533   -39.9491 N.pl3   
 325 C325           9.7421     4.5060   -37.7649 C.3     
 326 C326           8.9866     5.4406   -38.7118 C.3     
 327 C327          12.5522     0.2836   -41.3294 C.3     
 328 C328          13.4091     0.6578   -40.1184 C.3     
 329 C329          14.7434     1.1773   -40.5884 C.2     
 330 N330          12.7279     1.6952   -39.3399 N.am    
 331 O331          15.0911     2.3032   -40.3014 O.2     
 332 S332          10.9461    -0.3417   -40.7636 S.3     
 333 C333          16.6605     1.6773   -43.0865 C.3     
 334 C334          16.8474     0.8957   -41.7846 C.3     
 335 C335          17.7815    -0.2625   -42.0236 C.2     
 336 N336          15.5504     0.3907   -41.3277 N.am    
 337 O337          17.3476    -1.3945   -42.0578 O.2     
 338 C338          15.9165     0.8071   -44.1014 C.3     
 339 C339          15.8489     2.9441   -42.8088 C.3     
 340 C340          20.0580    -1.6451   -43.7764 C.3     
 341 C341          20.0227    -1.1710   -42.3221 C.3     
 342 C342          21.4037    -0.7396   -41.9007 C.2     
 343 N343          19.0992    -0.0403   -42.1994 N.am    
 344 O344          21.5975     0.4001   -41.5339 O.2     
 345 C345          24.7907    -2.1110   -42.3015 C.3     
 346 C346          23.7857    -1.1745   -41.6279 C.3     
 347 C347          24.0007    -1.1958   -40.1365 C.2     
 348 N348          22.4235    -1.6202   -41.9313 N.am    
 349 O349          23.1044    -1.5486   -39.3996 O.2     
 350 C350          24.6655    -1.9893   -43.7984 C.2     
 351 N351          25.3700    -2.8101   -44.6024 N.am    
 352 O352          23.9308    -1.1529   -44.2795 O.2     
 353 C353          25.8166    -2.2495   -37.7368 C.3     
 354 C354          25.3981    -0.8436   -38.1717 C.3     
 355 C355          26.4811     0.1386   -37.8062 C.2     
 356 N356          25.1891    -0.8228   -39.6215 N.am    
 357 O357          27.0248     0.7916   -38.6716 O.2     
 358 S358          24.5130    -3.4317   -38.1768 S.3     
 359 C359          29.2149     0.8527   -36.6170 C.2     
 360 N360          26.8454     0.2913   -36.5176 N.am    
 361 C361          27.8779     1.2135   -36.0226 C.3     
 362 C362          27.9283     1.0636   -34.4875 C.3     
 363 C363          26.5313     0.4791   -34.1494 C.3     
 364 C364          26.2702    -0.4342   -35.3703 C.3     
 365 O365          29.3056    -0.0841   -37.3819 O.2     
 366 C366          31.7538     1.8830   -38.2476 C.3     
 367 C367          31.6097     1.2202   -36.8761 C.3     
 368 C368          32.7103     1.7028   -35.9669 C.2     
 369 N369          30.3099     1.5710   -36.2984 N.am    
 370 O370          32.4360     2.2826   -34.9376 O.2     
 371 C371          35.0694     1.9592   -35.4136 C.3     
 372 C372          36.3271     2.1716   -36.2161 C.2     
 373 N373          33.9995     1.4900   -36.2975 N.am    
 374 O374          36.3295     1.9527   -37.4090 O.2     
 375 C375          33.1195    -0.1202   -33.7636 C.ar    
 376 C376          32.0025    -0.2335   -32.9572 C.ar    
 377 C377          31.8764     0.5638   -31.8351 C.ar    
 378 C378          32.8675     1.4742   -31.5191 C.ar    
 379 C379          33.9843     1.5879   -32.3258 C.ar    
 380 C380          34.1104     0.7905   -33.4480 C.ar    
 381 C381          35.3283     0.9137   -34.3269 C.3     
 382 C382          38.6719     2.8114   -36.3885 C.3     
 383 C383          39.7725     3.2940   -35.4792 C.2     
 384 N384          37.4493     2.6049   -35.6083 N.am    
 385 O385          39.5569     3.4501   -34.2960 O.2     
 386 C386          41.9705     5.5404   -34.9418 C.3     
 387 C387          42.0665     4.0213   -35.0970 C.3     
 388 C388          43.4035     3.6605   -35.6913 C.2     
 389 N389          40.9965     3.5522   -35.9809 N.am    
 390 O390          43.4573     3.0696   -36.7491 O.2     
 391 O391          42.2208     6.1647   -36.2027 O.3     
 392 C392          46.2614     4.7231   -36.6238 C.3     
 393 C393          45.8391     3.6436   -35.6251 C.3     
 394 C394          46.8668     3.5454   -34.5272 C.2     
 395 N395          44.5394     3.9944   -35.0473 N.am    
 396 O396          46.5452     3.7484   -33.3756 O.2     
 397 C397          45.3000     4.7375   -37.7843 C.2     
 398 N398          44.2055     5.5469   -37.9271 N.pl3   
 399 C399          43.6273     5.2324   -39.1063 C.2     
 400 N400          44.3190     4.2806   -39.6708 N.2     
 401 C401          45.3561     3.9605   -38.8827 C.2     
 402 C402          50.3145     2.3155   -34.1714 C.3     
 403 C403          49.1648     3.2438   -33.7751 C.3     
 404 C404          49.6887     4.6459   -33.5998 C.2     
 405 N405          48.1433     3.2319   -34.8252 N.am    
 406 O406          49.2520     5.5465   -34.2847 O.2     
 407 C407          49.7966     0.9076   -34.3154 C.2     
 408 O408          48.6547     0.6504   -34.0160 O.2     
 409 O409          50.6040    -0.0606   -34.7764 O.3     
 410 C410          52.2669     6.5204   -33.5272 C.3     
 411 C411          51.1521     6.2620   -32.5117 C.3     
 412 C412          51.6966     6.4240   -31.1158 C.2     
 413 N413          50.6427     4.8990   -32.6820 N.am    
 414 O414          51.8743     5.4486   -30.4173 O.2     
 415 O415          53.2938     5.5396   -33.3672 O.3     
 416 C416          51.6961     6.4347   -34.9441 C.3     
 417 C417          51.5400     7.7995   -28.2436 C.3     
 418 C418          52.6171     7.8029   -29.3303 C.3     
 419 C419          53.3745     9.1048   -29.2827 C.2     
 420 N420          51.9861     7.6527   -30.6438 N.am    
 421 O421          53.3861     9.8354   -30.2508 O.2     
 422 O422          50.7060     8.9498   -28.3961 O.3     
 423 C423          56.0919    10.6871   -28.6695 C.3     
 424 C424          54.6832    10.7704   -28.0783 C.3     
 425 C425          54.7685    11.1944   -26.6347 C.2     
 426 N426          54.0391     9.4574   -28.1644 N.am    
 427 O427          54.3309    10.4726   -25.7639 O.2     
 428 C428          56.8703     9.5667   -27.9769 C.3     
 429 C429          58.2126     9.3661   -28.6831 C.3     
 430 C430          57.1148     9.9441   -26.5145 C.3     
 431 C431          54.1051    13.4655   -24.4974 C.3     
 432 C432          55.4140    12.7879   -24.9081 C.3     
 433 C433          56.5564    13.7554   -24.7354 C.2     
 434 N434          55.3311    12.3757   -26.3115 N.am    
 435 O435          57.2345    14.0698   -25.6905 O.2     
 436 C436          52.9643    12.4476   -24.5536 C.3     
 437 C437          53.2015    11.3574   -23.5066 C.3     
 438 C438          51.6374    13.1523   -24.2645 C.3     
 439 C439          57.4594    16.6275   -23.6855 C.3     
 440 C440          57.9350    15.2121   -23.3516 C.3     
 441 C441          58.4191    15.1682   -21.9251 C.2     
 442 N442          56.8244    14.2715   -23.5195 N.am    
 443 O443          57.8887    14.4245   -21.1273 O.2     
 444 S444          56.8767    16.6802   -25.4025 S.3     
 445 C445          60.9205    14.7736   -19.9878 C.3     
 446 C446          59.9121    15.9128   -20.1493 C.3     
 447 C447          60.5734    17.2219   -19.8028 C.2     
 448 N448          59.4415    15.9555   -21.5360 N.am    
 449 O449          60.6446    18.1037   -20.6325 O.2     
 450 S450          60.1245    13.1978   -20.4049 S.3     
 451 C451          63.1925    18.6504   -18.6776 C.3     
 452 C452          61.7286    18.6854   -18.2341 C.3     
 453 C453          61.6601    18.9040   -16.7446 C.2     
 454 N454          61.0857    17.4128   -18.5709 N.am    
 455 O455          61.1268    18.0781   -16.0343 O.2     
 456 O456          63.8677    17.5837   -18.0080 O.3     
 457 C457          63.2620    18.4284   -20.1898 C.3     
 458 C458          60.7834    20.8715   -14.3936 C.3     
 459 C459          62.1249    20.2299   -14.7538 C.3     
 460 C460          63.2476    21.1402   -14.3275 C.2     
 461 N461          62.1915    20.0173   -16.2017 N.am    
 462 O462          64.0267    21.5693   -15.1521 O.2     
 463 N463          57.2219    19.6017   -14.6567 N.pl3   
 464 C464          55.9171    19.9613   -14.4149 C.2     
 465 N465          54.9509    19.1295   -14.6861 N.2     
 466 N466          55.6314    21.1981   -13.8871 N.pl3   
 467 C467          59.6493    19.8951   -14.7120 C.3     
 468 C468          58.3078    20.5367   -14.3519 C.3     
 469 C469          64.1749    23.0549   -11.3355 C.3     
 470 C470          64.5389    22.2720   -12.5986 C.3     
 471 C471          65.6986    21.3556   -12.3049 C.2     
 472 N472          63.3860    21.4776   -13.0300 N.am    
 473 O473          65.5744    20.1570   -12.4423 O.2     
 474 C474          63.0360    23.9945   -11.6376 C.2     
 475 O475          62.6364    24.1145   -12.7716 O.2     
 476 O476          62.4656    24.6980   -10.6470 O.3     
 477 C477          68.9769    21.5987   -10.6703 C.3     
 478 C478          68.0329    20.9902   -11.7093 C.3     
 479 C479          68.7589    20.8413   -13.0215 C.2     
 480 N480          66.8739    21.8680   -11.8894 N.am    
 481 O481          68.3486    21.4121   -14.0098 O.2     
 482 C482          68.2962    21.6226    -9.3261 C.2     
 483 N483          68.8928    22.2263    -8.2792 N.am    
 484 O484          67.2114    21.0985    -9.1863 O.2     
 485 C485          71.5453    21.0942   -14.5507 C.3     
 486 C486          70.5700    19.9289   -14.3723 C.3     
 487 C487          71.3332    18.6295   -14.3795 C.2     
 488 N488          69.8642    20.0737   -13.0968 N.am    
 489 O489          71.2917    17.8965   -13.4141 O.2     
 490 S490          70.6266    22.6584   -14.5421 S.3     
 491 C491          73.9813    17.1241   -16.4370 C.3     
 492 C492          72.8039    17.0187   -15.4656 C.3     
 493 C493          71.8908    15.9022   -15.9023 C.2     
 494 N494          72.0619    18.2819   -15.4587 N.am    
 495 O495          70.8800    16.1530   -16.5136 O.2     
 496 C496          74.9568    18.1567   -15.9337 C.2     
 497 N497          76.0786    18.4210   -16.6325 N.am    
 498 O498          74.7324    18.7499   -14.9000 O.2     
 499 H499           4.5741    32.2853    21.0120 H       
 500 H500           3.1761    32.2932    22.1137 H       
 501 H501           4.3742    30.9800    22.2055 H       
 502 H502          71.8067    14.2042   -14.6123 H       
 503 H503          71.8399    13.8161   -16.3492 H       
 504 H504          73.3228    14.3640   -15.5312 H       
 505 H505           1.0945    28.1433    20.7437 H       
 506 H506           1.5120    29.1523    19.3381 H       
 507 H507           2.6372    29.5762    22.1407 H       
 508 H508           2.5677    31.4949    19.9330 H       
 509 H509           3.9342    28.6003    19.7263 H       
 510 H510           2.7584    26.6582    21.7666 H       
 511 H511           4.4626    26.7223    21.2568 H       
 512 H512           3.7475    28.0887    22.1454 H       
 513 H513           2.4873    27.3060    18.1337 H       
 514 H514           3.7948    26.3230    18.8353 H       
 515 H515           2.1307    26.1555    19.4442 H       
 516 H516          -1.7331    32.6164    24.1172 H       
 517 H517          -1.5929    31.2616    22.0452 H       
 518 H518           0.4272    29.4583    23.1380 H       
 519 H519           0.0510    32.3504    25.6830 H       
 520 H520          -0.3539    33.4241    22.2215 H       
 521 H521           0.3465    33.9240    23.7796 H       
 522 H522           1.0570    32.5619    22.8806 H       
 523 H523          -3.9216    30.4385    26.6876 H       
 524 H524          -4.4604    28.7457    26.7996 H       
 525 H525          -4.0110    28.4426    24.3799 H       
 526 H526          -3.5258    31.2857    23.9229 H       
 527 H527          -1.9189    28.9413    27.8384 H       
 528 H528          -8.3702    27.9717    23.6452 H       
 529 H529          -9.5535    29.2991    23.5683 H       
 530 H530          -7.9999    30.7001    24.9596 H       
 531 H531          -6.3697    28.3875    25.6822 H       
 532 H532          -7.8499    30.7564    22.5087 H       
 533 H533          -6.6666    29.4290    22.5856 H       
 534 H534          -8.1384    28.0343    21.1583 H       
 535 H535          -9.3217    29.3617    21.0814 H       
 536 H536          -7.6181    30.8190    20.0218 H       
 537 H537          -6.4348    29.4915    20.0987 H       
 538 H538          -9.0037    29.3592    18.6595 H       
 539 H539          -7.5171    29.5958    17.9525 H       
 540 H540         -11.9535    27.0543    27.8167 H       
 541 H541         -10.3359    28.8744    28.1930 H       
 542 H542         -10.5230    29.8993    25.4649 H       
 543 H543         -13.0038    27.9884    25.8854 H       
 544 H544          -9.5022    26.6023    27.5983 H       
 545 H545         -10.4830    25.5268    26.5739 H       
 546 H546          -9.6254    26.9078    25.8491 H       
 547 H547         -15.4236    28.7045    28.4279 H       
 548 H548         -16.1965    30.2648    28.0583 H       
 549 H549         -13.9938    31.3928    28.2143 H       
 550 H550         -12.6453    29.0241    29.2624 H       
 551 H551         -15.9425    28.8231    25.7273 H       
 552 H552         -15.3433    31.8926    32.4901 H       
 553 H553         -18.2562    31.7168    31.7366 H       
 554 H554         -17.3859    33.0096    32.6257 H       
 555 H555         -18.1004    33.4048    30.0262 H       
 556 H556         -16.4900    33.9564    30.5979 H       
 557 H557         -15.8735    32.5034    28.7824 H       
 558 H558         -17.2068    31.3621    29.1356 H       
 559 H559         -17.4281    27.9710    33.3899 H       
 560 H560         -16.7132    30.7032    34.3073 H       
 561 H561         -14.0027    29.6196    34.8758 H       
 562 H562         -11.9615    29.1462    33.5826 H       
 563 H563         -11.7502    27.0263    32.3479 H       
 564 H564         -13.5819    25.3815    32.4031 H       
 565 H565         -15.6250    25.8570    33.6926 H       
 566 H566         -15.9623    28.7719    35.9435 H       
 567 H567         -16.5660    27.1351    35.5903 H       
 568 H568         -21.0010    28.4659    38.3112 H       
 569 H569         -20.9862    28.7684    35.8291 H       
 570 H570         -18.7678    26.9035    35.4703 H       
 571 H571         -19.6417    26.5025    38.3666 H       
 572 H572         -19.9338    30.4595    37.1994 H       
 573 H573         -19.2118    30.0603    38.7766 H       
 574 H574         -18.3709    29.6109    37.2736 H       
 575 H575         -24.4182    24.4681    34.9896 H       
 576 H576         -22.6661    24.6155    36.7380 H       
 577 H577         -22.8943    27.5161    36.9865 H       
 578 H578         -25.0115    26.5121    33.9055 H       
 579 H579         -22.0286    24.4570    34.3274 H       
 580 H580         -23.0314    25.2483    33.0879 H       
 581 H581         -22.0547    26.2325    34.2039 H       
 582 H582         -27.9169    24.8248    36.9317 H       
 583 H583         -28.4392    25.3649    38.5453 H       
 584 H584         -26.1288    25.0638    39.3939 H       
 585 H585         -25.2063    23.7430    36.9583 H       
 586 H586         -28.1722    27.5654    36.9135 H       
 587 H587         -27.6556    21.0611    40.5420 H       
 588 H588         -30.5524    21.8931    40.5564 H       
 589 H589         -29.5662    21.1783    41.8739 H       
 590 H590         -30.1739    23.8337    41.9310 H       
 591 H591         -28.5262    23.2900    42.3936 H       
 592 H592         -28.0314    24.8366    40.6186 H       
 593 H593         -29.4893    24.3660    39.6923 H       
 594 H594         -31.5663    17.4560    37.4994 H       
 595 H595         -30.7320    17.3385    39.0673 H       
 596 H596         -30.5816    19.7510    37.2058 H       
 597 H597         -29.4843    19.2405    39.8682 H       
 598 H598         -33.2887    17.1427    39.6396 H       
 599 H599         -34.0215    18.6007    40.0396 H       
 600 H600         -27.2956    18.6627    34.7869 H       
 601 H601         -26.8533    17.2813    33.7552 H       
 602 H602         -27.6172    16.4467    35.9262 H       
 603 H603         -30.3115    17.5457    35.6805 H       
 604 H604         -28.2626    18.8326    32.6093 H       
 605 H605         -29.3485    11.7247    33.3154 H       
 606 H606         -27.9916    12.3273    34.2972 H       
 607 H607         -29.8430    14.0916    32.6334 H       
 608 H608         -27.2770    15.0463    33.6489 H       
 609 H609         -29.5613    13.7337    35.6035 H       
 610 H610         -30.9182    13.1311    34.6218 H       
 611 H611         -30.8997    10.9342    37.5583 H       
 612 H612         -27.8101    14.0683    28.9320 H       
 613 H613         -27.2243    12.8365    27.7885 H       
 614 H614         -26.4891    12.2456    30.0476 H       
 615 H615         -29.1899    11.9592    31.1206 H       
 616 H616         -29.5428    13.3152    27.4705 H       
 617 H617         -28.4029     9.2636    26.1620 H       
 618 H618         -28.7588     7.6309    26.7750 H       
 619 H619         -27.5408     8.1523    28.8710 H       
 620 H620         -26.4928    10.6809    27.8534 H       
 621 H621         -31.0177     9.1849    27.0185 H       
 622 H622         -24.1382     6.3007    26.7113 H       
 623 H623         -25.8726     4.7449    24.7994 H       
 624 H624         -24.6249     4.1527    25.9447 H       
 625 H625         -27.2643     3.8198    26.5332 H       
 626 H626         -26.1205     4.3068    27.8290 H       
 627 H627         -27.7284     6.0936    27.9235 H       
 628 H628         -27.9650     6.0837    26.1490 H       
 629 H629         -23.2637     8.3191    22.9218 H       
 630 H630         -24.4221     7.2525    22.0918 H       
 631 H631         -23.2524     5.8110    24.2203 H       
 632 H632         -21.1314     5.3926    19.8894 H       
 633 H633         -19.9730     6.4592    20.7194 H       
 634 H634         -22.4065     7.8585    20.4087 H       
 635 H635         -20.0465     7.3404    14.6797 H       
 636 H636         -20.1880     5.8023    15.5643 H       
 637 H637         -19.5344     8.4886    16.8549 H       
 638 H638         -19.0853     5.9499    18.2263 H       
 639 H639         -21.9971     6.7699    16.9571 H       
 640 H640         -21.8555     8.3080    16.0725 H       
 641 H641         -24.3625     7.3556    15.8062 H       
 642 H642         -24.5939     6.5420    14.3546 H       
 643 H643         -15.3237     8.4944    16.5336 H       
 644 H644         -14.1285     8.3276    15.2252 H       
 645 H645         -15.7671     6.5174    15.0480 H       
 646 H646         -18.0480     8.2889    14.6158 H       
 647 H647         -14.9614    10.5602    15.3905 H       
 648 H648         -14.8128     6.4305     9.4625 H       
 649 H649         -15.3250     8.4498    10.8750 H       
 650 H650         -13.9738     7.3044    13.1966 H       
 651 H651         -14.2712     5.1832    12.1946 H       
 652 H652         -14.4222     4.2764    10.6704 H       
 653 H653         -13.0821     5.4267    10.8926 H       
 654 H654         -16.6381     5.8599    11.8398 H       
 655 H655         -17.0846     6.8678    10.4422 H       
 656 H656         -17.9103     4.5461    10.1653 H       
 657 H657         -16.6928     4.9429     8.9290 H       
 658 H658         -16.2463     3.9351    10.3265 H       
 659 H659         -11.1742     7.3568     8.0027 H       
 660 H660          -9.7276     8.1627     8.6553 H       
 661 H661         -11.1545     9.4665    10.2085 H       
 662 H662         -13.6428     8.5842     8.9605 H       
 663 H663          -9.8882     5.6273     9.7149 H       
 664 H664         -10.1189    13.1892     8.0101 H       
 665 H665         -10.8203    13.6993     6.4557 H       
 666 H666         -11.3742    11.2969     5.9724 H       
 667 H667          -9.6658    10.3428     8.1400 H       
 668 H668         -11.5318    12.3544     9.7967 H       
 669 H669         -13.7715    12.3702    10.8176 H       
 670 H670         -15.4557    13.5955     7.0857 H       
 671 H671         -13.2113    13.5869     6.0749 H       
 672 H672         -16.2418    13.8420     9.9686 H       
 673 H673          -5.9099    13.4722     4.3385 H       
 674 H674          -7.2882    14.3704     5.0182 H       
 675 H675          -7.3820    11.4442     4.1597 H       
 676 H676          -9.8022    13.0137     4.6144 H       
 677 H677          -7.4404    12.7325     6.8737 H       
 678 H678          -6.0622    11.8343     6.1939 H       
 679 H679          -5.4574    12.6325     8.6959 H       
 680 H680          -4.5315    14.0342     8.7210 H       
 681 H681          -7.6570    12.6939    -1.3607 H       
 682 H682          -6.8463    11.5617    -0.2520 H       
 683 H683          -7.9596    14.2834     0.5613 H       
 684 H684          -6.0770    12.8060     2.2348 H       
 685 H685         -11.1230    10.5570     0.4204 H       
 686 H686         -11.0452     7.7878    -2.4645 H       
 687 H687         -12.9254     9.0211     0.1700 H       
 688 H688         -12.8794     7.8630    -1.0464 H       
 689 H689          -8.8825    11.4874     1.1611 H       
 690 H690          -9.6932    12.6196     0.0525 H       
 691 H691          -8.6221     9.8599    -0.6914 H       
 692 H692          -9.4328    10.9921    -1.8001 H       
 693 H693          -3.5957    17.1246    -1.6640 H       
 694 H694          -5.3723    17.2326    -1.6419 H       
 695 H695          -3.7538    14.6659    -1.3118 H       
 696 H696          -6.6384    14.6167    -1.7638 H       
 697 H697          -5.3996    16.3110     0.6600 H       
 698 H698          -3.6231    16.2029     0.6378 H       
 699 H699          -3.4780    18.6561     0.3065 H       
 700 H700          -5.2546    18.7641     0.3287 H       
 701 H701          -5.2819    17.8425     2.6305 H       
 702 H702          -3.5054    17.7345     2.6084 H       
 703 H703          -5.0322    20.2327     2.2680 H       
 704 H704          -4.2607    19.7605     3.6635 H       
 705 H705          -1.3330    15.7499    -5.4850 H       
 706 H706          -2.2389    15.8943    -7.0104 H       
 707 H707          -4.3617    15.5031    -5.7719 H       
 708 H708          -2.6469    15.6417    -3.4135 H       
 709 H709          -3.6050    18.1363    -7.3996 H       
 710 H710          -3.6505    20.3894    -6.2122 H       
 711 H711          -2.7272    21.5031    -3.7289 H       
 712 H712          -1.5264    20.8523    -1.6903 H       
 713 H713          -0.7264    18.5466    -1.3932 H       
 714 H714          -1.1304    16.8632    -3.1183 H       
 715 H715          -1.1601    10.6259    -7.5670 H       
 716 H716          -0.8376    12.3398    -7.9229 H       
 717 H717          -3.3443    11.3030    -6.5262 H       
 718 H718          -3.1931    13.9863    -7.6684 H       
 719 H719          -0.9929    12.8710    -5.5058 H       
 720 H720          -1.3153    11.1571    -5.1499 H       
 721 H721           2.3080    11.4942    -4.6945 H       
 722 H722          -5.6912     9.4328   -11.3331 H       
 723 H723          -5.4538     8.9340    -9.6411 H       
 724 H724          -3.6925    10.9399   -11.1187 H       
 725 H725          -2.8596     9.6777    -8.6206 H       
 726 H726          -5.7011    11.2910    -8.9115 H       
 727 H727          -5.9385    11.7898   -10.6036 H       
 728 H728          -9.3451    11.3400    -9.3219 H       
 729 H729          -4.4069     6.0007   -12.5836 H       
 730 H730          -2.8691     5.1404   -12.8353 H       
 731 H731          -1.6557     7.3185   -12.5266 H       
 732 H732          -4.1197     8.8645   -12.7839 H       
 733 H733          -4.9287     6.6605   -10.0434 H       
 734 H734          -3.9519     6.1698    -7.7315 H       
 735 H735          -1.2017     4.9760   -10.6764 H       
 736 H736          -3.5670     5.7482   -18.1070 H       
 737 H737          -3.6259     4.7785   -16.6155 H       
 738 H738          -2.2203     7.4741   -16.8742 H       
 739 H739          -1.7077     5.6562   -14.6471 H       
 740 H740          -7.0304     7.5678   -15.9984 H       
 741 H741          -9.5773     5.0292   -17.7494 H       
 742 H742          -9.3806     7.9248   -15.8590 H       
 743 H743         -10.4389     6.8502   -16.5994 H       
 744 H744          -4.7297     6.6597   -15.4359 H       
 745 H745          -4.6709     7.6294   -16.9274 H       
 746 H746          -6.1175     4.9624   -16.5943 H       
 747 H747          -6.0587     5.9321   -18.0857 H       
 748 H748           0.1716     3.8402   -18.7128 H       
 749 H749           1.1310     5.3395   -18.7048 H       
 750 H750          -1.5866     6.0237   -19.0554 H       
 751 H751           0.1210     3.2424   -24.3476 H       
 752 H752           0.4609     2.3033   -22.8743 H       
 753 H753           0.6003     5.3455   -23.0595 H       
 754 H754           1.8082     3.8610   -20.8538 H       
 755 H755          -1.3463     3.5150   -21.6850 H       
 756 H756          -1.6862     4.4541   -23.1584 H       
 757 H757          -4.0587     1.6620   -23.3157 H       
 758 H758           5.5847     5.3173   -25.7550 H       
 759 H759           4.0059     6.1378   -25.8050 H       
 760 H760           4.4851     3.3760   -24.6000 H       
 761 H761           1.8103     4.3497   -25.2520 H       
 762 H762           5.4472     7.2275   -21.7446 H       
 763 H763           6.9901    10.2475   -20.9056 H       
 764 H764           6.6591     9.4072   -24.2494 H       
 765 H765           7.2335    10.5768   -23.1889 H       
 766 H766           3.8717     6.0300   -23.3313 H       
 767 H767           5.4505     5.2095   -23.2814 H       
 768 H768           4.9276     7.9960   -24.4122 H       
 769 H769           6.5064     7.1756   -24.3622 H       
 770 H770           4.7290     0.8168   -29.6494 H       
 771 H771           3.9438     3.1528   -29.1826 H       
 772 H772           5.8002     3.4675   -26.9505 H       
 773 H773           5.9108     1.0607   -26.8457 H       
 774 H774           5.8399    -0.4297   -27.8162 H       
 775 H775           6.8421     0.9380   -28.3576 H       
 776 H776           3.3886    -0.2570   -27.8172 H       
 777 H777           3.3805     1.3005   -26.9555 H       
 778 H778           2.2847     0.8264   -29.7646 H       
 779 H779           1.3042     0.9869   -28.2878 H       
 780 H780           2.2550     2.3704   -28.8795 H       
 781 H781           7.7457     5.2450   -32.7465 H       
 782 H782           5.9962     4.9280   -32.6628 H       
 783 H783           8.0957     3.5159   -30.9577 H       
 784 H784           5.3025     2.6289   -31.2798 H       
 785 H785           5.9980     5.5521   -30.2630 H       
 786 H786           7.7475     5.8692   -30.3467 H       
 787 H787           6.2197     9.1567   -30.9017 H       
 788 H788           9.6515    -0.1697   -34.9681 H       
 789 H789          10.2949     0.6490   -33.5245 H       
 790 H790           7.8788     1.6038   -35.1244 H       
 791 H791           9.2674     3.3277   -33.2197 H       
 792 H792           7.0741    -1.8573   -31.7649 H       
 793 H793           7.5567    -4.9549   -30.2234 H       
 794 H794          10.1204    -3.6130   -32.1271 H       
 795 H795           9.6693    -4.9263   -31.1813 H       
 796 H796           8.1060     0.3732   -32.3925 H       
 797 H797           7.4626    -0.4454   -33.8361 H       
 798 H798           9.8316    -1.3923   -32.1604 H       
 799 H799           9.1881    -2.2110   -33.6040 H       
 800 H800          11.0396     3.7500   -39.3095 H       
 801 H801           9.5555     2.7982   -39.0647 H       
 802 H802          11.8414     2.9900   -37.0531 H       
 803 H803           9.7930     0.9150   -36.8919 H       
 804 H804           8.5336     6.5909   -36.9856 H       
 805 H805           6.6422     9.1868   -38.3597 H       
 806 H806           7.8772     6.7218   -40.4563 H       
 807 H807           6.9770     8.1394   -40.4022 H       
 808 H808           9.0526     4.1082   -37.0203 H       
 809 H809          10.5367     5.0600   -37.2651 H       
 810 H810           8.1920     4.8866   -39.2116 H       
 811 H811           9.6760     5.8384   -39.4564 H       
 812 H812          12.3999     1.1646   -41.9529 H       
 813 H813          13.0591    -0.4883   -41.9086 H       
 814 H814          13.5614    -0.2232   -39.4949 H       
 815 H815          12.9400     2.6301   -39.4875 H       
 816 H816          10.3100    -0.6263   -41.9140 H       
 817 H817          17.6357     1.9515   -43.4889 H       
 818 H818          17.2700     1.5523   -41.0241 H       
 819 H819          15.2723    -0.5098   -41.5572 H       
 820 H820          15.7833     1.3639   -45.0290 H       
 821 H821          16.4947    -0.0955   -44.2993 H       
 822 H822          14.9413     0.5328   -43.6991 H       
 823 H823          14.8510     2.6688   -42.4674 H       
 824 H824          16.3468     3.5331   -42.0386 H       
 825 H825          15.7706     3.5331   -43.7227 H       
 826 H826          20.3950    -0.8296   -44.4163 H       
 827 H827          20.7451    -2.4863   -43.8677 H       
 828 H828          19.0591    -1.9571   -44.0812 H       
 829 H829          19.6857    -1.9865   -41.6822 H       
 830 H830          19.4361     0.8682   -42.2447 H       
 831 H831          25.8014    -1.8382   -41.9981 H       
 832 H832          24.5865    -3.1390   -42.0022 H       
 833 H833          23.9276    -0.1602   -42.0010 H       
 834 H834          22.2556    -2.5492   -42.1543 H       
 835 H835          25.9576    -3.4791   -44.2177 H       
 836 H836          25.2894    -2.7318   -45.5659 H       
 837 H837          26.7426    -2.5253   -38.2414 H       
 838 H838          25.9722    -2.2649   -36.6581 H       
 839 H839          24.4721    -0.5678   -37.6671 H       
 840 H840          25.9059    -0.5407   -40.2109 H       
 841 H841          25.0088    -4.6042   -37.7427 H       
 842 H842          27.6183     2.2381   -36.2891 H       
 843 H843          28.7174     0.3716   -34.1933 H       
 844 H844          28.0665     2.0335   -34.0097 H       
 845 H845          26.5629    -0.0994   -33.2262 H       
 846 H846          25.7819     1.2683   -34.0887 H       
 847 H847          25.1996    -0.5812   -35.5126 H       
 848 H848          26.7714    -1.3930   -35.2379 H       
 849 H849          31.6854     2.9652   -38.1371 H       
 850 H850          32.7208     1.6220   -38.6775 H       
 851 H851          30.9577     1.5339   -38.9053 H       
 852 H852          31.6780     0.1380   -36.9866 H       
 853 H853          30.2374     2.3202   -35.6866 H       
 854 H854          34.7713     2.8994   -34.9496 H       
 855 H855          34.2188     1.0263   -37.1207 H       
 856 H856          33.2202    -0.7463   -34.6379 H       
 857 H857          31.2282    -0.9448   -33.2041 H       
 858 H858          31.0034     0.4758   -31.2054 H       
 859 H859          32.7686     2.0977   -30.6428 H       
 860 H860          34.7584     2.2994   -32.0792 H       
 861 H861          35.5397    -0.0491   -34.7920 H       
 862 H862          36.1824     1.2210   -33.7233 H       
 863 H863          38.4874     3.5562   -37.1627 H       
 864 H864          38.9700     1.8712   -36.8524 H       
 865 H865          37.4474     2.7800   -34.6542 H       
 866 H866          40.9722     5.8080   -34.5957 H       
 867 H867          42.7096     5.8789   -34.2157 H       
 868 H868          41.9638     3.5491   -34.1199 H       
 869 H869          41.1690     3.4273   -36.9272 H       
 870 H870          42.1762     7.1304   -36.1791 H       
 871 H871          46.2524     5.6961   -36.1325 H       
 872 H872          47.2664     4.5088   -36.9872 H       
 873 H873          45.7621     2.6847   -36.1375 H       
 874 H874          44.4963     4.4670   -34.2013 H       
 875 H875          43.9019     6.2206   -37.2987 H       
 876 H876          42.7393     5.6922   -39.5144 H       
 877 H877          46.1035     3.2093   -39.0914 H       
 878 H878          50.7377     2.6458   -35.1201 H       
 879 H879          51.0851     2.3422   -33.4009 H       
 880 H880          48.7266     2.9000   -32.8381 H       
 881 H881          48.3857     2.9985   -35.7349 H       
 882 H882          50.2269    -0.9479   -34.8514 H       
 883 H883          52.6846     7.5138   -33.3632 H       
 884 H884          50.3430     6.9748   -32.6711 H       
 885 H885          50.9920     4.1787   -32.1343 H       
 886 H886          53.7016     5.5365   -32.4904 H       
 887 H887          50.8420     7.1062   -35.0330 H       
 888 H888          52.4626     6.7247   -35.6628 H       
 889 H889          51.3769     5.4123   -35.1460 H       
 890 H890          50.9350     6.8974   -28.3346 H       
 891 H891          52.0139     7.8218   -27.2623 H       
 892 H892          53.3061     6.9753   -29.1614 H       
 893 H893          51.7766     8.4377   -31.1738 H       
 894 H894          49.9991     9.0129   -27.7393 H       
 895 H895          56.0262    10.4776   -29.7371 H       
 896 H896          56.6069    11.6356   -28.5164 H       
 897 H897          54.0972    11.4999   -28.6373 H       
 898 H898          54.0909     8.8418   -27.4166 H       
 899 H899          56.2942     8.6424   -28.0221 H       
 900 H900          58.7886    10.2903   -28.6379 H       
 901 H901          58.7671     8.5679   -28.1897 H       
 902 H902          58.0384     9.0972   -29.7250 H       
 903 H903          57.3892    10.9972   -26.4520 H       
 904 H904          56.2064     9.7706   -25.9376 H       
 905 H905          57.9230     9.3336   -26.1119 H       
 906 H906          54.1985    13.8510   -23.4821 H       
 907 H907          53.8921    14.2881   -25.1801 H       
 908 H908          55.5818    11.9120   -24.2814 H       
 909 H909          55.6811    12.9530   -27.0080 H       
 910 H910          52.9279    11.9970   -25.5454 H       
 911 H911          52.3887    10.6322   -23.5466 H       
 912 H912          54.1468    10.8554   -23.7126 H       
 913 H913          53.2379    11.8080   -22.5148 H       
 914 H914          51.4684    13.9289   -25.0104 H       
 915 H915          50.8246    12.4271   -24.3045 H       
 916 H916          51.6738    13.6028   -23.2726 H       
 917 H917          56.6446    16.9042   -23.0166 H       
 918 H918          58.2857    17.3273   -23.5606 H       
 919 H919          58.7498    14.9353   -24.0205 H       
 920 H920          56.2820    14.0201   -22.7556 H       
 921 H921          56.4963    17.9614   -25.5537 H       
 922 H922          61.7670    14.9405   -20.6538 H       
 923 H923          61.2707    14.7419   -18.9560 H       
 924 H924          59.0656    15.7459   -19.4833 H       
 925 H925          59.8657    16.5503   -22.1741 H       
 926 H926          61.1112    12.3024   -20.2211 H       
 927 H927          63.6708    19.5973   -18.4270 H       
 928 H928          61.2136    19.4990   -18.7448 H       
 929 H929          61.0288    16.7076   -17.9073 H       
 930 H930          63.4948    16.7094   -18.1855 H       
 931 H931          62.7470    19.2421   -20.7005 H       
 932 H932          64.3049    18.4035   -20.5058 H       
 933 H933          62.7837    17.4816   -20.4404 H       
 934 H934          60.7689    21.1109   -13.3304 H       
 935 H935          60.6501    21.7847   -14.9736 H       
 936 H936          62.2189    19.2725   -14.2413 H       
 937 H937          62.6180    20.6779   -16.7698 H       
 938 H938          57.4234    18.7291   -15.0292 H       
 939 H939          54.0304    19.3831   -14.5155 H       
 940 H940          56.3504    21.8172   -13.6852 H       
 941 H941          54.7108    21.4518   -13.7165 H       
 942 H942          59.6637    19.6556   -15.7753 H       
 943 H943          59.7826    18.9818   -14.1321 H       
 944 H944          58.1745    21.4499   -14.9318 H       
 945 H945          58.2934    20.7761   -13.2886 H       
 946 H946          63.8743    22.3600   -10.5513 H       
 947 H947          65.0398    23.6279   -11.0014 H       
 948 H948          64.8171    22.9680   -13.3900 H       
 949 H949          62.7222    21.1945   -12.3818 H       
 950 H950          61.7386    25.2877   -10.8896 H       
 951 H951          69.8841    20.9977   -10.6076 H       
 952 H952          69.2347    22.6159   -10.9652 H       
 953 H953          67.6976    20.0114   -11.3665 H       
 954 H954          66.9524    22.8179   -11.7096 H       
 955 H955          69.7604    22.6454    -8.3910 H       
 956 H956          68.4547    22.2417    -7.4139 H       
 957 H957          72.2670    21.0923   -13.7339 H       
 958 H958          72.0704    20.9865   -15.4998 H       
 959 H959          69.8483    19.9309   -15.1892 H       
 960 H960          70.1924    19.6172   -12.3063 H       
 961 H961          71.5940    23.5784   -14.7049 H       
 962 H962          74.4803    16.1578   -16.5093 H       
 963 H963          73.6156    17.4188   -17.4206 H       
 964 H964          73.1776    16.8113   -14.4629 H       
 965 H965          72.0951    18.8682   -16.2308 H       
 966 H966          76.2580    17.9466   -17.4593 H       
 967 H967          76.7065    19.0856   -16.3086 H       
@<TRIPOS>BOND
   1    1    6 1
   2    1  499 1
   3    1  500 1
   4    1  501 1
   5    2  493 1
   6    2  502 1
   7    2  503 1
   8    2  504 1
   9    3    8 1
  10    3    4 1
  11    3  505 1
  12    3  506 1
  13    4    6 1
  14    4    5 1
  15    4  507 1
  16    5    7 2
  17    5   14 am
  18    6  508 1
  19    8    9 1
  20    8   10 1
  21    8  509 1
  22    9  510 1
  23    9  511 1
  24    9  512 1
  25   10  513 1
  26   10  514 1
  27   10  515 1
  28   11   12 1
  29   11   16 1
  30   11   17 1
  31   11  516 1
  32   12   14 1
  33   12   13 1
  34   12  517 1
  35   13   15 2
  36   13   21 am
  37   14  518 1
  38   16  519 1
  39   17  520 1
  40   17  521 1
  41   17  522 1
  42   18   23 1
  43   18   19 1
  44   18  523 1
  45   18  524 1
  46   19   20 1
  47   19   21 1
  48   19  525 1
  49   20   22 2
  50   20   27 am
  51   21  526 1
  52   23  527 1
  53   24   29 1
  54   24   25 1
  55   24  528 1
  56   24  529 1
  57   25   27 1
  58   25   26 1
  59   25  530 1
  60   26   28 2
  61   26   36 am
  62   27  531 1
  63   29   30 1
  64   29  532 1
  65   29  533 1
  66   30   31 1
  67   30  534 1
  68   30  535 1
  69   31   32 1
  70   31  536 1
  71   31  537 1
  72   32  538 1
  73   32  539 1
  74   33   34 1
  75   33   38 1
  76   33   39 1
  77   33  540 1
  78   34   36 1
  79   34   35 1
  80   34  541 1
  81   35   37 2
  82   35   43 am
  83   36  542 1
  84   38  543 1
  85   39  544 1
  86   39  545 1
  87   39  546 1
  88   40   45 1
  89   40   41 1
  90   40  547 1
  91   40  548 1
  92   41   42 1
  93   41   43 1
  94   41  549 1
  95   42   44 2
  96   42   47 am
  97   43  550 1
  98   45  551 1
  99   46   52 2
 100   46   55 am
 101   46   48 1
 102   47   51 1
 103   47   48 1
 104   48   49 1
 105   48  552 1
 106   49   50 1
 107   49  553 1
 108   49  554 1
 109   50   51 1
 110   50  555 1
 111   50  556 1
 112   51  557 1
 113   51  558 1
 114   53   54 1
 115   53   55 1
 116   53   63 1
 117   53  559 1
 118   54   56 2
 119   54   67 am
 120   55  560 1
 121   57   58 ar
 122   57   62 ar
 123   57  561 1
 124   58   59 ar
 125   58  562 1
 126   59   60 ar
 127   59  563 1
 128   60   61 ar
 129   60  564 1
 130   61   62 ar
 131   61  565 1
 132   62   63 1
 133   63  566 1
 134   63  567 1
 135   64   65 1
 136   64   69 1
 137   64   70 1
 138   64  568 1
 139   65   67 1
 140   65   66 1
 141   65  569 1
 142   66   68 2
 143   66   74 am
 144   67  570 1
 145   69  571 1
 146   70  572 1
 147   70  573 1
 148   70  574 1
 149   71   72 1
 150   71   76 1
 151   71   77 1
 152   71  575 1
 153   72   74 1
 154   72   73 1
 155   72  576 1
 156   73   75 2
 157   73   81 am
 158   74  577 1
 159   76  578 1
 160   77  579 1
 161   77  580 1
 162   77  581 1
 163   78   83 1
 164   78   79 1
 165   78  582 1
 166   78  583 1
 167   79   80 1
 168   79   81 1
 169   79  584 1
 170   80   82 2
 171   80   85 am
 172   81  585 1
 173   83  586 1
 174   84   90 2
 175   84   94 am
 176   84   86 1
 177   85   89 1
 178   85   86 1
 179   86   87 1
 180   86  587 1
 181   87   88 1
 182   87  588 1
 183   87  589 1
 184   88   89 1
 185   88  590 1
 186   88  591 1
 187   89  592 1
 188   89  593 1
 189   91   96 1
 190   91   92 1
 191   91  594 1
 192   91  595 1
 193   92   94 1
 194   92   93 1
 195   92  596 1
 196   93   95 2
 197   93  102 am
 198   94  597 1
 199   96   97 am
 200   96   98 2
 201   97  598 1
 202   97  599 1
 203   99  104 1
 204   99  100 1
 205   99  600 1
 206   99  601 1
 207  100  102 1
 208  100  101 1
 209  100  602 1
 210  101  103 2
 211  101  108 am
 212  102  603 1
 213  104  604 1
 214  105  110 1
 215  105  106 1
 216  105  605 1
 217  105  606 1
 218  106  108 1
 219  106  107 1
 220  106  607 1
 221  107  109 2
 222  107  117 am
 223  108  608 1
 224  110  111 1
 225  110  609 1
 226  110  610 1
 227  111  112 2
 228  111  113 1
 229  113  611 1
 230  114  119 1
 231  114  115 1
 232  114  612 1
 233  114  613 1
 234  115  117 1
 235  115  116 1
 236  115  614 1
 237  116  118 2
 238  116  123 am
 239  117  615 1
 240  119  616 1
 241  120  125 1
 242  120  121 1
 243  120  617 1
 244  120  618 1
 245  121  122 1
 246  121  123 1
 247  121  619 1
 248  122  124 2
 249  122  127 am
 250  123  620 1
 251  125  621 1
 252  126  132 2
 253  126  135 am
 254  126  128 1
 255  127  131 1
 256  127  128 1
 257  128  129 1
 258  128  622 1
 259  129  130 1
 260  129  623 1
 261  129  624 1
 262  130  131 1
 263  130  625 1
 264  130  626 1
 265  131  627 1
 266  131  628 1
 267  133  134 1
 268  133  135 1
 269  133  629 1
 270  133  630 1
 271  134  136 2
 272  134  139 am
 273  135  631 1
 274  137  138 1
 275  137  139 1
 276  137  632 1
 277  137  633 1
 278  138  140 2
 279  138  144 am
 280  139  634 1
 281  141  146 1
 282  141  142 1
 283  141  635 1
 284  141  636 1
 285  142  144 1
 286  142  143 1
 287  142  637 1
 288  143  145 2
 289  143  153 am
 290  144  638 1
 291  146  147 1
 292  146  639 1
 293  146  640 1
 294  147  148 2
 295  147  149 am
 296  149  641 1
 297  149  642 1
 298  150  155 1
 299  150  151 1
 300  150  643 1
 301  150  644 1
 302  151  153 1
 303  151  152 1
 304  151  645 1
 305  152  154 2
 306  152  159 am
 307  153  646 1
 308  155  647 1
 309  156  157 1
 310  156  161 1
 311  156  162 1
 312  156  648 1
 313  157  159 1
 314  157  158 1
 315  157  649 1
 316  158  160 2
 317  158  167 am
 318  159  650 1
 319  161  651 1
 320  161  652 1
 321  161  653 1
 322  162  163 1
 323  162  654 1
 324  162  655 1
 325  163  656 1
 326  163  657 1
 327  163  658 1
 328  164  169 1
 329  164  165 1
 330  164  659 1
 331  164  660 1
 332  165  166 1
 333  165  167 1
 334  165  661 1
 335  166  168 2
 336  166  173 am
 337  167  662 1
 338  169  663 1
 339  170  175 1
 340  170  171 1
 341  170  664 1
 342  170  665 1
 343  171  172 1
 344  171  173 1
 345  171  666 1
 346  172  174 2
 347  172  185 am
 348  173  667 1
 349  175  176 ar
 350  175  180 ar
 351  176  177 ar
 352  176  668 1
 353  177  178 ar
 354  177  669 1
 355  178  179 ar
 356  178  181 1
 357  179  180 ar
 358  179  670 1
 359  180  671 1
 360  181  672 1
 361  182  187 1
 362  182  183 1
 363  182  673 1
 364  182  674 1
 365  183  185 1
 366  183  184 1
 367  183  675 1
 368  184  186 2
 369  184  194 am
 370  185  676 1
 371  187  188 1
 372  187  677 1
 373  187  678 1
 374  188  189 2
 375  188  190 am
 376  190  679 1
 377  190  680 1
 378  191  200 1
 379  191  192 1
 380  191  681 1
 381  191  682 1
 382  192  194 1
 383  192  193 1
 384  192  683 1
 385  193  195 2
 386  193  205 am
 387  194  684 1
 388  196  201 1
 389  196  197 1
 390  196  685 1
 391  197  198 2
 392  197  199 1
 393  198  686 1
 394  199  687 1
 395  199  688 1
 396  200  201 1
 397  200  689 1
 398  200  690 1
 399  201  691 1
 400  201  692 1
 401  202  207 1
 402  202  203 1
 403  202  693 1
 404  202  694 1
 405  203  205 1
 406  203  204 1
 407  203  695 1
 408  204  206 2
 409  204  214 am
 410  205  696 1
 411  207  208 1
 412  207  697 1
 413  207  698 1
 414  208  209 1
 415  208  699 1
 416  208  700 1
 417  209  210 1
 418  209  701 1
 419  209  702 1
 420  210  703 1
 421  210  704 1
 422  211  216 1
 423  211  212 1
 424  211  705 1
 425  211  706 1
 426  212  213 1
 427  212  214 1
 428  212  707 1
 429  213  215 2
 430  213  228 am
 431  214  708 1
 432  216  217 2
 433  216  220 1
 434  217  218 1
 435  217  709 1
 436  218  219 1
 437  218  710 1
 438  219  220 ar
 439  219  221 ar
 440  220  224 ar
 441  221  222 ar
 442  221  711 1
 443  222  223 ar
 444  222  712 1
 445  223  224 ar
 446  223  713 1
 447  224  714 1
 448  225  230 1
 449  225  226 1
 450  225  715 1
 451  225  716 1
 452  226  228 1
 453  226  227 1
 454  226  717 1
 455  227  229 2
 456  227  237 am
 457  228  718 1
 458  230  231 1
 459  230  719 1
 460  230  720 1
 461  231  232 2
 462  231  233 1
 463  233  721 1
 464  234  239 1
 465  234  235 1
 466  234  722 1
 467  234  723 1
 468  235  237 1
 469  235  236 1
 470  235  724 1
 471  236  238 2
 472  236  246 am
 473  237  725 1
 474  239  240 1
 475  239  726 1
 476  239  727 1
 477  240  241 2
 478  240  242 1
 479  242  728 1
 480  243  248 1
 481  243  244 1
 482  243  729 1
 483  243  730 1
 484  244  245 1
 485  244  246 1
 486  244  731 1
 487  245  247 2
 488  245  256 am
 489  246  732 1
 490  248  249 1
 491  248  252 2
 492  249  250 1
 493  249  733 1
 494  250  251 2
 495  250  734 1
 496  251  252 1
 497  252  735 1
 498  253  262 1
 499  253  254 1
 500  253  736 1
 501  253  737 1
 502  254  256 1
 503  254  255 1
 504  254  738 1
 505  255  257 2
 506  255  266 am
 507  256  739 1
 508  258  263 1
 509  258  259 1
 510  258  740 1
 511  259  260 2
 512  259  261 1
 513  260  741 1
 514  261  742 1
 515  261  743 1
 516  262  263 1
 517  262  744 1
 518  262  745 1
 519  263  746 1
 520  263  747 1
 521  264  265 1
 522  264  266 1
 523  264  748 1
 524  264  749 1
 525  265  267 2
 526  265  271 am
 527  266  750 1
 528  268  273 1
 529  268  269 1
 530  268  751 1
 531  268  752 1
 532  269  271 1
 533  269  270 1
 534  269  753 1
 535  270  272 2
 536  270  280 am
 537  271  754 1
 538  273  274 1
 539  273  755 1
 540  273  756 1
 541  274  275 2
 542  274  276 1
 543  276  757 1
 544  277  286 1
 545  277  278 1
 546  277  758 1
 547  277  759 1
 548  278  280 1
 549  278  279 1
 550  278  760 1
 551  279  281 2
 552  279  291 am
 553  280  761 1
 554  282  287 1
 555  282  283 1
 556  282  762 1
 557  283  284 2
 558  283  285 1
 559  284  763 1
 560  285  764 1
 561  285  765 1
 562  286  287 1
 563  286  766 1
 564  286  767 1
 565  287  768 1
 566  287  769 1
 567  288  289 1
 568  288  293 1
 569  288  294 1
 570  288  770 1
 571  289  291 1
 572  289  290 1
 573  289  771 1
 574  290  292 2
 575  290  299 am
 576  291  772 1
 577  293  773 1
 578  293  774 1
 579  293  775 1
 580  294  295 1
 581  294  776 1
 582  294  777 1
 583  295  778 1
 584  295  779 1
 585  295  780 1
 586  296  301 1
 587  296  297 1
 588  296  781 1
 589  296  782 1
 590  297  299 1
 591  297  298 1
 592  297  783 1
 593  298  300 2
 594  298  308 am
 595  299  784 1
 596  301  302 1
 597  301  785 1
 598  301  786 1
 599  302  303 2
 600  302  304 1
 601  304  787 1
 602  305  314 1
 603  305  306 1
 604  305  788 1
 605  305  789 1
 606  306  308 1
 607  306  307 1
 608  306  790 1
 609  307  309 2
 610  307  319 am
 611  308  791 1
 612  310  315 1
 613  310  311 1
 614  310  792 1
 615  311  312 2
 616  311  313 1
 617  312  793 1
 618  313  794 1
 619  313  795 1
 620  314  315 1
 621  314  796 1
 622  314  797 1
 623  315  798 1
 624  315  799 1
 625  316  325 1
 626  316  317 1
 627  316  800 1
 628  316  801 1
 629  317  319 1
 630  317  318 1
 631  317  802 1
 632  318  320 2
 633  318  330 am
 634  319  803 1
 635  321  326 1
 636  321  322 1
 637  321  804 1
 638  322  323 2
 639  322  324 1
 640  323  805 1
 641  324  806 1
 642  324  807 1
 643  325  326 1
 644  325  808 1
 645  325  809 1
 646  326  810 1
 647  326  811 1
 648  327  332 1
 649  327  328 1
 650  327  812 1
 651  327  813 1
 652  328  329 1
 653  328  330 1
 654  328  814 1
 655  329  331 2
 656  329  336 am
 657  330  815 1
 658  332  816 1
 659  333  338 1
 660  333  339 1
 661  333  334 1
 662  333  817 1
 663  334  336 1
 664  334  335 1
 665  334  818 1
 666  335  337 2
 667  335  343 am
 668  336  819 1
 669  338  820 1
 670  338  821 1
 671  338  822 1
 672  339  823 1
 673  339  824 1
 674  339  825 1
 675  340  341 1
 676  340  826 1
 677  340  827 1
 678  340  828 1
 679  341  342 1
 680  341  343 1
 681  341  829 1
 682  342  344 2
 683  342  348 am
 684  343  830 1
 685  345  350 1
 686  345  346 1
 687  345  831 1
 688  345  832 1
 689  346  348 1
 690  346  347 1
 691  346  833 1
 692  347  349 2
 693  347  356 am
 694  348  834 1
 695  350  351 am
 696  350  352 2
 697  351  835 1
 698  351  836 1
 699  353  358 1
 700  353  354 1
 701  353  837 1
 702  353  838 1
 703  354  355 1
 704  354  356 1
 705  354  839 1
 706  355  357 2
 707  355  360 am
 708  356  840 1
 709  358  841 1
 710  359  365 2
 711  359  369 am
 712  359  361 1
 713  360  364 1
 714  360  361 1
 715  361  362 1
 716  361  842 1
 717  362  363 1
 718  362  843 1
 719  362  844 1
 720  363  364 1
 721  363  845 1
 722  363  846 1
 723  364  847 1
 724  364  848 1
 725  366  367 1
 726  366  849 1
 727  366  850 1
 728  366  851 1
 729  367  368 1
 730  367  369 1
 731  367  852 1
 732  368  370 2
 733  368  373 am
 734  369  853 1
 735  371  372 1
 736  371  373 1
 737  371  381 1
 738  371  854 1
 739  372  374 2
 740  372  384 am
 741  373  855 1
 742  375  376 ar
 743  375  380 ar
 744  375  856 1
 745  376  377 ar
 746  376  857 1
 747  377  378 ar
 748  377  858 1
 749  378  379 ar
 750  378  859 1
 751  379  380 ar
 752  379  860 1
 753  380  381 1
 754  381  861 1
 755  381  862 1
 756  382  383 1
 757  382  384 1
 758  382  863 1
 759  382  864 1
 760  383  385 2
 761  383  389 am
 762  384  865 1
 763  386  391 1
 764  386  387 1
 765  386  866 1
 766  386  867 1
 767  387  389 1
 768  387  388 1
 769  387  868 1
 770  388  390 2
 771  388  395 am
 772  389  869 1
 773  391  870 1
 774  392  397 1
 775  392  393 1
 776  392  871 1
 777  392  872 1
 778  393  394 1
 779  393  395 1
 780  393  873 1
 781  394  396 2
 782  394  405 am
 783  395  874 1
 784  397  398 1
 785  397  401 2
 786  398  399 1
 787  398  875 1
 788  399  400 2
 789  399  876 1
 790  400  401 1
 791  401  877 1
 792  402  407 1
 793  402  403 1
 794  402  878 1
 795  402  879 1
 796  403  404 1
 797  403  405 1
 798  403  880 1
 799  404  406 2
 800  404  413 am
 801  405  881 1
 802  407  408 2
 803  407  409 1
 804  409  882 1
 805  410  411 1
 806  410  415 1
 807  410  416 1
 808  410  883 1
 809  411  413 1
 810  411  412 1
 811  411  884 1
 812  412  414 2
 813  412  420 am
 814  413  885 1
 815  415  886 1
 816  416  887 1
 817  416  888 1
 818  416  889 1
 819  417  422 1
 820  417  418 1
 821  417  890 1
 822  417  891 1
 823  418  420 1
 824  418  419 1
 825  418  892 1
 826  419  421 2
 827  419  426 am
 828  420  893 1
 829  422  894 1
 830  423  428 1
 831  423  424 1
 832  423  895 1
 833  423  896 1
 834  424  426 1
 835  424  425 1
 836  424  897 1
 837  425  427 2
 838  425  434 am
 839  426  898 1
 840  428  429 1
 841  428  430 1
 842  428  899 1
 843  429  900 1
 844  429  901 1
 845  429  902 1
 846  430  903 1
 847  430  904 1
 848  430  905 1
 849  431  436 1
 850  431  432 1
 851  431  906 1
 852  431  907 1
 853  432  434 1
 854  432  433 1
 855  432  908 1
 856  433  435 2
 857  433  442 am
 858  434  909 1
 859  436  437 1
 860  436  438 1
 861  436  910 1
 862  437  911 1
 863  437  912 1
 864  437  913 1
 865  438  914 1
 866  438  915 1
 867  438  916 1
 868  439  444 1
 869  439  440 1
 870  439  917 1
 871  439  918 1
 872  440  441 1
 873  440  442 1
 874  440  919 1
 875  441  443 2
 876  441  448 am
 877  442  920 1
 878  444  921 1
 879  445  450 1
 880  445  446 1
 881  445  922 1
 882  445  923 1
 883  446  447 1
 884  446  448 1
 885  446  924 1
 886  447  449 2
 887  447  454 am
 888  448  925 1
 889  450  926 1
 890  451  452 1
 891  451  456 1
 892  451  457 1
 893  451  927 1
 894  452  454 1
 895  452  453 1
 896  452  928 1
 897  453  455 2
 898  453  461 am
 899  454  929 1
 900  456  930 1
 901  457  931 1
 902  457  932 1
 903  457  933 1
 904  458  467 1
 905  458  459 1
 906  458  934 1
 907  458  935 1
 908  459  461 1
 909  459  460 1
 910  459  936 1
 911  460  462 2
 912  460  472 am
 913  461  937 1
 914  463  468 1
 915  463  464 1
 916  463  938 1
 917  464  465 2
 918  464  466 1
 919  465  939 1
 920  466  940 1
 921  466  941 1
 922  467  468 1
 923  467  942 1
 924  467  943 1
 925  468  944 1
 926  468  945 1
 927  469  474 1
 928  469  470 1
 929  469  946 1
 930  469  947 1
 931  470  471 1
 932  470  472 1
 933  470  948 1
 934  471  473 2
 935  471  480 am
 936  472  949 1
 937  474  475 2
 938  474  476 1
 939  476  950 1
 940  477  482 1
 941  477  478 1
 942  477  951 1
 943  477  952 1
 944  478  480 1
 945  478  479 1
 946  478  953 1
 947  479  481 2
 948  479  488 am
 949  480  954 1
 950  482  483 am
 951  482  484 2
 952  483  955 1
 953  483  956 1
 954  485  490 1
 955  485  486 1
 956  485  957 1
 957  485  958 1
 958  486  487 1
 959  486  488 1
 960  486  959 1
 961  487  489 2
 962  487  494 am
 963  488  960 1
 964  490  961 1
 965  491  496 1
 966  491  492 1
 967  491  962 1
 968  491  963 1
 969  492  494 1
 970  492  493 1
 971  492  964 1
 972  493  495 2
 973  494  965 1
 974  496  497 am
 975  496  498 2
 976  497  966 1
 977  497  967 1

#	End of record

