#	Name: ASD03430823
#	Creating user name:	WinNT
#	Creation time:	15. 06. 2019 20:41

#	Modifying user name:	WinNT
#	Modification time:	15. 06. 2019 20:41

#	Program:	/corina/corina34_cracker 3.40 0067  02.08.2006

@<TRIPOS>MOLECULE
ASD03430823
  48   53    0    0    0
SMALL
NO_CHARGES


@<TRIPOS>ATOM
   1 C1             0.0021    -0.0041     0.0020 C.1     
   2 C2            -0.0173     1.4278     0.0099 C.ar    
   3 C3             1.1804     2.1455     0.0023 C.ar    
   4 C4             1.1544     3.5247     0.0100 C.ar    
   5 C5            -0.0549     4.1969     0.0257 C.ar    
   6 C6            -1.2455     3.4920     0.0337 C.ar    
   7 C7            -1.2341     2.1126     0.0194 C.ar    
   8 N8             0.0175    -1.1399    -0.0042 N.1     
   9 C9            -0.0753     5.7037     0.0345 C.3     
  10 O10           -1.5933     8.2571    -5.1226 O.3     
  11 C11           -1.8015     6.9599    -5.4875 C.ar    
  12 C12           -1.3395     6.0818    -4.5098 C.ar    
  13 C13           -0.7948     6.9305    -3.3933 C.3     
  14 C14           -1.3623     8.3229    -3.7025 C.3     
  15 O15           -3.0127     4.3725    -7.8723 O.3     
  16 C16           -3.3007     3.0288    -7.4507 C.3     
  17 C17           -2.2783     2.8003    -6.3123 C.3     
  18 C18           -2.0176     4.2167    -5.8384 C.ar    
  19 C19           -2.4912     5.0713    -6.8261 C.ar    
  20 C20           -1.4445     4.7192    -4.6905 C.ar    
  21 C21           -2.3795     6.4447    -6.6409 C.ar    
  22 N22           -0.0954     6.1999    -1.3438 N.am    
  23 C23           -1.2241     6.4400    -2.0407 C.2     
  24 C24            0.7047     6.9342    -3.3578 C.ar    
  25 C25            1.6765     7.2758    -4.2716 C.ar    
  26 C26            3.0137     7.1671    -3.9336 C.ar    
  27 C27            3.3712     6.7149    -2.6765 C.ar    
  28 C28            2.4014     6.3725    -1.7575 C.ar    
  29 C29            1.0527     6.4798    -2.0886 C.ar    
  30 O30           -2.3630     6.2894    -1.6515 O.2     
  31 H31            2.1250     1.6220    -0.0092 H       
  32 H32            2.0800     4.0810     0.0042 H       
  33 H33           -2.1859     4.0230     0.0463 H       
  34 H34           -2.1642     1.5637     0.0208 H       
  35 H35           -0.9651     6.0519     0.5591 H       
  36 H36            0.8146     6.0762     0.5418 H       
  37 H37           -0.6350     9.0990    -3.4642 H       
  38 H38           -2.2964     8.4883    -3.1656 H       
  39 H39           -4.3209     2.9523    -7.0746 H       
  40 H40           -3.1347     2.3244    -8.2658 H       
  41 H41           -2.7114     2.1962    -5.5150 H       
  42 H42           -1.3656     2.3429    -6.6941 H       
  43 H43           -1.0769     4.0447    -3.9314 H       
  44 H44           -2.7462     7.1180    -7.4015 H       
  45 H45            1.3948     7.6291    -5.2526 H       
  46 H46            3.7765     7.4345    -4.6499 H       
  47 H47            4.4151     6.6295    -2.4130 H       
  48 H48            2.6887     6.0200    -0.7780 H       
@<TRIPOS>BOND
   1    1    2 1
   2    1    8 3
   3    2    3 ar
   4    2    7 ar
   5    3    4 ar
   6    3   31 1
   7    4    5 ar
   8    4   32 1
   9    5    6 ar
  10    5    9 1
  11    6    7 ar
  12    6   33 1
  13    7   34 1
  14    9   22 1
  15    9   35 1
  16    9   36 1
  17   10   11 1
  18   10   14 1
  19   11   12 ar
  20   11   21 ar
  21   12   13 1
  22   12   20 ar
  23   13   14 1
  24   13   23 1
  25   13   24 1
  26   14   37 1
  27   14   38 1
  28   15   16 1
  29   15   19 1
  30   16   17 1
  31   16   39 1
  32   16   40 1
  33   17   18 1
  34   17   41 1
  35   17   42 1
  36   18   19 ar
  37   18   20 ar
  38   19   21 ar
  39   20   43 1
  40   21   44 1
  41   22   23 am
  42   22   29 1
  43   23   30 2
  44   24   25 ar
  45   24   29 ar
  46   25   26 ar
  47   25   45 1
  48   26   27 ar
  49   26   46 1
  50   27   28 ar
  51   27   47 1
  52   28   29 ar
  53   28   48 1

#	End of record

