#	Name: ASD02198253
#	Creating user name:	WinNT
#	Creation time:	15. 06. 2019 20:19

#	Modifying user name:	WinNT
#	Modification time:	15. 06. 2019 20:19

#	Program:	/corina/corina34_cracker 3.40 0067  02.08.2006

@<TRIPOS>MOLECULE
ASD02198253
  47   49    0    0    0
SMALL
NO_CHARGES


@<TRIPOS>ATOM
   1 C1            -0.0166     1.3759     0.0096 C.2     
   2 C2             0.0021    -0.0041     0.0020 C.2     
   3 C3            -1.2154    -0.8198     0.0088 C.2     
   4 S4             1.5676     2.0058    -0.0021 S.3     
   5 C5             2.2774     0.3995    -0.0175 C.2     
   6 C6             1.2835    -0.5516    -0.0132 C.2     
   7 C7             3.6585     0.1258    -0.0326 C.2     
   8 C8             4.6310     1.2363    -0.0359 C.2     
   9 O9             4.0514    -1.0290    -0.0430 O.2     
  10 N10            1.5311    -1.9139    -0.0233 N.pl3   
  11 N11           -1.1583     2.1393     0.0194 N.pl3   
  12 C12           -1.0619     3.6011     0.0268 C.3     
  13 C13           -2.3358     4.1993    -0.5733 C.3     
  14 O14            4.3521     2.5531    -0.0253 O.3     
  15 N15           -1.7645    -1.2012     1.1791 N.am    
  16 O16           -1.7306    -1.1529    -1.0424 O.2     
  17 N17            5.3576     3.2239    -0.0315 N.2     
  18 C18            6.4371     2.4820    -0.0468 C.2     
  19 C19            5.9938     1.1319    -0.0443 C.2     
  20 C20            7.8434     2.9570    -0.0582 C.ar    
  21 C21            8.1197     4.3227    -0.0524 C.ar    
  22 C22            8.8909     2.0387    -0.0691 C.ar    
  23 C23           10.1971     2.4845    -0.0797 C.ar    
  24 C24           10.4678     3.8417    -0.0797 C.ar    
  25 C25            9.4296     4.7596    -0.0632 C.ar    
  26 C26           -2.4370     3.8079    -2.0489 C.3     
  27 Cl27           9.7762     6.4606    -0.0638 Cl      
  28 Cl28          12.1128     4.3961    -0.0931 Cl      
  29 C29           -0.8958     4.0940     1.4657 C.3     
  30 H30            2.4443    -2.2408    -0.0344 H       
  31 H31            0.7914    -2.5413    -0.0192 H       
  32 H32           -2.0284     1.7106     0.0213 H       
  33 H33           -0.2009     3.9115    -0.5652 H       
  34 H34           -3.2043     3.8182    -0.0359 H       
  35 H35           -2.3029     5.2854    -0.4869 H       
  36 H36           -1.3539    -0.9357     2.0168 H       
  37 H37           -2.5704    -1.7411     1.1835 H       
  38 H38            6.5933     0.2336    -0.0537 H       
  39 H39            7.3109     5.0383    -0.0399 H       
  40 H40            8.6812     0.9793    -0.0687 H       
  41 H41           11.0095     1.7729    -0.0878 H       
  42 H42           -3.3446     4.2340    -2.4764 H       
  43 H43           -1.5686     4.1889    -2.5862 H       
  44 H44           -2.4699     2.7218    -2.1353 H       
  45 H45           -1.7568     3.7836     2.0578 H       
  46 H46            0.0118     3.6678     1.8933 H       
  47 H47           -0.8241     5.1816     1.4713 H       
@<TRIPOS>BOND
   1    1    2 2
   2    1    4 1
   3    1   11 1
   4    2    3 1
   5    2    6 1
   6    3   15 am
   7    3   16 2
   8    4    5 1
   9    5    6 2
  10    5    7 1
  11    6   10 1
  12    7    8 1
  13    7    9 2
  14    8   14 1
  15    8   19 2
  16   10   30 1
  17   10   31 1
  18   11   12 1
  19   11   32 1
  20   12   13 1
  21   12   29 1
  22   12   33 1
  23   13   26 1
  24   13   34 1
  25   13   35 1
  26   14   17 1
  27   15   36 1
  28   15   37 1
  29   17   18 2
  30   18   19 1
  31   18   20 1
  32   19   38 1
  33   20   21 ar
  34   20   22 ar
  35   21   25 ar
  36   21   39 1
  37   22   23 ar
  38   22   40 1
  39   23   24 ar
  40   23   41 1
  41   24   25 ar
  42   24   28 1
  43   25   27 1
  44   26   42 1
  45   26   43 1
  46   26   44 1
  47   29   45 1
  48   29   46 1
  49   29   47 1

#	End of record

