#	Name: ASD01150340
#	Creating user name:	WinNT
#	Creation time:	15. 06. 2019 19:04

#	Modifying user name:	WinNT
#	Modification time:	15. 06. 2019 19:04

#	Program:	/corina/corina34_cracker 3.40 0067  02.08.2006

@<TRIPOS>MOLECULE
ASD01150340
  56   58    0    0    0
SMALL
NO_CHARGES


@<TRIPOS>ATOM
   1 N1            -0.0169     1.3927     0.0097 N.pl3   
   2 C2             0.0021    -0.0041     0.0020 C.2     
   3 C3            -1.3281    -0.4051     0.0126 C.2     
   4 N4            -2.0858     0.6950     0.0257 N.2     
   5 C5            -1.3234     1.7683     0.0301 C.2     
   6 C6             1.1389    -0.8368    -0.0137 C.2     
   7 C7             1.0964     2.2430     0.0036 C.ar    
   8 C8             1.3307     3.0747    -1.0833 C.ar    
   9 C9             2.4290     3.9122    -1.0861 C.ar    
  10 C10            3.2950     3.9227    -0.0081 C.ar    
  11 C11            3.0647     3.0953     1.0756 C.ar    
  12 C12            1.9648     2.2600     1.0870 C.ar    
  13 N13           -1.7777     3.0669     0.0436 N.3     
  14 C14           -3.2461     3.1108     0.0520 C.3     
  15 C15           -1.2224     3.8071     1.1845 C.3     
  16 O16            1.0069    -2.0474    -0.0189 O.2     
  17 O17            2.3747    -0.2923    -0.0230 O.3     
  18 C18            3.4817    -1.1958    -0.0388 C.3     
  19 C19            3.4083    -2.0704    -1.2921 C.3     
  20 C20            4.7888    -0.4008    -0.0475 C.3     
  21 C21            3.4330    -2.0838     1.2062 C.3     
  22 N22           -1.7882    -1.7165     0.0095 N.am    
  23 C23           -3.1127    -1.9660     0.0208 C.2     
  24 O24           -3.9051    -1.0435     0.0338 O.2     
  25 C25           -3.6002    -3.3555     0.0176 C.2     
  26 C26           -2.8051    -4.5242     0.0037 C.2     
  27 N27           -3.6031    -5.5557     0.0058 N.2     
  28 N28           -4.9279    -5.1058     0.0209 N.pl3   
  29 C29           -4.9219    -3.7624     0.0336 C.2     
  30 Cl30          -6.3160    -2.7281     0.0556 Cl      
  31 C31           -6.1206    -5.9565     0.0277 C.3     
  32 H32            0.6551     3.0665    -1.9258 H       
  33 H33            2.6117     4.5594    -1.9312 H       
  34 H34            4.1533     4.5783    -0.0128 H       
  35 H35            3.7431     3.1055     1.9159 H       
  36 H36            1.7852     1.6142     1.9339 H       
  37 H37           -3.6197     2.6006     0.9398 H       
  38 H38           -3.5784     4.1488     0.0626 H       
  39 H39           -3.6295     2.6156    -0.8401 H       
  40 H40           -0.1346     3.8181     1.1157 H       
  41 H41           -1.5977     4.8304     1.1711 H       
  42 H42           -1.5228     3.3221     2.1133 H       
  43 H43            3.4429    -1.4378    -2.1791 H       
  44 H44            4.2527    -2.7596    -1.3042 H       
  45 H45            2.4770    -2.6368    -1.2859 H       
  46 H46            4.8411     0.2222     0.8454 H       
  47 H47            5.6332    -1.0900    -0.0596 H       
  48 H48            4.8235     0.2318    -0.9345 H       
  49 H49            2.5018    -2.6502     1.2124 H       
  50 H50            4.2774    -2.7730     1.1941 H       
  51 H51            3.4853    -1.4607     2.0991 H       
  52 H52           -1.1562    -2.4522    -0.0008 H       
  53 H53           -1.7257    -4.5571    -0.0071 H       
  54 H54           -6.4069    -6.1726     1.0570 H       
  55 H55           -6.9379    -5.4403    -0.4760 H       
  56 H56           -5.9045    -6.8894    -0.4928 H       
@<TRIPOS>BOND
   1    1    2 1
   2    1    7 1
   3    1    5 1
   4    2    3 2
   5    2    6 1
   6    3    4 1
   7    3   22 1
   8    4    5 2
   9    5   13 1
  10    6   16 2
  11    6   17 1
  12    7    8 ar
  13    7   12 ar
  14    8    9 ar
  15    8   32 1
  16    9   10 ar
  17    9   33 1
  18   10   11 ar
  19   10   34 1
  20   11   12 ar
  21   11   35 1
  22   12   36 1
  23   13   14 1
  24   13   15 1
  25   14   37 1
  26   14   38 1
  27   14   39 1
  28   15   40 1
  29   15   41 1
  30   15   42 1
  31   17   18 1
  32   18   19 1
  33   18   20 1
  34   18   21 1
  35   19   43 1
  36   19   44 1
  37   19   45 1
  38   20   46 1
  39   20   47 1
  40   20   48 1
  41   21   49 1
  42   21   50 1
  43   21   51 1
  44   22   23 am
  45   22   52 1
  46   23   24 2
  47   23   25 1
  48   25   26 1
  49   25   29 2
  50   26   27 2
  51   26   53 1
  52   27   28 1
  53   28   29 1
  54   28   31 1
  55   29   30 1
  56   31   54 1
  57   31   55 1
  58   31   56 1

#	End of record

