#	Name: ASD03730011
#	Creating user name:	WinNT
#	Creation time:	15. 06. 2019 20:43

#	Modifying user name:	WinNT
#	Modification time:	15. 06. 2019 20:43

#	Program:	/corina/corina34_cracker 3.40 0067  02.08.2006

@<TRIPOS>MOLECULE
ASD03730011
  55   61    0    0    0
SMALL
NO_CHARGES


@<TRIPOS>ATOM
   1 C1            -0.0162     1.3410     0.0094 C.2     
   2 N2             0.0021    -0.0041     0.0020 N.am    
   3 C3             1.2637    -0.4708    -0.0125 C.2     
   4 C4             2.1916     0.6799    -0.0152 C.ar    
   5 C5             3.5709     0.8108    -0.0273 C.ar    
   6 C6             4.1413     2.0742    -0.0256 C.ar    
   7 C7             3.3438     3.2031    -0.0119 C.ar    
   8 C8             1.9626     3.0875     0.0003 C.ar    
   9 C9             1.3783     1.8310    -0.0013 C.ar    
  10 O10           -1.0118     2.0364     0.0181 O.2     
  11 O11            1.5863    -1.6416    -0.0213 O.2     
  12 C12           -1.1944    -0.8494     0.0093 C.3     
  13 C13           -1.6253    -1.1359    -1.4305 C.3     
  14 C14           -2.8749    -2.0187    -1.4229 C.3     
  15 O15            0.5925    -2.1112    -7.7205 O.3     
  16 C16            0.6576    -2.3442    -9.1398 C.3     
  17 O17           -0.1315    -3.5337    -9.3280 O.3     
  18 C18           -1.0335    -3.5403    -8.3027 C.ar    
  19 C19           -0.5872    -2.6662    -7.3141 C.ar    
  20 C20           -2.2190    -4.2320    -8.1306 C.ar    
  21 C21           -2.9723    -4.0630    -6.9728 C.ar    
  22 C22           -2.5120    -3.1933    -5.9887 C.ar    
  23 C23           -1.3335    -2.4976    -6.1599 C.ar    
  24 O24           -4.1616    -4.6274    -6.6162 O.3     
  25 C25           -3.5136    -3.2471    -4.8662 C.3     
  26 C26           -4.3414    -4.4975    -5.1928 C.3     
  27 N27           -3.2874    -2.2931    -2.8015 N.am    
  28 C28           -2.8544    -3.3477    -3.5208 C.2     
  29 C29           -4.3648    -2.0138    -4.8010 C.ar    
  30 C30           -5.2038    -1.3884    -5.6960 C.ar    
  31 C31           -5.8697    -0.2322    -5.3301 C.ar    
  32 C32           -5.6900     0.2940    -4.0638 C.ar    
  33 C33           -4.8499    -0.3282    -3.1640 C.ar    
  34 C34           -4.1759    -1.4927    -3.5236 C.ar    
  35 O35           -2.0838    -4.2091    -3.1532 O.2     
  36 H36            4.1990    -0.0677    -0.0376 H       
  37 H37            5.2164     2.1772    -0.0346 H       
  38 H38            3.8001     4.1820    -0.0103 H       
  39 H39            1.3444     3.9730     0.0113 H       
  40 H40           -0.9726    -1.7886     0.5160 H       
  41 H41           -1.9995    -0.3349     0.5340 H       
  42 H42           -1.8471    -0.1966    -1.9371 H       
  43 H43           -0.8202    -1.6504    -1.9551 H       
  44 H44           -2.6531    -2.9580    -0.9162 H       
  45 H45           -3.6800    -1.5042    -0.8982 H       
  46 H46            0.2238    -1.5065    -9.6857 H       
  47 H47            1.6877    -2.5144    -9.4531 H       
  48 H48           -2.5623    -4.9077    -8.9000 H       
  49 H49           -0.9916    -1.8198    -5.3917 H       
  50 H50           -5.3920    -4.3411    -4.9480 H       
  51 H51           -3.9471    -5.3699    -4.6716 H       
  52 H52           -5.3424    -1.8010    -6.6844 H       
  53 H53           -6.5285     0.2581    -6.0315 H       
  54 H54           -6.2097     1.1967    -3.7782 H       
  55 H55           -4.7144     0.0891    -2.1771 H       
@<TRIPOS>BOND
   1    1    2 am
   2    1    9 1
   3    1   10 2
   4    2    3 am
   5    2   12 1
   6    3    4 1
   7    3   11 2
   8    4    5 ar
   9    4    9 ar
  10    5    6 ar
  11    5   36 1
  12    6    7 ar
  13    6   37 1
  14    7    8 ar
  15    7   38 1
  16    8    9 ar
  17    8   39 1
  18   12   13 1
  19   12   40 1
  20   12   41 1
  21   13   14 1
  22   13   42 1
  23   13   43 1
  24   14   27 1
  25   14   44 1
  26   14   45 1
  27   15   16 1
  28   15   19 1
  29   16   17 1
  30   16   46 1
  31   16   47 1
  32   17   18 1
  33   18   19 ar
  34   18   20 ar
  35   19   23 ar
  36   20   21 ar
  37   20   48 1
  38   21   22 ar
  39   21   24 1
  40   22   23 ar
  41   22   25 1
  42   23   49 1
  43   24   26 1
  44   25   26 1
  45   25   28 1
  46   25   29 1
  47   26   50 1
  48   26   51 1
  49   27   28 am
  50   27   34 1
  51   28   35 2
  52   29   30 ar
  53   29   34 ar
  54   30   31 ar
  55   30   52 1
  56   31   32 ar
  57   31   53 1
  58   32   33 ar
  59   32   54 1
  60   33   34 ar
  61   33   55 1

#	End of record

