#	Name: ASD01148929
#	Creating user name:	WinNT
#	Creation time:	15. 06. 2019 19:03

#	Modifying user name:	WinNT
#	Modification time:	15. 06. 2019 19:03

#	Program:	/corina/corina34_cracker 3.40 0067  02.08.2006

@<TRIPOS>MOLECULE
ASD01148929
  51   55    0    0    0
SMALL
NO_CHARGES


@<TRIPOS>ATOM
   1 C1            -0.1543     1.1032     0.1939 C.ar    
   2 C2            -0.0414    -0.2651     0.3592 C.ar    
   3 C3             1.1989    -0.8696     0.2974 C.ar    
   4 C4             2.3331    -0.1020     0.0687 C.ar    
   5 C5             2.2165     1.2716    -0.0973 C.ar    
   6 C6             0.9734     1.8703    -0.0340 C.ar    
   7 S7            -1.7391     1.8697     0.2667 S.o2    
   8 O8            -1.6289     3.0885    -0.4556 O.2     
   9 O9            -2.6878     0.8608    -0.0514 O.2     
  10 N10           -2.0105     2.2853     1.8466 N.am    
  11 N11            3.5926    -0.7121     0.0060 N.pl3   
  12 C12            4.0165    -1.5555    -0.9767 C.2     
  13 C13            5.2939    -1.9406    -0.6892 C.2     
  14 C14            5.6639    -1.3043     0.5210 C.2     
  15 C15            4.6044    -0.5530     0.9225 C.2     
  16 C16            3.2127    -1.9886    -2.1756 C.3     
  17 C17            4.5487     0.2874     2.1378 C.ar    
  18 C18            3.3161     0.6559     2.6789 C.ar    
  19 C19            3.2705     1.4401     3.8128 C.ar    
  20 C20            4.4445     1.8618     4.4140 C.ar    
  21 C21            5.6703     1.4994     3.8817 C.ar    
  22 C22            5.7286     0.7107     2.7515 C.ar    
  23 Cl23           4.3791     2.8490     5.8404 Cl      
  24 O24            5.7521    -4.0634    -1.9437 O.3     
  25 C25            6.7434    -4.6512    -2.6452 C.ar    
  26 C26            7.8387    -3.7691    -2.6499 C.ar    
  27 C27            7.4066    -2.5976    -1.8837 C.2     
  28 C28            6.1354    -2.8533    -1.4919 C.2     
  29 C29            9.0178    -4.1197    -3.3085 C.ar    
  30 C30            9.1016    -5.3342    -3.9532 C.ar    
  31 C31            8.0211    -6.2041    -3.9490 C.ar    
  32 C32            6.8501    -5.8698    -3.3014 C.ar    
  33 H33           -0.9240    -0.8616     0.5371 H       
  34 H34            1.2865    -1.9382     0.4273 H       
  35 H35            3.0969     1.8714    -0.2750 H       
  36 H36            0.8821     2.9387    -0.1627 H       
  37 H37           -2.5601     3.0562     2.0578 H       
  38 H38           -1.6198     1.7579     2.5608 H       
  39 H39            6.6130    -1.3956     1.0282 H       
  40 H40            3.3803    -1.2915    -2.9966 H       
  41 H41            3.5228    -2.9886    -2.4790 H       
  42 H42            2.1535    -1.9991    -1.9184 H       
  43 H43            2.3998     0.3279     2.2106 H       
  44 H44            2.3173     1.7262     4.2323 H       
  45 H45            6.5827     1.8312     4.3550 H       
  46 H46            6.6853     0.4249     2.3398 H       
  47 H47            7.9847    -1.7100    -1.6732 H       
  48 H48            9.8595    -3.4430    -3.3131 H       
  49 H49           10.0121    -5.6101    -4.4644 H       
  50 H50            8.0978    -7.1535    -4.4580 H       
  51 H51            6.0162    -6.5561    -3.3048 H       
@<TRIPOS>BOND
   1    1    2 ar
   2    1    6 ar
   3    1    7 1
   4    2    3 ar
   5    2   33 1
   6    3    4 ar
   7    3   34 1
   8    4    5 ar
   9    4   11 1
  10    5    6 ar
  11    5   35 1
  12    6   36 1
  13    7    8 2
  14    7    9 2
  15    7   10 am
  16   10   37 1
  17   10   38 1
  18   11   12 1
  19   11   15 1
  20   12   13 2
  21   12   16 1
  22   13   14 1
  23   13   28 1
  24   14   15 2
  25   14   39 1
  26   15   17 1
  27   16   40 1
  28   16   41 1
  29   16   42 1
  30   17   18 ar
  31   17   22 ar
  32   18   19 ar
  33   18   43 1
  34   19   20 ar
  35   19   44 1
  36   20   21 ar
  37   20   23 1
  38   21   22 ar
  39   21   45 1
  40   22   46 1
  41   24   25 1
  42   24   28 1
  43   25   26 ar
  44   25   32 ar
  45   26   27 1
  46   26   29 ar
  47   27   28 2
  48   27   47 1
  49   29   30 ar
  50   29   48 1
  51   30   31 ar
  52   30   49 1
  53   31   32 ar
  54   31   50 1
  55   32   51 1

#	End of record

