#	Name: ASD01900194
#	Creating user name:	WinNT
#	Creation time:	15. 06. 2019 19:51

#	Modifying user name:	WinNT
#	Modification time:	15. 06. 2019 19:51

#	Program:	/corina/corina34_cracker 3.40 0067  02.08.2006

@<TRIPOS>MOLECULE
ASD01900194
  37   40    0    0    0
SMALL
NO_CHARGES


@<TRIPOS>ATOM
   1 N1            -0.0167     1.3829     0.0096 N.pl3   
   2 S2            -1.3586    -1.0745     0.1250 S.3     
   3 C3             0.0339    -0.0032    -0.0062 C.2     
   4 N4             1.1149    -0.7135    -0.1209 N.2     
   5 C5             0.9753    -2.0274    -0.1336 C.2     
   6 C6             2.0285    -3.0641    -0.3967 C.2     
   7 C7             1.7389    -4.1482    -1.2502 C.2     
   8 C8             0.4592    -4.2597    -2.0217 C.3     
   9 C9            -0.7301    -4.6818    -1.1418 C.3     
  10 C10           -0.6500    -3.9155     0.1879 C.3     
  11 C11           -0.2946    -2.4695     0.0391 C.2     
  12 N12            2.7777    -4.9322    -1.2498 N.2     
  13 N13            3.7718    -4.3524    -0.4452 N.pl3   
  14 C14            3.2848    -3.1920     0.0608 C.2     
  15 C15            1.1620     2.1221     0.0060 C.ar    
  16 C16            1.1049     3.5077    -0.0905 C.ar    
  17 C17            2.2837     4.2342    -0.0933 C.ar    
  18 C18            3.4850     3.5489     0.0009 C.ar    
  19 C19            3.4709     2.1645     0.0944 C.ar    
  20 N20            2.3272     1.4989     0.0999 N.ar    
  21 O21            4.6424     1.4863     0.1869 O.3     
  22 C22            4.5621     0.0627     0.2805 C.3     
  23 H23           -0.8739     1.8368     0.0192 H       
  24 H24            0.2363    -3.2938    -2.4749 H       
  25 H25            0.5894    -4.9963    -2.8145 H       
  26 H26           -1.6644    -4.4395    -1.6482 H       
  27 H27           -0.6815    -5.7537    -0.9502 H       
  28 H28           -1.6162    -3.9857     0.6876 H       
  29 H29            0.0989    -4.3936     0.8193 H       
  30 H30            4.6545    -4.7188    -0.2795 H       
  31 H31            3.8075    -2.5025     0.7071 H       
  32 H32            0.1524     4.0115    -0.1628 H       
  33 H33            2.2675     5.3115    -0.1675 H       
  34 H34            4.4217     4.0865     0.0010 H       
  35 H35            5.5670    -0.3542     0.3486 H       
  36 H36            3.9940    -0.2115     1.1694 H       
  37 H37            4.0642    -0.3322    -0.6051 H       
@<TRIPOS>BOND
   1    1    3 1
   2    1   15 1
   3    1   23 1
   4    2    3 1
   5    2   11 1
   6    3    4 2
   7    4    5 1
   8    5    6 1
   9    5   11 2
  10    6    7 1
  11    6   14 2
  12    7    8 1
  13    7   12 2
  14    8    9 1
  15    8   24 1
  16    8   25 1
  17    9   10 1
  18    9   26 1
  19    9   27 1
  20   10   11 1
  21   10   28 1
  22   10   29 1
  23   12   13 1
  24   13   14 1
  25   13   30 1
  26   14   31 1
  27   15   16 ar
  28   15   20 ar
  29   16   17 ar
  30   16   32 1
  31   17   18 ar
  32   17   33 1
  33   18   19 ar
  34   18   34 1
  35   19   20 ar
  36   19   21 1
  37   21   22 1
  38   22   35 1
  39   22   36 1
  40   22   37 1

#	End of record

