#	Name: ASD01940002
#	Creating user name:	WinNT
#	Creation time:	15. 06. 2019 20:11

#	Modifying user name:	WinNT
#	Modification time:	15. 06. 2019 20:11

#	Program:	/corina/corina34_cracker 3.40 0067  02.08.2006

@<TRIPOS>MOLECULE
ASD01940002
  43   46    0    0    0
SMALL
NO_CHARGES


@<TRIPOS>ATOM
   1 C1             0.2251     0.6428     0.2898 C.ar    
   2 C2             0.5118    -0.6776    -0.0019 C.ar    
   3 C3             1.8080    -1.0537    -0.3008 C.ar    
   4 C4             2.8174    -0.1092    -0.3085 C.ar    
   5 C5             2.5305     1.2114    -0.0178 C.ar    
   6 C6             1.2345     1.5872     0.2825 C.ar    
   7 C7            -0.5886    -1.7073     0.0066 C.3     
   8 C8            -1.2006    -1.7997    -1.3674 C.2     
   9 C9            -2.2244    -0.9069    -1.7469 C.2     
  10 O10           -2.7919    -0.9603    -2.9621 O.3     
  11 C11           -2.4078    -1.8732    -3.8799 C.ar    
  12 C12           -1.3909    -2.7949    -3.5681 C.ar    
  13 C13           -0.7639    -2.7393    -2.2456 C.2     
  14 C14           -3.0048    -1.9153    -5.1307 C.ar    
  15 C15           -2.5956    -2.8606    -6.0571 C.ar    
  16 C16           -1.5885    -3.7702    -5.7428 C.ar    
  17 C17           -0.9899    -3.7425    -4.5162 C.ar    
  18 O18           -2.6034    -0.0661    -0.9515 O.2     
  19 C19            0.3289    -3.7050    -1.8658 C.3     
  20 O20           -3.1813    -2.9010    -7.2816 O.3     
  21 C21           -4.0764    -3.8787    -7.4973 C.2     
  22 C22           -4.6806    -4.0586    -8.8661 C.3     
  23 O23           -4.3973    -4.6140    -6.5939 O.2     
  24 C24           -5.6942    -5.1902    -9.0477 C.3     
  25 C25           -6.1670    -3.7352    -9.0303 C.3     
  26 H26           -0.7884     0.9374     0.5189 H       
  27 H27            2.0322    -2.0855    -0.5279 H       
  28 H28            3.8302    -0.4031    -0.5414 H       
  29 H29            3.3192     1.9492    -0.0231 H       
  30 H30            1.0103     2.6191     0.5093 H       
  31 H31           -0.1768    -2.6768     0.2869 H       
  32 H32           -1.3535    -1.4156     0.7262 H       
  33 H33           -3.7865    -1.2137    -5.3818 H       
  34 H34           -1.2790    -4.5020    -6.4743 H       
  35 H35           -0.2094    -4.4500    -4.2782 H       
  36 H36            0.5257    -4.3776    -2.7008 H       
  37 H37            1.2358    -3.1508    -1.6242 H       
  38 H38            0.0156    -4.2853    -0.9980 H       
  39 H39           -4.0209    -3.8345    -9.7043 H       
  40 H40           -5.7015    -5.7103   -10.0056 H       
  41 H41           -5.9240    -5.8045    -8.1772 H       
  42 H42           -6.7079    -3.3923    -8.1482 H       
  43 H43           -6.4854    -3.2981    -9.9767 H       
@<TRIPOS>BOND
   1    1    2 ar
   2    1    6 ar
   3    1   26 1
   4    2    3 ar
   5    2    7 1
   6    3    4 ar
   7    3   27 1
   8    4    5 ar
   9    4   28 1
  10    5    6 ar
  11    5   29 1
  12    6   30 1
  13    7    8 1
  14    7   31 1
  15    7   32 1
  16    8    9 1
  17    8   13 2
  18    9   10 1
  19    9   18 2
  20   10   11 1
  21   11   12 ar
  22   11   14 ar
  23   12   13 1
  24   12   17 ar
  25   13   19 1
  26   14   15 ar
  27   14   33 1
  28   15   16 ar
  29   15   20 1
  30   16   17 ar
  31   16   34 1
  32   17   35 1
  33   19   36 1
  34   19   37 1
  35   19   38 1
  36   20   21 1
  37   21   22 1
  38   21   23 2
  39   22   24 1
  40   22   25 1
  41   22   39 1
  42   24   25 1
  43   24   40 1
  44   24   41 1
  45   25   42 1
  46   25   43 1

#	End of record

