#	Name: ASD05740092
#	Creating user name:	WinNT
#	Creation time:	15. 06. 2019 21:02

#	Modifying user name:	WinNT
#	Modification time:	15. 06. 2019 21:02

#	Program:	/corina/corina34_cracker 3.40 0067  02.08.2006

@<TRIPOS>MOLECULE
ASD05740092
  48   51    0    0    0
SMALL
NO_CHARGES


@<TRIPOS>ATOM
   1 C1            -0.0184     1.5028     0.0103 C.3     
   2 C2             1.2422    -0.7052    -0.0136 C.2     
   3 C3             1.2253    -2.0887    -0.0201 C.2     
   4 C4             0.0021    -0.0041     0.0020 C.2     
   5 C5            -1.1618    -0.7045     0.0098 C.2     
   6 C6            -1.1260    -2.1083     0.0024 C.2     
   7 O7             0.0470    -2.7569    -0.0118 O.3     
   8 C8            -2.4830     0.0202     0.0268 C.3     
   9 C9            -2.9970     0.1608    -1.3828 C.ar    
  10 C10           -2.7548     1.3159    -2.1153 C.ar    
  11 O11           -2.1683    -2.7412     0.0098 O.2     
  12 C12           -4.1745    -0.6930    -3.2845 C.ar    
  13 N13           -3.9267     0.4260    -3.9462 N.ar    
  14 C14           -3.2387     1.4134    -3.4039 C.ar    
  15 N15           -4.9037    -1.7085    -3.8954 N.am    
  16 S16           -5.4574    -1.5140    -5.4439 S.o2    
  17 O17           -6.1236    -2.7215    -5.7865 O.2     
  18 O18           -6.0855    -0.2402    -5.4884 O.2     
  19 S19            2.8740    -2.7054    -0.0387 S.3     
  20 C20            3.5509    -1.0884    -0.0373 C.2     
  21 C21            2.5963    -0.1719    -0.0181 C.2     
  22 O22            4.8809    -0.8124    -0.0479 O.3     
  23 C23            5.7465    -1.8541    -0.0609 C.ar    
  24 N24            7.0476    -1.6123    -0.0714 N.ar    
  25 N25            5.2706    -3.0891    -0.0574 N.ar    
  26 C26            6.0879    -4.1291    -0.0693 C.ar    
  27 C27            7.4569    -3.9126    -0.0857 C.ar    
  28 C28            7.9204    -2.6064    -0.0838 C.ar    
  29 N29           -4.1307    -1.4159    -6.4302 N.am    
  30 C30           -3.2406    -2.5702    -6.5776 C.3     
  31 C31           -3.7165    -0.8606    -1.9793 C.ar    
  32 F32           -3.9705    -2.0037    -1.3055 F       
  33 H33            1.0042     1.8801     0.0026 H       
  34 H34           -0.5455     1.8639    -0.8728 H       
  35 H35           -0.5286     1.8543     0.9071 H       
  36 H36           -3.2006    -0.5463     0.6204 H       
  37 H37           -2.3493     1.0092     0.4651 H       
  38 H38           -2.1936     2.1297    -1.6805 H       
  39 H39           -3.0522     2.3100    -3.9764 H       
  40 H40           -5.0877    -2.5304    -3.4142 H       
  41 H41            2.8056     0.8877    -0.0143 H       
  42 H42            5.6935    -5.1345    -0.0660 H       
  43 H43            8.1470    -4.7432    -0.0957 H       
  44 H44            8.9809    -2.4026    -0.0962 H       
  45 H45           -3.9430    -0.5943    -6.9103 H       
  46 H46           -3.8033    -3.4143    -6.9763 H       
  47 H47           -2.4297    -2.3187    -7.2612 H       
  48 H48           -2.8266    -2.8363    -5.6050 H       
@<TRIPOS>BOND
   1    1    4 1
   2    1   33 1
   3    1   34 1
   4    1   35 1
   5    2    3 2
   6    2    4 1
   7    2   21 1
   8    3   19 1
   9    3    7 1
  10    4    5 2
  11    5    6 1
  12    5    8 1
  13    6    7 1
  14    6   11 2
  15    8    9 1
  16    8   36 1
  17    8   37 1
  18    9   10 ar
  19    9   31 ar
  20   10   14 ar
  21   10   38 1
  22   12   13 ar
  23   12   15 1
  24   12   31 ar
  25   13   14 ar
  26   14   39 1
  27   15   16 am
  28   15   40 1
  29   16   17 2
  30   16   18 2
  31   16   29 am
  32   19   20 1
  33   20   21 2
  34   20   22 1
  35   21   41 1
  36   22   23 1
  37   23   24 ar
  38   23   25 ar
  39   24   28 ar
  40   25   26 ar
  41   26   27 ar
  42   26   42 1
  43   27   28 ar
  44   27   43 1
  45   28   44 1
  46   29   30 1
  47   29   45 1
  48   30   46 1
  49   30   47 1
  50   30   48 1
  51   31   32 1

#	End of record

