#	Name: ASD04882434
#	Creating user name:	WinNT
#	Creation time:	15. 06. 2019 20:54

#	Modifying user name:	WinNT
#	Modification time:	15. 06. 2019 20:54

#	Program:	/corina/corina34_cracker 3.40 0067  02.08.2006

@<TRIPOS>MOLECULE
ASD04882434
  83   88    0    0    0
SMALL
NO_CHARGES


@<TRIPOS>ATOM
   1 C1            -0.0169     1.3933     0.0097 C.ar    
   2 C2             0.0021    -0.0041     0.0020 C.ar    
   3 C3            -1.1907    -0.7173     0.0101 C.ar    
   4 C4            -2.3958    -0.0500     0.0256 C.ar    
   5 C5            -2.4220     1.3471     0.0334 C.ar    
   6 C6            -1.2234     2.0668     0.0306 C.ar    
   7 N7             1.2187    -0.6833    -0.0142 N.3     
   8 C8             1.3564    -1.5453     1.1680 C.3     
   9 C9             1.3705    -1.4623    -1.2510 C.3     
  10 C10            2.7488    -2.1275    -1.2658 C.3     
  11 N11            2.8865    -2.9895    -0.0836 N.3     
  12 C12            2.7347    -2.2105     1.1532 C.3     
  13 C13           -3.7126     2.0616     0.0501 C.2     
  14 O14           -3.7345     3.2774     0.0568 O.2     
  15 N15           -4.8675     1.3668     0.0579 N.am    
  16 N16            1.1859     2.1105     0.0021 N.pl3   
  17 C17            1.1654     3.5754     0.0101 C.3     
  18 C18            2.5789     4.0976    -0.0006 C.ar    
  19 C19            3.1618     4.5145     1.1562 C.ar    
  20 C20            4.1060    -3.6703    -0.0999 C.ar    
  21 C21            5.2996    -2.9601    -0.1084 C.ar    
  22 C22            4.1279    -5.0595    -0.1018 C.ar    
  23 C23            5.3352    -5.7294    -0.1179 C.ar    
  24 C24            6.5218    -5.0190    -0.1317 C.ar    
  25 C25            6.5037    -3.6365    -0.1245 C.ar    
  26 C26           -6.1491     2.0764     0.0745 C.3     
  27 C27           -7.2939     1.0614     0.0805 C.3     
  28 C28           -8.6324     1.8024     0.0978 C.3     
  29 N29           -9.7286     0.8305     0.1036 N.am    
  30 C30          -10.2853     0.3217     1.2163 C.2     
  31 C31            3.3026     4.1506    -1.2048 C.ar    
  32 C32            4.6302     4.6451    -1.1895 C.ar    
  33 C33            5.1980     5.0714     0.0221 C.ar    
  34 C34            4.4677     5.0009     1.1689 C.ar    
  35 N35            2.7579     3.7427    -2.3555 N.ar    
  36 C36            3.4282     3.7895    -3.4810 C.ar    
  37 C37            4.7369     4.2645    -3.5357 C.ar    
  38 C38            5.3531     4.6973    -2.3962 C.ar    
  39 C39          -10.3642     0.2920    -1.1047 C.3     
  40 C40          -11.1225    -0.9722    -0.6430 C.3     
  41 C41          -11.3794    -0.6567     0.8500 C.3     
  42 O42           -9.9577     0.6054     2.3490 O.2     
  43 C43            2.8354    -5.8343    -0.0858 C.3     
  44 H44           -1.1728    -1.7971     0.0037 H       
  45 H45           -3.3210    -0.6071     0.0315 H       
  46 H46           -1.2405     3.1466     0.0366 H       
  47 H47            1.2527    -0.9435     2.0709 H       
  48 H48            0.5822    -2.3124     1.1509 H       
  49 H49            0.5964    -2.2284    -1.2956 H       
  50 H50            1.2771    -0.8000    -2.1117 H       
  51 H51            2.8525    -2.7293    -2.1687 H       
  52 H52            3.5230    -1.3605    -1.2487 H       
  53 H53            3.5088    -1.4444     1.1978 H       
  54 H54            2.8281    -2.8728     2.0139 H       
  55 H55           -4.8501     0.3970     0.0525 H       
  56 H56            2.0326     1.6374    -0.0086 H       
  57 H57            0.6380     3.9362    -0.8729 H       
  58 H58            0.6550     3.9267     0.9069 H       
  59 H59            2.6031     4.4681     2.0794 H       
  60 H60            5.2861    -1.8802    -0.1028 H       
  61 H61            5.3529    -6.8092    -0.1194 H       
  62 H62            7.4648    -5.5455    -0.1436 H       
  63 H63            7.4322    -3.0849    -0.1353 H       
  64 H64           -6.2092     2.6971     0.9685 H       
  65 H65           -6.2270     2.7067    -0.8114 H       
  66 H66           -7.2338     0.4406    -0.8135 H       
  67 H67           -7.2161     0.4311     0.9664 H       
  68 H68           -8.6925     2.4231     0.9918 H       
  69 H69           -8.7103     2.4327    -0.7880 H       
  70 H70            6.2092     5.4500     0.0446 H       
  71 H71            4.9050     5.3293     2.1002 H       
  72 H72            2.9536     3.4505    -4.3900 H       
  73 H73            5.2635     4.2908    -4.4783 H       
  74 H74            6.3668     5.0689    -2.4203 H       
  75 H75          -11.0614     1.0194    -1.5203 H       
  76 H76           -9.6073     0.0290    -1.8437 H       
  77 H77          -12.0623    -1.0827    -1.1840 H       
  78 H78          -10.5027    -1.8617    -0.7552 H       
  79 H79          -11.2981    -1.5626     1.4507 H       
  80 H80          -12.3599    -0.1985     0.9798 H       
  81 H81            2.5104    -6.0199    -1.1095 H       
  82 H82            2.9881    -6.7851     0.4249 H       
  83 H83            2.0730    -5.2584     0.4387 H       
@<TRIPOS>BOND
   1    1    2 ar
   2    1   16 1
   3    1    6 ar
   4    2    3 ar
   5    2    7 1
   6    3    4 ar
   7    3   44 1
   8    4    5 ar
   9    4   45 1
  10    5    6 ar
  11    5   13 1
  12    6   46 1
  13    7    8 1
  14    7    9 1
  15    8   12 1
  16    8   47 1
  17    8   48 1
  18    9   10 1
  19    9   49 1
  20    9   50 1
  21   10   11 1
  22   10   51 1
  23   10   52 1
  24   11   12 1
  25   11   20 1
  26   12   53 1
  27   12   54 1
  28   13   14 2
  29   13   15 am
  30   15   26 1
  31   15   55 1
  32   16   17 1
  33   16   56 1
  34   17   18 1
  35   17   57 1
  36   17   58 1
  37   18   31 ar
  38   18   19 ar
  39   19   34 ar
  40   19   59 1
  41   20   21 ar
  42   20   22 ar
  43   21   25 ar
  44   21   60 1
  45   22   23 ar
  46   22   43 1
  47   23   24 ar
  48   23   61 1
  49   24   25 ar
  50   24   62 1
  51   25   63 1
  52   26   27 1
  53   26   64 1
  54   26   65 1
  55   27   28 1
  56   27   66 1
  57   27   67 1
  58   28   29 1
  59   28   68 1
  60   28   69 1
  61   29   30 am
  62   29   39 1
  63   30   42 2
  64   30   41 1
  65   31   32 ar
  66   31   35 ar
  67   32   33 ar
  68   32   38 ar
  69   33   34 ar
  70   33   70 1
  71   34   71 1
  72   35   36 ar
  73   36   37 ar
  74   36   72 1
  75   37   38 ar
  76   37   73 1
  77   38   74 1
  78   39   40 1
  79   39   75 1
  80   39   76 1
  81   40   41 1
  82   40   77 1
  83   40   78 1
  84   41   79 1
  85   41   80 1
  86   43   81 1
  87   43   82 1
  88   43   83 1

#	End of record

