#	Name: ASD03082054
#	Creating user name:	WinNT
#	Creation time:	15. 06. 2019 20:27

#	Modifying user name:	WinNT
#	Modification time:	15. 06. 2019 20:27

#	Program:	/corina/corina34_cracker 3.40 0067  02.08.2006

@<TRIPOS>MOLECULE
ASD03082054
  63   66    0    0    0
SMALL
NO_CHARGES


@<TRIPOS>ATOM
   1 C1             0.0945     1.2370    -2.5153 C.3     
   2 C2             0.2022    -0.2894    -2.4931 C.3     
   3 N3             1.4232    -0.7055    -3.1948 N.3     
   4 C4             2.6225    -0.1767    -2.5327 C.3     
   5 C5             2.5871     1.3531    -2.5561 C.3     
   6 C6             1.3269     1.8406    -1.8359 C.3     
   7 C7             1.4893    -2.1682    -3.3140 C.3     
   8 C8             0.3615    -2.6572    -4.2248 C.3     
   9 C9             0.4304    -4.1806    -4.3490 C.3     
  10 C10           -0.6806    -4.6622    -5.2462 C.ar    
  11 C11           -0.4703    -4.7731    -6.6079 C.ar    
  12 C12           -1.4894    -5.2149    -7.4309 C.ar    
  13 C13           -2.7185    -5.5461    -6.8921 C.ar    
  14 C14           -2.9285    -5.4361    -5.5302 C.ar    
  15 C15           -1.9081    -4.9985    -4.7067 C.ar    
  16 C16            3.8260     1.9036    -1.8468 C.3     
  17 N17            3.8529     3.3629    -1.9731 N.am    
  18 C18            4.8602     4.0685    -1.4218 C.2     
  19 O19            5.7464     3.4940    -0.8196 O.2     
  20 C20            4.8873     5.5391    -1.5490 C.ar    
  21 C21            3.9503     6.1916    -2.3500 C.ar    
  22 C22            3.9800     7.5662    -2.4650 C.ar    
  23 C23            4.9360     8.3056    -1.7891 C.ar    
  24 C24            5.8715     7.6767    -0.9916 C.ar    
  25 C25            5.8546     6.2915    -0.8587 C.ar    
  26 C26            6.8564     5.6125    -0.0035 C.ar    
  27 C27            8.2182     5.8030    -0.2346 C.ar    
  28 C28            9.1464     5.1684     0.5653 C.ar    
  29 C29            8.7282     4.3441     1.5946 C.ar    
  30 C30            7.3785     4.1512     1.8288 C.ar    
  31 C31            6.4409     4.7850     1.0391 C.ar    
  32 H32            0.0419     1.5831    -3.5475 H       
  33 H33           -0.8037     1.5463    -1.9809 H       
  34 H34            0.2409    -0.6358    -1.4603 H       
  35 H35           -0.6669    -0.7220    -2.9887 H       
  36 H36            2.6499    -0.5236    -1.4997 H       
  37 H37            3.5114    -0.5275    -3.0571 H       
  38 H38            2.5737     1.7010    -3.5890 H       
  39 H39            1.2754     2.9282    -1.8879 H       
  40 H40            1.3586     1.5260    -0.7928 H       
  41 H41            2.4507    -2.4549    -3.7402 H       
  42 H42            1.3806    -2.6184    -2.3273 H       
  43 H43           -0.5999    -2.3705    -3.7986 H       
  44 H44            0.4702    -2.2069    -5.2115 H       
  45 H45            1.3917    -4.4673    -4.7752 H       
  46 H46            0.3216    -4.6308    -3.3623 H       
  47 H47            0.4900    -4.5143    -7.0289 H       
  48 H48           -1.3253    -5.3008    -8.4949 H       
  49 H49           -3.5149    -5.8906    -7.5351 H       
  50 H50           -3.8889    -5.6946    -5.1093 H       
  51 H51           -2.0721    -4.9125    -3.6427 H       
  52 H52            3.7921     1.6307    -0.7921 H       
  53 H53            4.7224     1.4829    -2.3024 H       
  54 H54            3.1458     3.8212    -2.4536 H       
  55 H55            3.2021     5.6211    -2.8803 H       
  56 H56            3.2533     8.0686    -3.0863 H       
  57 H57            4.9502     9.3811    -1.8865 H       
  58 H58            6.6142     8.2603    -0.4679 H       
  59 H59            8.5459     6.4457    -1.0384 H       
  60 H60           10.2015     5.3152     0.3872 H       
  61 H61            9.4583     3.8490     2.2176 H       
  62 H62            7.0579     3.5066     2.6338 H       
  63 H63            5.3875     4.6337     1.2228 H       
@<TRIPOS>BOND
   1    1    2 1
   2    1    6 1
   3    1   32 1
   4    1   33 1
   5    2    3 1
   6    2   34 1
   7    2   35 1
   8    3    4 1
   9    3    7 1
  10    4    5 1
  11    4   36 1
  12    4   37 1
  13    5    6 1
  14    5   16 1
  15    5   38 1
  16    6   39 1
  17    6   40 1
  18    7    8 1
  19    7   41 1
  20    7   42 1
  21    8    9 1
  22    8   43 1
  23    8   44 1
  24    9   10 1
  25    9   45 1
  26    9   46 1
  27   10   11 ar
  28   10   15 ar
  29   11   12 ar
  30   11   47 1
  31   12   13 ar
  32   12   48 1
  33   13   14 ar
  34   13   49 1
  35   14   15 ar
  36   14   50 1
  37   15   51 1
  38   16   17 1
  39   16   52 1
  40   16   53 1
  41   17   18 am
  42   17   54 1
  43   18   19 2
  44   18   20 1
  45   20   21 ar
  46   20   25 ar
  47   21   22 ar
  48   21   55 1
  49   22   23 ar
  50   22   56 1
  51   23   24 ar
  52   23   57 1
  53   24   25 ar
  54   24   58 1
  55   25   26 1
  56   26   27 ar
  57   26   31 ar
  58   27   28 ar
  59   27   59 1
  60   28   29 ar
  61   28   60 1
  62   29   30 ar
  63   29   61 1
  64   30   31 ar
  65   30   62 1
  66   31   63 1

#	End of record

