#	Name: ASD00071102
#	Creating user name:	WinNT
#	Creation time:	15. 06. 2019 18:30

#	Modifying user name:	WinNT
#	Modification time:	15. 06. 2019 18:30

#	Program:	/corina/corina34_cracker 3.40 0067  02.08.2006

@<TRIPOS>MOLECULE
ASD00071102
  56   59    0    0    0
SMALL
NO_CHARGES


@<TRIPOS>ATOM
   1 N1             0.0070     1.3181    -0.0562 N.4     
   2 N2             1.0978    -0.7414    -0.1733 N.2     
   3 C3            -0.0133    -0.0797    -0.0461 C.2     
   4 N4            -1.2049    -0.7415     0.0983 N.pl3   
   5 C5            -1.3711    -2.0490    -0.5548 C.3     
   6 C6            -0.0815    -2.8173    -0.3885 C.ar    
   7 C7            -0.0791    -4.1953    -0.4124 C.ar    
   8 C8             1.1077    -4.8891    -0.2714 C.ar    
   9 C9             2.3070    -4.1971    -0.1043 C.ar    
  10 C10            2.3098    -2.8064    -0.0745 C.ar    
  11 C11            1.1104    -2.1104    -0.2129 C.ar    
  12 C12            3.5803    -4.9446     0.0421 C.ar    
  13 C13            3.5793    -6.3380     0.0128 C.ar    
  14 C14            4.7644    -7.0300     0.1487 C.ar    
  15 C15            5.9576    -6.3401     0.3149 C.ar    
  16 C16            5.9617    -4.9521     0.3448 C.ar    
  17 C17            4.7804    -4.2545     0.2033 C.ar    
  18 O18            7.1237    -7.0246     0.4489 O.3     
  19 C19            8.3140    -6.2518     0.6165 C.3     
  20 C20           -2.2919    -0.1581     0.8884 C.3     
  21 C21           -2.2512    -0.7158     2.2878 C.ar    
  22 C22           -1.4625    -0.1104     3.2539 C.ar    
  23 C23           -1.4267    -0.6259     4.5418 C.ar    
  24 C24           -2.1762    -1.7418     4.8616 C.ar    
  25 C25           -2.9631    -2.3470     3.9005 C.ar    
  26 C26           -3.0067    -1.8319     2.6127 C.ar    
  27 O27           -3.7851    -2.4243     1.6693 O.3     
  28 C28           -4.5367    -3.5702     2.0744 C.3     
  29 O29           -0.7248     0.9868     2.9398 O.3     
  30 C30            0.0646     1.5588     3.9848 C.3     
  31 H31            0.9428     1.6395    -0.2535 H       
  32 H32           -0.6225     1.6584    -0.7676 H       
  33 H33           -0.2849     1.6652     0.8451 H       
  34 H34           -2.1890    -2.5949    -0.0845 H       
  35 H35           -1.5823    -1.9077    -1.6147 H       
  36 H36           -1.0063    -4.7338    -0.5419 H       
  37 H37            1.1065    -5.9689    -0.2902 H       
  38 H38            3.2373    -2.2685     0.0550 H       
  39 H39            2.6513    -6.8753    -0.1157 H       
  40 H40            4.7642    -8.1098     0.1261 H       
  41 H41            6.8913    -4.4180     0.4750 H       
  42 H42            4.7848    -3.1747     0.2222 H       
  43 H43            8.2275    -5.6417     1.5156 H       
  44 H44            9.1703    -6.9195     0.7115 H       
  45 H45            8.4521    -5.6048    -0.2498 H       
  46 H46           -2.1735     0.9248     0.9253 H       
  47 H47           -3.2486    -0.4035     0.4272 H       
  48 H48           -0.8121    -0.1548     5.2946 H       
  49 H49           -2.1467    -2.1417     5.8644 H       
  50 H50           -3.5481    -3.2191     4.1529 H       
  51 H51           -3.8557    -4.3470     2.4222 H       
  52 H52           -5.2146    -3.2932     2.8817 H       
  53 H53           -5.1130    -3.9444     1.2283 H       
  54 H54           -0.5853     1.8674     4.8036 H       
  55 H55            0.7789     0.8193     4.3467 H       
  56 H56            0.6022     2.4258     3.6010 H       
@<TRIPOS>BOND
   1    1    3 1
   2    1   31 1
   3    1   32 1
   4    1   33 1
   5    2    3 2
   6    2   11 1
   7    3    4 1
   8    4    5 1
   9    4   20 1
  10    5    6 1
  11    5   34 1
  12    5   35 1
  13    6    7 ar
  14    6   11 ar
  15    7    8 ar
  16    7   36 1
  17    8    9 ar
  18    8   37 1
  19    9   10 ar
  20    9   12 1
  21   10   11 ar
  22   10   38 1
  23   12   13 ar
  24   12   17 ar
  25   13   14 ar
  26   13   39 1
  27   14   15 ar
  28   14   40 1
  29   15   16 ar
  30   15   18 1
  31   16   17 ar
  32   16   41 1
  33   17   42 1
  34   18   19 1
  35   19   43 1
  36   19   44 1
  37   19   45 1
  38   20   21 1
  39   20   46 1
  40   20   47 1
  41   21   22 ar
  42   21   26 ar
  43   22   23 ar
  44   22   29 1
  45   23   24 ar
  46   23   48 1
  47   24   25 ar
  48   24   49 1
  49   25   26 ar
  50   25   50 1
  51   26   27 1
  52   27   28 1
  53   28   51 1
  54   28   52 1
  55   28   53 1
  56   29   30 1
  57   30   54 1
  58   30   55 1
  59   30   56 1

#	End of record

