#	Name: ASD03081300
#	Creating user name:	WinNT
#	Creation time:	15. 06. 2019 20:27

#	Modifying user name:	WinNT
#	Modification time:	15. 06. 2019 20:27

#	Program:	/corina/corina34_cracker 3.40 0067  02.08.2006

@<TRIPOS>MOLECULE
ASD03081300
  37   40    0    0    0
SMALL
NO_CHARGES


@<TRIPOS>ATOM
   1 O1            -0.6573     1.7861     0.9928 O.3     
   2 C2            -0.5201     0.5751     0.4152 C.2     
   3 N3             0.7101     0.4934    -0.0398 N.2     
   4 N4             1.3370     1.5852     0.2252 N.2     
   5 C5             0.5327     2.4073     0.8596 C.2     
   6 C6            -0.0834     4.5391     2.0022 C.ar    
   7 C7             0.8693     3.7637     1.3386 C.ar    
   8 C8             2.1493     4.2933     1.1352 C.ar    
   9 C9             2.4135     5.5684     1.6038 C.ar    
  10 C10            1.4145     6.2721     2.2518 C.ar    
  11 N11            0.2169     5.7477     2.4295 N.ar    
  12 C12           -1.5607    -0.4675     0.3133 C.ar    
  13 C13           -1.2762    -1.6818    -0.3160 C.ar    
  14 C14           -2.2499    -2.6523    -0.4086 C.ar    
  15 C15           -3.5134    -2.4243     0.1224 C.ar    
  16 C16           -3.8004    -1.2180     0.7491 C.ar    
  17 C17           -2.8305    -0.2445     0.8509 C.ar    
  18 O18           -4.4706    -3.3831     0.0283 O.3     
  19 C19           -5.2958    -3.3569    -1.0509 C.ar    
  20 C20           -5.0799    -2.4389    -2.0688 C.ar    
  21 C21           -5.9203    -2.4144    -3.1648 C.ar    
  22 C22           -6.9761    -3.3034    -3.2481 C.ar    
  23 C23           -7.1938    -4.2188    -2.2349 C.ar    
  24 C24           -6.3526    -4.2517    -1.1397 C.ar    
  25 H25           -1.0764     4.1458     2.1626 H       
  26 H26            2.9109     3.7214     0.6261 H       
  27 H27            3.3896     6.0092     1.4653 H       
  28 H28            1.6183     7.2673     2.6187 H       
  29 H29           -0.2945    -1.8595    -0.7296 H       
  30 H30           -2.0308    -3.5914    -0.8949 H       
  31 H31           -4.7839    -1.0445     1.1603 H       
  32 H32           -3.0531     0.6912     1.3422 H       
  33 H33           -4.2556    -1.7441    -2.0041 H       
  34 H34           -5.7529    -1.6999    -3.9572 H       
  35 H35           -7.6320    -3.2825    -4.1058 H       
  36 H36           -8.0195    -4.9117    -2.3021 H       
  37 H37           -6.5200    -4.9704    -0.3510 H       
@<TRIPOS>BOND
   1    1    2 1
   2    1    5 1
   3    2    3 2
   4    2   12 1
   5    3    4 1
   6    4    5 2
   7    5    7 1
   8    6    7 ar
   9    6   11 ar
  10    6   25 1
  11    7    8 ar
  12    8    9 ar
  13    8   26 1
  14    9   10 ar
  15    9   27 1
  16   10   11 ar
  17   10   28 1
  18   12   13 ar
  19   12   17 ar
  20   13   14 ar
  21   13   29 1
  22   14   15 ar
  23   14   30 1
  24   15   16 ar
  25   15   18 1
  26   16   17 ar
  27   16   31 1
  28   17   32 1
  29   18   19 1
  30   19   20 ar
  31   19   24 ar
  32   20   21 ar
  33   20   33 1
  34   21   22 ar
  35   21   34 1
  36   22   23 ar
  37   22   35 1
  38   23   24 ar
  39   23   36 1
  40   24   37 1

#	End of record

