#	Name: ASD01910754
#	Creating user name:	WinNT
#	Creation time:	15. 06. 2019 19:56

#	Modifying user name:	WinNT
#	Modification time:	15. 06. 2019 19:56

#	Program:	/corina/corina34_cracker 3.40 0067  02.08.2006

@<TRIPOS>MOLECULE
ASD01910754
  52   55    0    0    0
SMALL
NO_CHARGES


@<TRIPOS>ATOM
   1 C1            -0.1167     1.7514     0.3984 C.ar    
   2 C2            -0.0220     0.3718     0.4104 C.ar    
   3 C3            -1.1654    -0.4009     0.3556 C.ar    
   4 C4            -2.4115     0.2092     0.2888 C.ar    
   5 C5            -2.5031     1.5952     0.2773 C.ar    
   6 C6            -1.3560     2.3620     0.3376 C.ar    
   7 N7            -3.5699    -0.5693     0.2327 N.3     
   8 C8            -4.7696     0.2760     0.1672 C.3     
   9 C9            -5.9991    -0.6060    -0.0749 C.3     
  10 N10           -6.0325    -1.6542     0.9563 N.am    
  11 C11           -4.8177    -2.4539     1.1752 C.3     
  12 C12           -3.6346    -1.4992     1.3680 C.3     
  13 C13           -7.1469    -1.8764     1.6811 C.2     
  14 C14           -7.2009    -3.0140     2.6242 C.ar    
  15 O15           -8.1075    -1.1416     1.5595 O.2     
  16 C16           -7.8252    -2.8655     3.8646 C.ar    
  17 C17           -7.8774    -3.9267     4.7471 C.ar    
  18 C18           -7.3139    -5.1409     4.4109 C.ar    
  19 C19           -6.6854    -5.3041     3.1724 C.ar    
  20 C20           -6.6341    -4.2378     2.2748 C.ar    
  21 C21           -6.1006    -6.5641     2.8245 C.1     
  22 C22           -5.6211    -7.5971     2.5394 C.1     
  23 C23           -5.0363    -8.8571     2.1915 C.ar    
  24 C24           -4.4080    -9.0218     0.9543 C.ar    
  25 C25           -3.8465   -10.2381     0.6264 C.ar    
  26 C26           -3.9047   -11.2940     1.5190 C.ar    
  27 C27           -4.5256   -11.1384     2.7458 C.ar    
  28 C28           -5.0860    -9.9261     3.0900 C.ar    
  29 N29            1.1107     2.5762     0.4568 N.pl3   
  30 O30            2.2027     2.0399     0.5154 O.2     
  31 O31            1.0289     3.7915     0.4463 O.2     
  32 H32            0.9471    -0.1019     0.4624 H       
  33 H33           -1.0907    -1.4783     0.3643 H       
  34 H34           -3.4704     2.0727     0.2251 H       
  35 H35           -1.4264     3.4396     0.3288 H       
  36 H36           -4.8873     0.8139     1.1078 H       
  37 H37           -4.6674     0.9898    -0.6502 H       
  38 H38           -6.9028     0.0001    -0.0103 H       
  39 H39           -5.9322    -1.0647    -1.0613 H       
  40 H40           -4.9403    -3.0697     2.0662 H       
  41 H41           -4.6372    -3.0903     0.3089 H       
  42 H42           -2.7093    -2.0729     1.4215 H       
  43 H43           -3.7682    -0.9365     2.2920 H       
  44 H44           -8.2681    -1.9182     4.1347 H       
  45 H45           -8.3613    -3.8057     5.7051 H       
  46 H46           -7.3580    -5.9664     5.1059 H       
  47 H47           -6.1502    -4.3578     1.3168 H       
  48 H48           -4.3625    -8.1988     0.2565 H       
  49 H49           -3.3606   -10.3669    -0.3295 H       
  50 H50           -3.4636   -12.2443     1.2566 H       
  51 H51           -4.5678   -11.9671     3.4371 H       
  52 H52           -5.5704    -9.8061     4.0478 H       
@<TRIPOS>BOND
   1    1    2 ar
   2    1   29 1
   3    1    6 ar
   4    2    3 ar
   5    2   32 1
   6    3    4 ar
   7    3   33 1
   8    4    5 ar
   9    4    7 1
  10    5    6 ar
  11    5   34 1
  12    6   35 1
  13    7    8 1
  14    7   12 1
  15    8    9 1
  16    8   36 1
  17    8   37 1
  18    9   10 1
  19    9   38 1
  20    9   39 1
  21   10   11 1
  22   10   13 am
  23   11   12 1
  24   11   40 1
  25   11   41 1
  26   12   42 1
  27   12   43 1
  28   13   14 1
  29   13   15 2
  30   14   16 ar
  31   14   20 ar
  32   16   17 ar
  33   16   44 1
  34   17   18 ar
  35   17   45 1
  36   18   19 ar
  37   18   46 1
  38   19   20 ar
  39   19   21 1
  40   20   47 1
  41   21   22 3
  42   22   23 1
  43   23   24 ar
  44   23   28 ar
  45   24   25 ar
  46   24   48 1
  47   25   26 ar
  48   25   49 1
  49   26   27 ar
  50   26   50 1
  51   27   28 ar
  52   27   51 1
  53   28   52 1
  54   29   30 2
  55   29   31 2

#	End of record

