#	Name: ASD01814727
#	Creating user name:	WinNT
#	Creation time:	15. 06. 2019 19:32

#	Modifying user name:	WinNT
#	Modification time:	15. 06. 2019 19:32

#	Program:	/corina/corina34_cracker 3.40 0067  02.08.2006

@<TRIPOS>MOLECULE
ASD01814727
  55   59    0    0    0
SMALL
NO_CHARGES


@<TRIPOS>ATOM
   1 O1            -0.0173     1.4248     0.0099 O.3     
   2 C2             0.0021    -0.0041     0.0020 C.3     
   3 H3             0.5123    -0.3556    -0.8948 H       
   4 C4             0.7421    -0.5109     1.2415 C.3     
   5 C5             0.7628    -2.0407     1.2331 C.3     
   6 C6            -0.6726    -2.5703     1.2440 C.3     
   7 C7            -1.4126    -2.0635     0.0045 C.3     
   8 C8            -1.4333    -0.5336     0.0129 C.3     
   9 H9            -1.9435    -0.1821     0.9097 H       
  10 N10           -2.1419    -0.0483    -1.1740 N.am    
  11 C11           -3.3356     0.7792    -1.0116 C.3     
  12 C12           -3.3619     1.9023    -2.0454 C.3     
  13 C13           -3.1320     1.3432    -3.4242 C.ar    
  14 C14           -2.2936     0.2531    -3.5916 C.ar    
  15 C15           -2.0423    -0.2644    -4.8739 C.ar    
  16 C16           -2.6291     0.2816    -5.9697 C.ar    
  17 C17           -2.3475    -0.2874    -7.3365 C.3     
  18 C18           -1.2350     0.4942    -7.9865 C.ar    
  19 C19           -1.5198     1.6086    -8.7610 C.ar    
  20 C20           -0.4652     2.2975    -9.3394 C.ar    
  21 C21            0.8276     1.8533    -9.1262 C.ar    
  22 Cl22           2.1579     2.7069    -9.8441 Cl      
  23 N23            1.0608     0.7881    -8.3827 N.ar    
  24 C24            0.0817     0.1124    -7.8133 C.ar    
  25 C25           -3.5003     1.3779    -5.8307 C.ar    
  26 C26           -4.1241     1.9535    -6.9497 C.ar    
  27 C27           -4.9632     3.0131    -6.7846 C.ar    
  28 C28           -5.2149     3.5390    -5.5192 C.ar    
  29 C29           -4.6280     3.0088    -4.4113 C.ar    
  30 C30           -3.7553     1.9142    -4.5421 C.ar    
  31 C31           -1.6806    -0.3666    -2.3979 C.2     
  32 O32           -0.7688    -1.1610    -2.5212 O.2     
  33 H33            0.8606     1.8301     0.0037 H       
  34 H34            1.7647    -0.1336     1.2338 H       
  35 H35            0.2319    -0.1594     2.1383 H       
  36 H36            1.2730    -2.3923     0.3363 H       
  37 H37            1.2900    -2.4018     2.1162 H       
  38 H38           -0.6578    -3.6602     1.2380 H       
  39 H39           -1.1828    -2.2188     2.1408 H       
  40 H40           -0.9024    -2.4150    -0.8923 H       
  41 H41           -2.4352    -2.4408     0.0122 H       
  42 H42           -4.2224     0.1576    -1.1348 H       
  43 H43           -3.3384     1.2124    -0.0113 H       
  44 H44           -4.3313     2.3996    -2.0141 H       
  45 H45           -2.5796     2.6251    -1.8136 H       
  46 H46           -1.3747    -1.1056    -4.9888 H       
  47 H47           -2.0503    -1.3317    -7.2411 H       
  48 H48           -3.2458    -0.2198    -7.9502 H       
  49 H49           -2.5394     1.9320    -8.9103 H       
  50 H50           -0.6503     3.1695    -9.9490 H       
  51 H51            0.3115    -0.7521    -7.2081 H       
  52 H52           -3.9387     1.5574    -7.9372 H       
  53 H53           -5.4406     3.4529    -7.6478 H       
  54 H54           -5.8850     4.3796    -5.4159 H       
  55 H55           -4.8317     3.4270    -3.4366 H       
@<TRIPOS>BOND
   1    1    2 1
   2    1   33 1
   3    2    3 1
   4    2    8 1
   5    2    4 1
   6    4    5 1
   7    4   34 1
   8    4   35 1
   9    5    6 1
  10    5   36 1
  11    5   37 1
  12    6    7 1
  13    6   38 1
  14    6   39 1
  15    7    8 1
  16    7   40 1
  17    7   41 1
  18    8    9 1
  19    8   10 1
  20   10   31 am
  21   10   11 1
  22   11   12 1
  23   11   42 1
  24   11   43 1
  25   12   13 1
  26   12   44 1
  27   12   45 1
  28   13   30 ar
  29   13   14 ar
  30   14   15 ar
  31   14   31 1
  32   15   16 ar
  33   15   46 1
  34   16   17 1
  35   16   25 ar
  36   17   18 1
  37   17   47 1
  38   17   48 1
  39   18   24 ar
  40   18   19 ar
  41   19   20 ar
  42   19   49 1
  43   20   21 ar
  44   20   50 1
  45   21   22 1
  46   21   23 ar
  47   23   24 ar
  48   24   51 1
  49   25   30 ar
  50   25   26 ar
  51   26   27 ar
  52   26   52 1
  53   27   28 ar
  54   27   53 1
  55   28   29 ar
  56   28   54 1
  57   29   30 ar
  58   29   55 1
  59   31   32 2

#	End of record

