#	Name: ASD01810544
#	Creating user name:	WinNT
#	Creation time:	15. 06. 2019 19:24

#	Modifying user name:	WinNT
#	Modification time:	15. 06. 2019 19:24

#	Program:	/corina/corina34_cracker 3.40 0067  02.08.2006

@<TRIPOS>MOLECULE
ASD01810544
  36   39    0    0    0
SMALL
NO_CHARGES


@<TRIPOS>ATOM
   1 C1            -0.0166     1.3744     0.0096 C.ar    
   2 C2             0.0021    -0.0041     0.0020 C.ar    
   3 C3             1.2095    -0.6858    -0.0131 C.ar    
   4 C4             2.4053     0.0011    -0.0209 C.ar    
   5 C5             2.4101     1.3918    -0.0135 C.ar    
   6 C6             1.1843     2.0808     0.0019 C.ar    
   7 N7             3.6058     2.0869    -0.0216 N.pl3   
   8 C8             3.6714     3.4283    -0.0152 C.2     
   9 C9             2.5401     4.2060     0.0006 C.2     
  10 C10            1.2113     3.5528     0.0095 C.2     
  11 C11            2.2607     5.6385     0.0114 C.2     
  12 N12            0.9161     5.7619     0.0257 N.am    
  13 N13            0.3124     4.5018     0.0241 N.2     
  14 C14            0.2461     6.9425     0.0400 C.2     
  15 O15            3.0793     6.5444     0.0085 O.2     
  16 C16            4.8574     1.3256    -0.0375 C.3     
  17 C17            5.2727     1.0715    -1.4637 C.ar    
  18 C18            6.0854     1.9778    -2.1187 C.ar    
  19 C19            6.4664     1.7448    -3.4270 C.ar    
  20 C20            6.0350     0.6053    -4.0800 C.ar    
  21 C21            5.2231    -0.3014    -3.4246 C.ar    
  22 C22            4.8457    -0.0705    -2.1149 C.ar    
  23 H23           -0.9577     1.9042     0.0169 H       
  24 H24           -0.9269    -0.5549     0.0083 H       
  25 H25            1.2134    -1.7658    -0.0186 H       
  26 H26            3.3391    -0.5415    -0.0323 H       
  27 H27            4.6392     3.9076    -0.0223 H       
  28 H28            0.7930     7.8738     0.0405 H       
  29 H29           -0.8338     6.9504     0.0509 H       
  30 H30            5.6353     1.8946     0.4716 H       
  31 H31            4.7102     0.3739     0.4731 H       
  32 H32            6.4224     2.8680    -1.6086 H       
  33 H33            7.1008     2.4532    -3.9390 H       
  34 H34            6.3321     0.4236    -5.1023 H       
  35 H35            4.8858    -1.1915    -3.9349 H       
  36 H36            4.2113    -0.7789    -1.6029 H       
@<TRIPOS>BOND
   1    1    2 ar
   2    1    6 ar
   3    1   23 1
   4    2    3 ar
   5    2   24 1
   6    3    4 ar
   7    3   25 1
   8    4    5 ar
   9    4   26 1
  10    5    6 ar
  11    5    7 1
  12    6   10 1
  13    7    8 1
  14    7   16 1
  15    8    9 2
  16    8   27 1
  17    9   10 1
  18    9   11 1
  19   10   13 2
  20   11   12 am
  21   11   15 2
  22   12   13 1
  23   12   14 1
  24   14   28 1
  25   14   29 1
  26   16   17 1
  27   16   30 1
  28   16   31 1
  29   17   18 ar
  30   17   22 ar
  31   18   19 ar
  32   18   32 1
  33   19   20 ar
  34   19   33 1
  35   20   21 ar
  36   20   34 1
  37   21   22 ar
  38   21   35 1
  39   22   36 1

#	End of record

