#	Name: ASD01200368
#	Creating user name:	WinNT
#	Creation time:	15. 06. 2019 19:09

#	Modifying user name:	WinNT
#	Modification time:	15. 06. 2019 19:09

#	Program:	/corina/corina34_cracker 3.40 0067  02.08.2006

@<TRIPOS>MOLECULE
ASD01200368
  60   64    0    0    0
SMALL
NO_CHARGES


@<TRIPOS>ATOM
   1 C1            -0.7679     1.7711    -0.4395 C.ar    
   2 C2            -1.2260     0.4871    -0.5245 C.ar    
   3 C3            -0.3629    -0.5892    -0.3578 C.ar    
   4 C4             0.9625    -0.3848    -0.1053 C.ar    
   5 C5             1.4562     0.9215    -0.0140 C.ar    
   6 C6             0.5800     2.0107    -0.1832 C.ar    
   7 C7             2.7757     1.4918     0.2371 C.2     
   8 N8             2.6598     2.7888     0.2123 N.2     
   9 N9             1.3321     3.1476    -0.0426 N.pl3   
  10 C10            0.8264     4.5190    -0.1423 C.3     
  11 C11            1.0799     5.2531     1.1759 C.3     
  12 C12            1.5367     5.2362    -1.2613 C.2     
  13 N13            0.9126     6.2252    -1.9312 N.am    
  14 O14            2.6700     4.9234    -1.5590 O.2     
  15 C15            0.4262     6.6354     1.1237 C.3     
  16 C16           -1.7444     7.8673     1.0986 C.3     
  17 C17           -1.0968     6.4804     1.0711 C.3     
  18 C18            0.8046     7.4289     2.3781 C.3     
  19 C19            0.0835     8.7792     2.3551 C.3     
  20 O20           -1.3268     8.5633     2.2747 O.3     
  21 S21            2.0462    -1.7581     0.1052 S.o2    
  22 O22            2.7236    -1.4864     1.3244 O.2     
  23 O23            1.2024    -2.8938    -0.0268 O.2     
  24 C24            3.1918    -1.6498    -1.2972 C.3     
  25 C25            4.2038    -2.7839    -1.4719 C.3     
  26 C26            3.0181    -2.6623    -2.4311 C.3     
  27 C27            1.5229     6.8090    -3.0407 C.ar    
  28 N28            1.0870     7.9703    -3.5057 N.ar    
  29 C29            2.5980     6.1763    -3.6619 C.ar    
  30 C30            3.1699     6.7980    -4.7614 C.ar    
  31 C31            2.6375     8.0103    -5.1753 C.ar    
  32 N32            1.6210     8.5406    -4.5239 N.ar    
  33 C33            3.2252     8.7246    -6.3650 C.3     
  34 H34           -1.4485     2.5986    -0.5751 H       
  35 H35           -2.2720     0.3061    -0.7234 H       
  36 H36           -0.7447    -1.5970    -0.4285 H       
  37 H37            3.6859     0.9374     0.4124 H       
  38 H38           -0.2441     4.4975    -0.3463 H       
  39 H39            0.6527     4.6800     1.9989 H       
  40 H40            2.1533     5.3643     1.3293 H       
  41 H41            0.0387     6.5308    -1.6415 H       
  42 H42            0.7706     7.1684     0.2374 H       
  43 H43           -1.4384     8.4289     0.2159 H       
  44 H44           -2.8293     7.7619     1.1045 H       
  45 H45           -1.3790     5.9648     0.1531 H       
  46 H46           -1.4342     5.9037     1.9323 H       
  47 H47            0.5056     6.8714     3.2657 H       
  48 H48            1.8822     7.5917     2.3949 H       
  49 H49            0.3155     9.3307     3.2663 H       
  50 H50            0.4134     9.3528     1.4889 H       
  51 H51            3.5125    -0.6433    -1.5656 H       
  52 H52            5.1903    -2.5235    -1.8555 H       
  53 H53            4.1814    -3.5951    -0.7441 H       
  54 H54            2.2155    -3.3935    -2.3343 H       
  55 H55            3.2244    -2.3219    -3.4458 H       
  56 H56            2.9741     5.2316    -3.2980 H       
  57 H57            4.0055     6.3517    -5.2802 H       
  58 H58            2.7160     8.3992    -7.2721 H       
  59 H59            3.0975     9.8002    -6.2426 H       
  60 H60            4.2872     8.4911    -6.4408 H       
@<TRIPOS>BOND
   1    1    2 ar
   2    1    6 ar
   3    1   34 1
   4    2    3 ar
   5    2   35 1
   6    3    4 ar
   7    3   36 1
   8    4    5 ar
   9    4   21 1
  10    5    7 1
  11    5    6 ar
  12    6    9 1
  13    7    8 2
  14    7   37 1
  15    8    9 1
  16    9   10 1
  17   10   11 1
  18   10   12 1
  19   10   38 1
  20   11   15 1
  21   11   39 1
  22   11   40 1
  23   12   13 am
  24   12   14 2
  25   13   27 1
  26   13   41 1
  27   15   18 1
  28   15   17 1
  29   15   42 1
  30   16   17 1
  31   16   20 1
  32   16   43 1
  33   16   44 1
  34   17   45 1
  35   17   46 1
  36   18   19 1
  37   18   47 1
  38   18   48 1
  39   19   20 1
  40   19   49 1
  41   19   50 1
  42   21   22 2
  43   21   23 2
  44   21   24 1
  45   24   25 1
  46   24   26 1
  47   24   51 1
  48   25   26 1
  49   25   52 1
  50   25   53 1
  51   26   54 1
  52   26   55 1
  53   27   29 ar
  54   27   28 ar
  55   28   32 ar
  56   29   30 ar
  57   29   56 1
  58   30   31 ar
  59   30   57 1
  60   31   32 ar
  61   31   33 1
  62   33   58 1
  63   33   59 1
  64   33   60 1

#	End of record

