#	Name: ASD01910092
#	Creating user name:	WinNT
#	Creation time:	15. 06. 2019 19:55

#	Modifying user name:	WinNT
#	Modification time:	15. 06. 2019 19:55

#	Program:	/corina/corina34_cracker 3.40 0067  02.08.2006

@<TRIPOS>MOLECULE
ASD01910092
  26   27    0    0    0
SMALL
NO_CHARGES


@<TRIPOS>ATOM
   1 C1            -0.0173     1.4278     0.0099 C.ar    
   2 C2             0.0021    -0.0041     0.0020 C.1     
   3 C3             0.0180    -1.1779    -0.0044 C.1     
   4 C4             0.0374    -2.6098    -0.0123 C.ar    
   5 C5            -1.1612    -3.3283    -0.0047 C.ar    
   6 C6            -1.1346    -4.7072    -0.0123 C.ar    
   7 C7             0.0750    -5.3792    -0.0275 C.ar    
   8 C8             1.2659    -4.6745    -0.0350 C.ar    
   9 C9             1.2550    -3.2954    -0.0334 C.ar    
  10 C10            1.1858     2.1378     0.0022 C.ar    
  11 C11            1.1496     3.5206     0.0095 C.ar    
  12 C12           -0.0868     4.1517     0.0243 C.ar    
  13 C13           -1.2400     3.3877     0.0312 C.ar    
  14 N14           -1.1806     2.0722     0.0189 N.ar    
  15 C15           -0.1719     5.6562     0.0331 C.3     
  16 H16           -2.1059    -2.8051     0.0074 H       
  17 H17           -2.0601    -5.2638    -0.0061 H       
  18 H18            0.0896    -6.4591    -0.0330 H       
  19 H19            2.2061    -5.2057    -0.0468 H       
  20 H20            2.1852    -2.7466    -0.0393 H       
  21 H21            2.1306     1.6146    -0.0089 H       
  22 H22            2.0631     4.0966     0.0042 H       
  23 H23           -2.2027     3.8770     0.0427 H       
  24 H24           -0.2018     6.0245    -0.9923 H       
  25 H25           -1.0762     5.9659     0.5570 H       
  26 H26            0.7008     6.0665     0.5412 H       
@<TRIPOS>BOND
   1    1    2 1
   2    1   10 ar
   3    1   14 ar
   4    2    3 3
   5    3    4 1
   6    4    5 ar
   7    4    9 ar
   8    5    6 ar
   9    5   16 1
  10    6    7 ar
  11    6   17 1
  12    7    8 ar
  13    7   18 1
  14    8    9 ar
  15    8   19 1
  16    9   20 1
  17   10   11 ar
  18   10   21 1
  19   11   12 ar
  20   11   22 1
  21   12   13 ar
  22   12   15 1
  23   13   14 ar
  24   13   23 1
  25   15   24 1
  26   15   25 1
  27   15   26 1

#	End of record

