#	Name: ASD01810998
#	Creating user name:	WinNT
#	Creation time:	15. 06. 2019 19:25

#	Modifying user name:	WinNT
#	Modification time:	15. 06. 2019 19:25

#	Program:	/corina/corina34_cracker 3.40 0067  02.08.2006

@<TRIPOS>MOLECULE
ASD01810998
  43   44    0    0    0
SMALL
NO_CHARGES


@<TRIPOS>ATOM
   1 C1            -0.0242     1.4727    -0.0590 C.2     
   2 C2            -0.0010    -0.0044    -0.0316 C.ar    
   3 C3             1.2149    -0.6874    -0.1186 C.ar    
   4 C4             1.2378    -2.0673    -0.0926 C.ar    
   5 C5             0.0611    -2.7818     0.0194 C.ar    
   6 C6            -1.1606    -2.1120     0.1071 C.ar    
   7 C7            -1.1912    -0.7197     0.0869 C.ar    
   8 O8             1.0180     2.0966    -0.0581 O.2     
   9 O9            -1.2011     2.1273    -0.0907 O.3     
  10 N10           -3.7774    -4.5091     0.3733 N.2     
  11 N11           -2.5376    -4.1881     0.2637 N.2     
  12 C12           -2.4199    -2.8795     0.2271 C.2     
  13 N13           -3.6832    -2.3617     0.3213 N.pl3   
  14 C14           -4.5170    -3.4332     0.4126 C.2     
  15 C15           -6.0182    -3.3871     0.5363 C.3     
  16 C16           -6.6478    -4.2229    -0.5798 C.3     
  17 O17           -8.0713    -4.1791    -0.4625 O.3     
  18 C18           -8.7604    -4.9319    -1.4628 C.3     
  19 C19            0.0961    -4.2881     0.0464 C.3     
  20 C20           -0.1364    -4.8291    -1.3657 C.3     
  21 C21            2.5037     0.0839    -0.2416 C.3     
  22 C22            2.9501     0.5552     1.1439 C.3     
  23 H23            2.1801    -2.5906    -0.1605 H       
  24 H24           -2.1335    -0.1968     0.1590 H       
  25 H25           -1.1657     3.0935    -0.1078 H       
  26 H26           -3.9327    -1.4243     0.3231 H       
  27 H27           -6.3155    -3.7905     1.5043 H       
  28 H28           -6.3580    -2.3548     0.4530 H       
  29 H29           -6.3505    -3.8195    -1.5478 H       
  30 H30           -6.3080    -5.2552    -0.4965 H       
  31 H31           -8.4644    -5.9790    -1.3978 H       
  32 H32           -9.8356    -4.8478    -1.3045 H       
  33 H33           -8.5069    -4.5432    -2.4490 H       
  34 H34            1.0684    -4.6226     0.4082 H       
  35 H35           -0.6854    -4.6579     0.7103 H       
  36 H36            0.6451    -4.4594    -2.0296 H       
  37 H37           -0.1111    -5.9187    -1.3462 H       
  38 H38           -1.1087    -4.4947    -1.7275 H       
  39 H39            3.2720    -0.5585    -0.6719 H       
  40 H40            2.3495     0.9485    -0.8872 H       
  41 H41            2.1819     1.1976     1.5742 H       
  42 H42            3.1043    -0.3093     1.7895 H       
  43 H43            3.8823     1.1131     1.0549 H       
@<TRIPOS>BOND
   1    1    2 1
   2    1    8 2
   3    1    9 1
   4    2    3 ar
   5    2    7 ar
   6    3    4 ar
   7    3   21 1
   8    4    5 ar
   9    4   23 1
  10    5    6 ar
  11    5   19 1
  12    6    7 ar
  13    6   12 1
  14    7   24 1
  15    9   25 1
  16   10   11 1
  17   10   14 2
  18   11   12 2
  19   12   13 1
  20   13   14 1
  21   13   26 1
  22   14   15 1
  23   15   16 1
  24   15   27 1
  25   15   28 1
  26   16   17 1
  27   16   29 1
  28   16   30 1
  29   17   18 1
  30   18   31 1
  31   18   32 1
  32   18   33 1
  33   19   20 1
  34   19   34 1
  35   19   35 1
  36   20   36 1
  37   20   37 1
  38   20   38 1
  39   21   22 1
  40   21   39 1
  41   21   40 1
  42   22   41 1
  43   22   42 1
  44   22   43 1

#	End of record

