#	Name: ASD01900975
#	Creating user name:	WinNT
#	Creation time:	15. 06. 2019 19:52

#	Modifying user name:	WinNT
#	Modification time:	15. 06. 2019 19:52

#	Program:	/corina/corina34_cracker 3.40 0067  02.08.2006

@<TRIPOS>MOLECULE
ASD01900975
  55   59    0    0    0
SMALL
NO_CHARGES


@<TRIPOS>ATOM
   1 C1             0.0998     1.4869    -1.2855 C.ar    
   2 C2             0.0462     0.1103    -1.2777 C.ar    
   3 C3             1.0355    -0.6297    -0.6426 C.ar    
   4 C4             2.0843     0.0070    -0.0018 C.ar    
   5 C5             2.1472     1.3894     0.0035 C.ar    
   6 C6             1.1563     2.1417    -0.6516 C.ar    
   7 N7             3.1758     2.0646     0.6560 N.pl3   
   8 C8             3.5284     3.4071     0.1877 C.3     
   9 N9             2.3662     4.2098    -0.1856 N.am    
  10 C10            1.2486     3.6112    -0.6506 C.2     
  11 C11            2.4107     5.6039    -0.0595 C.ar    
  12 C12            2.9039     6.3801    -1.0999 C.ar    
  13 C13            2.9471     7.7546    -0.9750 C.ar    
  14 C14            2.4978     8.3601     0.1895 C.ar    
  15 C15            2.0054     7.5853     1.2295 C.ar    
  16 C16            1.9563     6.2110     1.1038 C.ar    
  17 O17            0.3234     4.2823    -1.0667 O.2     
  18 O18            2.5406     9.7136     0.3117 O.3     
  19 C19            4.5104     4.1381     1.1135 C.3     
  20 C20            2.0619    10.2697     1.5380 C.3     
  21 N21            5.1922     4.5769    -0.1251 N.3     
  22 C22            4.6473     3.4146    -0.8626 C.3     
  23 C23            6.6512     4.4758     0.0130 C.3     
  24 C24            7.3048     4.8120    -1.3026 C.ar    
  25 C25            8.3981     4.0856    -1.7362 C.ar    
  26 C26            8.9981     4.3927    -2.9427 C.ar    
  27 C27            8.5036     5.4285    -3.7173 C.ar    
  28 C28            7.4085     6.1553    -3.2819 C.ar    
  29 C29            6.8070     5.8430    -2.0776 C.ar    
  30 F30            2.8200     9.7719     2.6032 F       
  31 F31            2.1774    11.6633     1.4945 F       
  32 F32            0.7196     9.9184     1.7167 F       
  33 C33            7.1310     5.4553     1.0859 C.3     
  34 F34            0.9733    -1.9793    -0.6500 F       
  35 F35            9.0896     5.7299    -4.8967 F       
  36 H36           -0.6704     2.0566    -1.7840 H       
  37 H37           -0.7710    -0.3972    -1.7686 H       
  38 H38            2.8501    -0.5726     0.4922 H       
  39 H39            3.6456     1.6573     1.4005 H       
  40 H40            3.2540     5.9089    -2.0064 H       
  41 H41            3.3310     8.3584    -1.7840 H       
  42 H42            1.6562     8.0573     2.1359 H       
  43 H43            1.5688     5.6082     1.9118 H       
  44 H44            4.0580     4.9531     1.6785 H       
  45 H45            5.1102     3.4710     1.7327 H       
  46 H46            5.2877     2.5332    -0.8288 H       
  47 H47            4.3039     3.6544    -1.8689 H       
  48 H48            6.9192     3.4597     0.3027 H       
  49 H49            8.7838     3.2780    -1.1317 H       
  50 H50            9.8524     3.8253    -3.2811 H       
  51 H51            7.0220     6.9634    -3.8852 H       
  52 H52            5.9503     6.4071    -1.7397 H       
  53 H53            8.2136     5.3803     1.1884 H       
  54 H54            6.8630     6.4714     0.7963 H       
  55 H55            6.6583     5.2121     2.0375 H       
@<TRIPOS>BOND
   1    1    2 ar
   2    1    6 ar
   3    1   36 1
   4    2    3 ar
   5    2   37 1
   6    3    4 ar
   7    3   34 1
   8    4    5 ar
   9    4   38 1
  10    5    7 1
  11    5    6 ar
  12    6   10 1
  13    7    8 1
  14    7   39 1
  15    8    9 1
  16    8   19 1
  17    8   22 1
  18    9   10 am
  19    9   11 1
  20   10   17 2
  21   11   12 ar
  22   11   16 ar
  23   12   13 ar
  24   12   40 1
  25   13   14 ar
  26   13   41 1
  27   14   15 ar
  28   14   18 1
  29   15   16 ar
  30   15   42 1
  31   16   43 1
  32   18   20 1
  33   19   21 1
  34   19   44 1
  35   19   45 1
  36   20   30 1
  37   20   31 1
  38   20   32 1
  39   21   23 1
  40   21   22 1
  41   22   46 1
  42   22   47 1
  43   23   24 1
  44   23   33 1
  45   23   48 1
  46   24   25 ar
  47   24   29 ar
  48   25   26 ar
  49   25   49 1
  50   26   27 ar
  51   26   50 1
  52   27   28 ar
  53   27   35 1
  54   28   29 ar
  55   28   51 1
  56   29   52 1
  57   33   53 1
  58   33   54 1
  59   33   55 1

#	End of record

