#	Name: ASD01883308
#	Creating user name:	WinNT
#	Creation time:	15. 06. 2019 19:46

#	Modifying user name:	WinNT
#	Modification time:	15. 06. 2019 19:46

#	Program:	/corina/corina34_cracker 3.40 0067  02.08.2006

@<TRIPOS>MOLECULE
ASD01883308
  52   53    0    0    0
SMALL
NO_CHARGES


@<TRIPOS>ATOM
   1 N1            -0.0162     1.3424     0.0094 N.am    
   2 C2             0.0021    -0.0041     0.0020 C.2     
   3 C3            -1.2200    -0.7260     0.0103 C.2     
   4 C4            -2.4186    -0.0172     0.0260 C.2     
   5 C5            -2.3789     1.3778     0.0331 C.2     
   6 C6            -1.1865     2.0253     0.0299 C.2     
   7 O7             1.0648    -0.6011    -0.0121 O.2     
   8 C8            -1.2204    -2.1580     0.0021 C.1     
   9 N9            -1.2207    -3.2939    -0.0043 N.1     
  10 C10            1.2492     2.0805     0.0013 C.3     
  11 C11            1.6760     2.3452    -1.4439 C.3     
  12 C12            2.9975     3.1162    -1.4524 C.3     
  13 C13            3.4877     3.2723    -2.8933 C.3     
  14 C14            2.7852     4.4991    -0.8333 C.3     
  15 C15           -3.7381    -0.7452     0.0347 C.3     
  16 C16           -4.2313    -0.8897     1.4758 C.3     
  17 C17           -5.5508    -1.6177     1.4845 C.ar    
  18 C18           -5.5780    -2.9948     1.5812 C.ar    
  19 C19           -6.7948    -3.6652     1.5891 C.ar    
  20 C20           -7.9803    -2.9471     1.4997 C.ar    
  21 C21           -7.9459    -1.5696     1.4033 C.ar    
  22 C22           -6.7333    -0.9052     1.4013 C.ar    
  23 N23           -6.8259    -5.0582     1.6864 N.pl3   
  24 C24           -5.5745    -5.8141     1.7801 C.3     
  25 C25           -8.1100    -5.7634     1.6946 C.3     
  26 H26           -3.2991     1.9430     0.0453 H       
  27 H27           -1.1699     3.1052     0.0358 H       
  28 H28            1.1196     3.0296     0.5215 H       
  29 H29            2.0163     1.4921     0.5047 H       
  30 H30            1.8056     1.3962    -1.9641 H       
  31 H31            0.9088     2.9337    -1.9473 H       
  32 H32            3.7411     2.5690    -0.8730 H       
  33 H33            2.7441     3.8195    -3.4728 H       
  34 H34            4.4292     3.8215    -2.8994 H       
  35 H35            3.6389     2.2870    -3.3344 H       
  36 H36            2.4360     4.3879     0.1933 H       
  37 H37            3.7267     5.0483    -0.8393 H       
  38 H38            2.0416     5.0463    -1.4127 H       
  39 H39           -4.4685    -0.1803    -0.5445 H       
  40 H40           -3.6105    -1.7337    -0.4065 H       
  41 H41           -3.5009    -1.4545     2.0549 H       
  42 H42           -4.3589     0.0989     1.9170 H       
  43 H43           -4.6543    -3.5503     1.6502 H       
  44 H44           -8.9279    -3.4651     1.5053 H       
  45 H45           -8.8674    -1.0106     1.3337 H       
  46 H46           -6.7093     0.1719     1.3261 H       
  47 H47           -5.2972    -5.9293     2.8279 H       
  48 H48           -5.7094    -6.7975     1.3297 H       
  49 H49           -4.7858    -5.2778     1.2524 H       
  50 H50           -8.3954    -6.0106     0.6721 H       
  51 H51           -8.0175    -6.6797     2.2776 H       
  52 H52           -8.8725    -5.1246     2.1403 H       
@<TRIPOS>BOND
   1    1    2 am
   2    1   10 1
   3    1    6 1
   4    2    3 1
   5    2    7 2
   6    3    4 2
   7    3    8 1
   8    4    5 1
   9    4   15 1
  10    5    6 2
  11    5   26 1
  12    6   27 1
  13    8    9 3
  14   10   11 1
  15   10   28 1
  16   10   29 1
  17   11   12 1
  18   11   30 1
  19   11   31 1
  20   12   13 1
  21   12   14 1
  22   12   32 1
  23   13   33 1
  24   13   34 1
  25   13   35 1
  26   14   36 1
  27   14   37 1
  28   14   38 1
  29   15   16 1
  30   15   39 1
  31   15   40 1
  32   16   17 1
  33   16   41 1
  34   16   42 1
  35   17   18 ar
  36   17   22 ar
  37   18   19 ar
  38   18   43 1
  39   19   20 ar
  40   19   23 1
  41   20   21 ar
  42   20   44 1
  43   21   22 ar
  44   21   45 1
  45   22   46 1
  46   23   24 1
  47   23   25 1
  48   24   47 1
  49   24   48 1
  50   24   49 1
  51   25   50 1
  52   25   51 1
  53   25   52 1

#	End of record

