#	Name: ASD04230127
#	Creating user name:	WinNT
#	Creation time:	15. 06. 2019 20:48

#	Modifying user name:	WinNT
#	Modification time:	15. 06. 2019 20:48

#	Program:	/corina/corina34_cracker 3.40 0067  02.08.2006

@<TRIPOS>MOLECULE
ASD04230127
  46   49    0    0    0
SMALL
NO_CHARGES


@<TRIPOS>ATOM
   1 C1            -0.0201     1.3790     0.0494 C.ar    
   2 C2            -0.0003    -0.0082     0.0380 C.ar    
   3 C3             1.1849    -0.6863     0.0293 C.ar    
   4 C4             2.3957     0.0212     0.0423 C.ar    
   5 C5             2.3815     1.4276     0.0206 C.ar    
   6 C6             1.1610     2.0997     0.0379 C.ar    
   7 C7             3.6343    -0.6710     0.0721 C.2     
   8 C8             4.7886     0.0708     0.2854 C.2     
   9 C9             4.6293     1.5213     0.4959 C.2     
  10 O10            3.5429     2.1221    -0.0388 O.3     
  11 C11            6.1166    -0.5650     0.3012 C.2     
  12 N12            7.2188     0.1818     0.5109 N.am    
  13 O13            6.2189    -1.7642     0.1251 O.2     
  14 C14            8.4676    -0.4350     0.6381 C.ar    
  15 C15            9.6062     0.1932     0.1482 C.ar    
  16 C16           10.8422    -0.4132     0.2720 C.ar    
  17 C17           10.9528    -1.6460     0.8829 C.ar    
  18 C18            9.8156    -2.2842     1.3771 C.ar    
  19 C19            8.5707    -1.6712     1.2583 C.ar    
  20 C20            9.9324    -3.6091     2.0328 C.ar    
  21 O21            5.4494     2.1572     1.1312 O.2     
  22 C22           11.1805    -4.2173     2.1552 C.ar    
  23 C23           11.2905    -5.4502     2.7652 C.ar    
  24 C24           10.1471    -6.0883     3.2603 C.ar    
  25 C25            8.8972    -5.4745     3.1353 C.ar    
  26 C26            8.7931    -4.2427     2.5315 C.ar    
  27 F27           12.4997    -6.0408     2.8840 F       
  28 C28           10.2575    -7.3680     3.8934 C.1     
  29 N29           10.3451    -8.3832     4.3957 N.1     
  30 O30            1.1309     3.4591     0.0425 O.3     
  31 C31           -0.1564     4.0794     0.0604 C.3     
  32 H32           -0.9655     1.9009     0.0628 H       
  33 H33           -0.9306    -0.5567     0.0364 H       
  34 H34            1.1898    -1.7661     0.0129 H       
  35 H35            3.6777    -1.7412    -0.0663 H       
  36 H36            7.1460     1.1470     0.5735 H       
  37 H37            9.5251     1.1577    -0.3309 H       
  38 H38           11.7240     0.0791    -0.1107 H       
  39 H39           11.9202    -2.1166     0.9778 H       
  40 H40            7.6871    -2.1614     1.6395 H       
  41 H41           12.0616    -3.7238     1.7724 H       
  42 H42            8.0139    -5.9655     3.5164 H       
  43 H43            7.8272    -3.7690     2.4357 H       
  44 H44           -0.6957     3.7714     0.9561 H       
  45 H45           -0.0376     5.1629     0.0623 H       
  46 H46           -0.7177     3.7769    -0.8237 H       
@<TRIPOS>BOND
   1    1    2 ar
   2    1    6 ar
   3    1   32 1
   4    2    3 ar
   5    2   33 1
   6    3    4 ar
   7    3   34 1
   8    4    5 ar
   9    4    7 1
  10    5    6 ar
  11    5   10 1
  12    6   30 1
  13    7    8 2
  14    7   35 1
  15    8    9 1
  16    8   11 1
  17    9   10 1
  18    9   21 2
  19   11   12 am
  20   11   13 2
  21   12   14 1
  22   12   36 1
  23   14   15 ar
  24   14   19 ar
  25   15   16 ar
  26   15   37 1
  27   16   17 ar
  28   16   38 1
  29   17   18 ar
  30   17   39 1
  31   18   19 ar
  32   18   20 1
  33   19   40 1
  34   20   22 ar
  35   20   26 ar
  36   22   23 ar
  37   22   41 1
  38   23   24 ar
  39   23   27 1
  40   24   25 ar
  41   24   28 1
  42   25   26 ar
  43   25   42 1
  44   26   43 1
  45   28   29 3
  46   30   31 1
  47   31   44 1
  48   31   45 1
  49   31   46 1

#	End of record

