#	Name: ASD00061042
#	Creating user name:	WinNT
#	Creation time:	15. 06. 2019 18:29

#	Modifying user name:	WinNT
#	Modification time:	15. 06. 2019 18:29

#	Program:	/corina/corina34_cracker 3.40 0067  02.08.2006

@<TRIPOS>MOLECULE
ASD00061042
  43   45    0    0    0
SMALL
NO_CHARGES


@<TRIPOS>ATOM
   1 C1            -1.6605     1.1195     0.3107 C.2     
   2 C2            -1.0891    -0.2204     0.1943 C.2     
   3 C3            -1.9956    -1.4199     0.0924 C.3     
   4 O4             0.1158    -0.3672     0.1798 O.2     
   5 C5            -1.1565    -2.6727    -0.1674 C.3     
   6 C6            -2.0464    -3.8885    -0.1374 C.ar    
   7 C7            -1.8128    -4.8935     0.7826 C.ar    
   8 C8            -2.6291    -6.0087     0.8101 C.ar    
   9 C9            -3.6793    -6.1188    -0.0821 C.ar    
  10 C10           -3.9134    -5.1134    -1.0015 C.ar    
  11 C11           -3.0998    -3.9961    -1.0261 C.ar    
  12 C12           -0.9483     2.2778     0.4094 C.2     
  13 C13           -1.8723     3.3442     0.5019 C.ar    
  14 C14           -3.1620     2.7781     0.4546 C.ar    
  15 N15           -3.0112     1.4173     0.3324 N.pl3   
  16 C16           -1.7287     4.7337     0.6206 C.ar    
  17 C17           -2.8364     5.5268     0.6894 C.ar    
  18 C18           -4.1091     4.9708     0.6430 C.ar    
  19 C19           -4.2767     3.6093     0.5271 C.ar    
  20 C20           -0.4884    -2.5635    -1.5395 C.3     
  21 C21            0.2511    -3.8414    -1.8413 C.2     
  22 O22           -0.0041    -4.4647    -2.8444 O.2     
  23 O23            1.1934    -4.2873    -0.9956 O.3     
  24 C24           -1.5402    -2.3309    -2.5934 C.2     
  25 O25           -1.9557    -3.2581    -3.2472 O.2     
  26 O26           -2.0155    -1.0937    -2.8056 O.3     
  27 H27           -2.5470    -1.5390     1.0251 H       
  28 H28           -2.6976    -1.2761    -0.7289 H       
  29 H29           -0.3911    -2.7636     0.6032 H       
  30 H30           -0.9924    -4.8075     1.4796 H       
  31 H31           -2.4462    -6.7942     1.5283 H       
  32 H32           -4.3166    -6.9904    -0.0611 H       
  33 H33           -4.7337    -5.1995    -1.6987 H       
  34 H34           -3.2827    -3.2106    -1.7444 H       
  35 H35            0.1282     2.3652     0.4161 H       
  36 H36           -3.7329     0.7717     0.2761 H       
  37 H37           -0.7437     5.1751     0.6579 H       
  38 H38           -2.7232     6.5970     0.7812 H       
  39 H39           -4.9755     5.6132     0.6991 H       
  40 H40           -5.2702     3.1871     0.4916 H       
  41 H41            0.2135    -1.7295    -1.5365 H       
  42 H42            1.5877    -5.1481    -1.1920 H       
  43 H43           -2.6892    -0.9940    -3.4921 H       
@<TRIPOS>BOND
   1    1    2 1
   2    1   12 2
   3    1   15 1
   4    2    3 1
   5    2    4 2
   6    3    5 1
   7    3   27 1
   8    3   28 1
   9    5    6 1
  10    5   20 1
  11    5   29 1
  12    6    7 ar
  13    6   11 ar
  14    7    8 ar
  15    7   30 1
  16    8    9 ar
  17    8   31 1
  18    9   10 ar
  19    9   32 1
  20   10   11 ar
  21   10   33 1
  22   11   34 1
  23   12   13 1
  24   12   35 1
  25   13   14 ar
  26   13   16 ar
  27   14   15 1
  28   14   19 ar
  29   15   36 1
  30   16   17 ar
  31   16   37 1
  32   17   18 ar
  33   17   38 1
  34   18   19 ar
  35   18   39 1
  36   19   40 1
  37   20   21 1
  38   20   24 1
  39   20   41 1
  40   21   22 2
  41   21   23 1
  42   23   42 1
  43   24   25 2
  44   24   26 1
  45   26   43 1

#	End of record

