#	Name: ASD07330005
#	Creating user name:	WinNT
#	Creation time:	15. 06. 2019 21:11

#	Modifying user name:	WinNT
#	Modification time:	15. 06. 2019 21:11

#	Program:	/corina/corina34_cracker 3.40 0067  02.08.2006

@<TRIPOS>MOLECULE
ASD07330005
  71   75    0    0    0
SMALL
NO_CHARGES


@<TRIPOS>ATOM
   1 C1             1.4817     2.4615     2.0532 C.ar    
   2 C2             2.3878     2.1163     3.0449 C.ar    
   3 N3             3.3642     1.2617     2.8237 N.ar    
   4 C4             3.5277     0.6875     1.6360 C.ar    
   5 C5             2.6395     0.9937     0.5799 C.ar    
   6 C6             1.5989     1.8973     0.7951 C.ar    
   7 N7             4.5332    -0.1924     1.4069 N.2     
   8 C8             4.6971    -0.7557     0.2479 C.2     
   9 N9             3.8915    -0.5194    -0.8204 N.am    
  10 C10            2.8508     0.3407    -0.7186 C.2     
  11 O11            2.1191     0.5635    -1.6655 O.2     
  12 C12            4.1399    -1.1704    -2.0368 C.ar    
  13 C13            3.3021    -2.1933    -2.4609 C.ar    
  14 C14            3.5470    -2.8337    -3.6593 C.ar    
  15 C15            4.6300    -2.4554    -4.4397 C.ar    
  16 C16            5.4675    -1.4334    -4.0165 C.ar    
  17 C17            5.2205    -0.7887    -2.8208 C.ar    
  18 C18            5.8413    -1.7218     0.0792 C.3     
  19 C19            6.8418    -1.5318     1.2211 C.3     
  20 N20            5.3290    -3.0941     0.1020 N.am    
  21 C21            4.5187    -3.5549     1.2322 C.3     
  22 C22            5.6033    -3.9328    -0.9167 C.2     
  23 C23            3.0575    -3.4460     0.8801 C.ar    
  24 C24            5.1805    -5.3772    -0.8384 C.3     
  25 O25            6.1903    -3.5251    -1.8966 O.2     
  26 C26            5.7735    -6.1377    -1.9963 C.ar    
  27 C27            7.0139    -6.7340    -1.8682 C.ar    
  28 C28            7.5586    -7.4323    -2.9294 C.ar    
  29 C29            6.8613    -7.5342    -4.1211 C.ar    
  30 C30            5.6187    -6.9363    -4.2483 C.ar    
  31 C31            5.0739    -6.2433    -3.1843 C.ar    
  32 C32            2.3806    -4.5331     0.3481 C.ar    
  33 C33            1.0371    -4.3870     0.0392 C.ar    
  34 C34            0.4212    -3.1712     0.2701 C.ar    
  35 N35            1.0965    -2.1587     0.7775 N.ar    
  36 C36            2.3738    -2.2634     1.0886 C.ar    
  37 F37            7.3930    -8.2160    -5.1592 F       
  38 C38            4.8587    -7.0460    -5.5450 C.3     
  39 F39            3.6409    -6.3669    -5.4306 F       
  40 F40            5.6136    -6.4791    -6.5774 F       
  41 F41            4.6159    -8.3938    -5.8306 F       
  42 O42            4.8709    -3.0867    -5.6193 O.3     
  43 C43            6.1117    -3.4671    -7.6580 C.3     
  44 C44            6.0031    -2.6460    -6.3716 C.3     
  45 H45            0.6872     3.1624     2.2628 H       
  46 H46            2.2899     2.5607     4.0244 H       
  47 H47            0.9064     2.1482     0.0052 H       
  48 H48            2.4593    -2.4881    -1.8533 H       
  49 H49            2.8957    -3.6296    -3.9890 H       
  50 H50            6.3105    -1.1396    -4.6242 H       
  51 H51            5.8723     0.0071    -2.4916 H       
  52 H52            6.3372    -1.5349    -0.8732 H       
  53 H53            6.3266    -1.6336     2.1762 H       
  54 H54            7.6242    -2.2871     1.1480 H       
  55 H55            7.2872    -0.5394     1.1525 H       
  56 H56            4.7625    -4.5938     1.4545 H       
  57 H57            4.7290    -2.9375     2.1056 H       
  58 H58            5.5331    -5.8086     0.0984 H       
  59 H59            4.0931    -5.4403    -0.8809 H       
  60 H60            7.5578    -6.6541    -0.9386 H       
  61 H61            8.5279    -7.8978    -2.8292 H       
  62 H62            4.1048    -5.7770    -3.2832 H       
  63 H63            2.8881    -5.4711     0.1781 H       
  64 H64            0.4788    -5.2125    -0.3770 H       
  65 H65           -0.6251    -3.0492     0.0318 H       
  66 H66            2.8938    -1.4122     1.5026 H       
  67 H67            5.2071    -3.3342    -8.2514 H       
  68 H68            6.9753    -3.1310    -8.2318 H       
  69 H69            6.2301    -4.5213    -7.4072 H       
  70 H70            5.8847    -1.5918    -6.6224 H       
  71 H71            6.9077    -2.7789    -5.7782 H       
@<TRIPOS>BOND
   1    1    2 ar
   2    1    6 ar
   3    1   45 1
   4    2    3 ar
   5    2   46 1
   6    3    4 ar
   7    4    5 ar
   8    4    7 1
   9    5    6 ar
  10    5   10 1
  11    6   47 1
  12    7    8 2
  13    8    9 1
  14    8   18 1
  15    9   10 am
  16    9   12 1
  17   10   11 2
  18   12   13 ar
  19   12   17 ar
  20   13   14 ar
  21   13   48 1
  22   14   15 ar
  23   14   49 1
  24   15   16 ar
  25   15   42 1
  26   16   17 ar
  27   16   50 1
  28   17   51 1
  29   18   19 1
  30   18   20 1
  31   18   52 1
  32   19   53 1
  33   19   54 1
  34   19   55 1
  35   20   21 1
  36   20   22 am
  37   21   23 1
  38   21   56 1
  39   21   57 1
  40   22   24 1
  41   22   25 2
  42   23   32 ar
  43   23   36 ar
  44   24   26 1
  45   24   58 1
  46   24   59 1
  47   26   27 ar
  48   26   31 ar
  49   27   28 ar
  50   27   60 1
  51   28   29 ar
  52   28   61 1
  53   29   30 ar
  54   29   37 1
  55   30   31 ar
  56   30   38 1
  57   31   62 1
  58   32   33 ar
  59   32   63 1
  60   33   34 ar
  61   33   64 1
  62   34   35 ar
  63   34   65 1
  64   35   36 ar
  65   36   66 1
  66   38   39 1
  67   38   40 1
  68   38   41 1
  69   42   44 1
  70   43   44 1
  71   43   67 1
  72   43   68 1
  73   43   69 1
  74   44   70 1
  75   44   71 1

#	End of record

