#	Name: ASD01870727
#	Creating user name:	WinNT
#	Creation time:	15. 06. 2019 19:39

#	Modifying user name:	WinNT
#	Modification time:	15. 06. 2019 19:39

#	Program:	/corina/corina34_cracker 3.40 0067  02.08.2006

@<TRIPOS>MOLECULE
ASD01870727
  42   46    0    0    0
SMALL
NO_CHARGES


@<TRIPOS>ATOM
   1 F1             3.8719    10.4285     1.9201 F       
   2 O2            -2.6933     2.1676    -1.0274 O.2     
   3 N3            -0.5076     1.6379    -0.7225 N.am    
   4 N4             1.6462     9.5151     0.5422 N.pl3   
   5 N5             2.2805     7.8030    -0.6516 N.2     
   6 N6             2.6460     8.9814    -0.2837 N.2     
   7 N7             2.7869    12.4027     2.4289 N.ar    
   8 C8            -0.5949     0.1793    -0.8273 C.3     
   9 C9            -1.4802    -0.5500     0.1853 C.3     
  10 C10           -1.9317    -0.4184    -1.2706 C.3     
  11 C11            0.7210     2.4058    -0.4908 C.3     
  12 C12           -1.5389     2.4932    -0.8287 C.2     
  13 C13            0.3114     3.8574    -0.4613 C.ar    
  14 C14           -1.0714     3.8819    -0.6700 C.ar    
  15 C15            1.0091     5.0259    -0.2838 C.ar    
  16 C16           -1.7434     5.1079    -0.6968 C.ar    
  17 C17            0.3351     6.2486    -0.3080 C.ar    
  18 C18           -1.0447     6.2791    -0.5152 C.ar    
  19 C19            1.0848     7.5131    -0.1167 C.2     
  20 C20            0.6752     8.5749     0.6329 C.2     
  21 C21           -0.6098     8.6821     1.4129 C.3     
  22 C22            1.6530    10.7750     1.1592 C.ar    
  23 C23            0.5347    11.5996     1.0926 C.ar    
  24 C24            2.7781    11.2181     1.8472 C.ar    
  25 C25            0.5888    12.8354     1.7183 C.ar    
  26 C26            1.7419    13.2066     2.3829 C.ar    
  27 H27            0.3150    -0.3238    -1.1546 H       
  28 H28           -2.7463     0.2736    -1.4843 H       
  29 H29           -1.9016    -1.3149    -1.8898 H       
  30 H30           -1.1529    -1.5331     0.5239 H       
  31 H31           -1.9976     0.0555     0.9295 H       
  32 H32            1.1656     2.1224     0.4632 H       
  33 H33            1.4294     2.2328    -1.3010 H       
  34 H34            2.0770     4.9998    -0.1254 H       
  35 H35           -2.8106     5.1354    -0.8604 H       
  36 H36           -1.5651     7.2252    -0.5365 H       
  37 H37           -1.3954     9.0739     0.7669 H       
  38 H38           -0.8971     7.6957     1.7770 H       
  39 H39           -0.4662     9.3541     2.2590 H       
  40 H40           -0.3540    11.2848     0.5659 H       
  41 H41           -0.2612    13.5009     1.6865 H       
  42 H42            1.7883    14.1685     2.8717 H       
@<TRIPOS>BOND
   1    1   24 1
   2    2   12 2
   3    3    8 1
   4    3   11 1
   5    3   12 am
   6    4    6 1
   7    4   20 1
   8    4   22 1
   9    5    6 2
  10    5   19 1
  11    7   24 ar
  12    7   26 ar
  13    8    9 1
  14    8   10 1
  15    8   27 1
  16    9   10 1
  17    9   30 1
  18    9   31 1
  19   10   28 1
  20   10   29 1
  21   11   13 1
  22   11   32 1
  23   11   33 1
  24   12   14 1
  25   13   14 ar
  26   13   15 ar
  27   14   16 ar
  28   15   17 ar
  29   15   34 1
  30   16   18 ar
  31   16   35 1
  32   17   18 ar
  33   17   19 1
  34   18   36 1
  35   19   20 2
  36   20   21 1
  37   21   37 1
  38   21   38 1
  39   21   39 1
  40   22   23 ar
  41   22   24 ar
  42   23   25 ar
  43   23   40 1
  44   25   26 ar
  45   25   41 1
  46   26   42 1

#	End of record

