#	Name: ASD03091760
#	Creating user name:	WinNT
#	Creation time:	15. 06. 2019 20:31

#	Modifying user name:	WinNT
#	Modification time:	15. 06. 2019 20:31

#	Program:	/corina/corina34_cracker 3.40 0067  02.08.2006

@<TRIPOS>MOLECULE
ASD03091760
  32   34    0    0    0
SMALL
NO_CHARGES


@<TRIPOS>ATOM
   1 C1            -0.0110     1.4661    -0.0346 C.3     
   2 C2             0.0622    -0.0606    -0.1052 C.3     
   3 N3             0.7601    -0.5739     1.0806 N.3     
   4 C4             0.0357    -0.2322     2.3114 C.3     
   5 C5            -0.0389     1.2892     2.4560 C.3     
   6 C6             1.3807     1.8617     2.5289 C.3     
   7 N7             2.0587     1.6068     1.2506 N.am    
   8 C8             1.4091     2.0405     0.0062 C.3     
   9 C9             3.2546     0.9861     1.2201 C.2     
  10 O10            3.7520     0.6755     0.1536 O.2     
  11 C11            3.9561     0.6851     2.4712 C.2     
  12 C12            5.0961    -0.0575     2.5934 C.2     
  13 C13           -0.7562     1.8794     1.2382 C.3     
  14 O14            3.5921     1.0980     3.7035 O.3     
  15 C15            4.4677     0.6332     4.6044 C.2     
  16 C16            5.4142    -0.0871     3.9593 C.2     
  17 Br17           4.3952     0.9370     6.4694 Br      
  18 H18           -0.5343     1.8476    -0.9113 H       
  19 H19           -0.9468    -0.4714    -0.1389 H       
  20 H20            0.6050    -0.3570    -1.0027 H       
  21 H21            0.9058    -1.5699     1.0114 H       
  22 H22           -0.9731    -0.6425     2.2648 H       
  23 H23            0.5594    -0.6533     3.1697 H       
  24 H24           -0.5825     1.5434     3.3660 H       
  25 H25            1.3329     2.9356     2.7095 H       
  26 H26            1.9292     1.3771     3.3366 H       
  27 H27            1.9764     1.6736    -0.8492 H       
  28 H28            1.3640     3.1292    -0.0224 H       
  29 H29            5.6460    -0.5304     1.7932 H       
  30 H30           -0.7700     2.9666     1.3153 H       
  31 H31           -1.7785     1.5033     1.2000 H       
  32 H32            6.2561    -0.5906     4.4111 H       
@<TRIPOS>BOND
   1    1    2 1
   2    1    8 1
   3    1   13 1
   4    1   18 1
   5    2    3 1
   6    2   19 1
   7    2   20 1
   8    3    4 1
   9    3   21 1
  10    4    5 1
  11    4   22 1
  12    4   23 1
  13    5    6 1
  14    5   13 1
  15    5   24 1
  16    6    7 1
  17    6   25 1
  18    6   26 1
  19    7    8 1
  20    7    9 am
  21    8   27 1
  22    8   28 1
  23    9   10 2
  24    9   11 1
  25   11   12 2
  26   11   14 1
  27   12   16 1
  28   12   29 1
  29   13   30 1
  30   13   31 1
  31   14   15 1
  32   15   16 2
  33   15   17 1
  34   16   32 1

#	End of record

