#	Name: ASD01150432
#	Creating user name:	WinNT
#	Creation time:	15. 06. 2019 19:04

#	Modifying user name:	WinNT
#	Modification time:	15. 06. 2019 19:04

#	Program:	/corina/corina34_cracker 3.40 0067  02.08.2006

@<TRIPOS>MOLECULE
ASD01150432
  42   44    0    0    0
SMALL
NO_CHARGES


@<TRIPOS>ATOM
   1 C1            -0.0167     1.3809     0.0096 C.ar    
   2 C2             0.0021    -0.0041     0.0020 C.ar    
   3 C3            -1.1876    -0.7125     0.0095 C.ar    
   4 C4            -2.3977    -0.0394     0.0246 C.ar    
   5 C5            -2.4233     1.3422     0.0319 C.ar    
   6 C6            -1.2348     2.0582     0.0307 C.ar    
   7 N7            -1.2592     3.4588     0.0380 N.am    
   8 C8            -1.9377     4.1049     1.0024 C.2     
   9 N9            -1.9817     5.4497     1.0399 N.am    
  10 C10           -1.3386     6.1735     0.1003 C.2     
  11 C11           -0.5948     5.4733    -0.9570 C.2     
  12 N12           -0.5719     4.1661    -0.9556 N.2     
  13 O13           -1.3741     7.3897     0.1273 O.2     
  14 C14           -2.7290     6.1282     2.1018 C.3     
  15 O15           -2.5218     3.4635     1.8549 O.2     
  16 C16           -1.8187     6.3763     3.2769 C.ar    
  17 C17           -1.0943     7.5513     3.3537 C.ar    
  18 C18           -0.2593     7.7795     4.4312 C.ar    
  19 C19           -0.1484     6.8317     5.4330 C.ar    
  20 C20           -0.8736     5.6560     5.3555 C.ar    
  21 C21           -1.7126     5.4314     4.2804 C.ar    
  22 O22            0.0626     6.1737    -1.9177 O.3     
  23 C23            0.7611     5.4173    -2.9087 C.3     
  24 Cl24           0.9007     7.1173     6.7863 Cl      
  25 F25           -1.1677    -2.0633     0.0016 F       
  26 O26            1.1502     2.0780     0.0022 O.3     
  27 C27            2.3601     1.3177    -0.0134 C.3     
  28 H28            0.9445    -0.5313    -0.0101 H       
  29 H29           -3.3235    -0.5955     0.0305 H       
  30 H30           -3.3684     1.8647     0.0433 H       
  31 H31           -3.1080     7.0795     1.7285 H       
  32 H32           -3.5643     5.5021     2.4152 H       
  33 H33           -1.1807     8.2909     2.5714 H       
  34 H34            0.3069     8.6972     4.4909 H       
  35 H35           -0.7875     4.9158     6.1373 H       
  36 H36           -2.2788     4.5137     4.2198 H       
  37 H37            1.5186     4.7991    -2.4268 H       
  38 H38            0.0566     4.7791    -3.4420 H       
  39 H39            1.2409     6.0968    -3.6130 H       
  40 H40            2.4028     0.6846     0.8728 H       
  41 H41            2.3858     0.6941    -0.9070 H       
  42 H42            3.2145     1.9945    -0.0179 H       
@<TRIPOS>BOND
   1    1    2 ar
   2    1   26 1
   3    1    6 ar
   4    2    3 ar
   5    2   28 1
   6    3    4 ar
   7    3   25 1
   8    4    5 ar
   9    4   29 1
  10    5    6 ar
  11    5   30 1
  12    6    7 1
  13    7    8 am
  14    7   12 1
  15    8    9 am
  16    8   15 2
  17    9   10 am
  18    9   14 1
  19   10   11 1
  20   10   13 2
  21   11   12 2
  22   11   22 1
  23   14   16 1
  24   14   31 1
  25   14   32 1
  26   16   17 ar
  27   16   21 ar
  28   17   18 ar
  29   17   33 1
  30   18   19 ar
  31   18   34 1
  32   19   20 ar
  33   19   24 1
  34   20   21 ar
  35   20   35 1
  36   21   36 1
  37   22   23 1
  38   23   37 1
  39   23   38 1
  40   23   39 1
  41   26   27 1
  42   27   40 1
  43   27   41 1
  44   27   42 1

#	End of record

