#	Name: ASD05060051
#	Creating user name:	WinNT
#	Creation time:	15. 06. 2019 20:56

#	Modifying user name:	WinNT
#	Modification time:	15. 06. 2019 20:56

#	Program:	/corina/corina34_cracker 3.40 0067  02.08.2006

@<TRIPOS>MOLECULE
ASD05060051
  28   29    0    0    0
SMALL
NO_CHARGES


@<TRIPOS>ATOM
   1 C1            -0.0147     1.3010     0.0001 C.2     
   2 N2             0.0027    -0.0038    -0.0055 N.2     
   3 C3             1.2751    -0.4351    -0.0128 C.2     
   4 C4             2.0902     0.6891    -0.0116 C.2     
   5 N5             1.2470     1.7712    -0.0034 N.pl3   
   6 C6             1.7236    -1.8435    -0.0200 C.2     
   7 O7             2.9111    -2.1032    -0.0259 O.2     
   8 N8             0.8159    -2.8398    -0.0200 N.am    
   9 C9             1.2346    -4.1634    -0.1355 C.ar    
  10 C10            0.3050    -5.1920    -0.0266 C.ar    
  11 C11            0.7343    -6.5020    -0.1438 C.ar    
  12 C12            2.0840    -6.7394    -0.3669 C.ar    
  13 C13            2.9515    -5.6696    -0.4644 C.ar    
  14 N14            2.5126    -4.4304    -0.3535 N.ar    
  15 C15            3.5627     0.7146    -0.0180 C.2     
  16 O16            4.1889    -0.3280    -0.0251 O.2     
  17 N17            4.2163     1.8932    -0.0158 N.am    
  18 N18            5.5821     1.9168    -0.0217 N.3     
  19 H19           -0.9059     1.9111     0.0025 H       
  20 H20            1.5114     2.7045    -0.0006 H       
  21 H21           -0.1288    -2.6352     0.0605 H       
  22 H22           -0.7377    -4.9713     0.1475 H       
  23 H23            0.0355    -7.3215    -0.0633 H       
  24 H24            2.4516    -7.7504    -0.4627 H       
  25 H25            4.0022    -5.8494    -0.6376 H       
  26 H26            3.7169     2.7247    -0.0101 H       
  27 H27            5.9274     2.8649    -0.0192 H       
  28 H28            5.9561     1.3938     0.7559 H       
@<TRIPOS>BOND
   1    1    2 2
   2    1    5 1
   3    1   19 1
   4    2    3 1
   5    3    4 2
   6    3    6 1
   7    4    5 1
   8    4   15 1
   9    5   20 1
  10    6    7 2
  11    6    8 am
  12    8    9 1
  13    8   21 1
  14    9   10 ar
  15    9   14 ar
  16   10   11 ar
  17   10   22 1
  18   11   12 ar
  19   11   23 1
  20   12   13 ar
  21   12   24 1
  22   13   14 ar
  23   13   25 1
  24   15   16 2
  25   15   17 am
  26   17   18 1
  27   17   26 1
  28   18   27 1
  29   18   28 1

#	End of record

