#	Name: ASD03731566
#	Creating user name:	WinNT
#	Creation time:	15. 06. 2019 20:45

#	Modifying user name:	WinNT
#	Modification time:	15. 06. 2019 20:45

#	Program:	/corina/corina34_cracker 3.40 0067  02.08.2006

@<TRIPOS>MOLECULE
ASD03731566
  36   37    0    0    0
SMALL
NO_CHARGES


@<TRIPOS>ATOM
   1 C1             0.3753     1.0939     1.9773 C.2     
   2 C2             0.2919    -0.2826     1.4510 C.ar    
   3 C3             1.3745    -0.8359     0.7617 C.ar    
   4 C4             1.2928    -2.1201     0.2723 C.ar    
   5 C5             0.1351    -2.8662     0.4625 C.ar    
   6 C6            -0.9438    -2.3194     1.1475 C.ar    
   7 C7            -0.8675    -1.0377     1.6455 C.ar    
   8 O8             1.3868     1.7479     1.8115 O.2     
   9 N9            -0.6718     1.6277     2.6369 N.am    
  10 C10            2.4596    -2.7177    -0.4711 C.3     
  11 F11            3.4995    -1.7840    -0.5348 F       
  12 F12            2.9019    -3.8634     0.1989 F       
  13 F13            2.0605    -3.0604    -1.7674 F       
  14 S14           -0.5782     3.1720     3.2275 S.o2    
  15 O15           -1.8291     3.3782     3.8692 O.2     
  16 O16            0.6359     3.1920     3.9655 O.2     
  17 C17           -0.4418     4.2144     1.7491 C.3     
  18 O18            0.0580    -4.1313    -0.0222 O.3     
  19 C19           -1.1276    -4.7862     0.0893 C.ar    
  20 C20           -2.0816    -4.6707    -0.9116 C.ar    
  21 C21           -3.2868    -5.3376    -0.7962 C.ar    
  22 C22           -3.5417    -6.1204     0.3178 C.ar    
  23 C23           -2.5913    -6.2360     1.3160 C.ar    
  24 C24           -1.3832    -5.5754     1.2013 C.ar    
  25 Cl25          -5.0561    -6.9568     0.4614 Cl      
  26 Cl26          -4.4815    -5.1936    -2.0474 Cl      
  27 H27            2.2738    -0.2567     0.6130 H       
  28 H28           -1.8415    -2.9020     1.2930 H       
  29 H29           -1.7043    -0.6153     2.1818 H       
  30 H30           -1.4802     1.1074     2.7658 H       
  31 H31           -1.3212     4.0715     1.1213 H       
  32 H32           -0.3744     5.2607     2.0473 H       
  33 H33            0.4523     3.9375     1.1906 H       
  34 H34           -1.8828    -4.0601    -1.7799 H       
  35 H35           -2.7919    -6.8468     2.1839 H       
  36 H36           -0.6397    -5.6701     1.9789 H       
@<TRIPOS>BOND
   1    1    2 1
   2    1    8 2
   3    1    9 am
   4    2    3 ar
   5    2    7 ar
   6    3    4 ar
   7    3   27 1
   8    4    5 ar
   9    4   10 1
  10    5    6 ar
  11    5   18 1
  12    6    7 ar
  13    6   28 1
  14    7   29 1
  15    9   14 am
  16    9   30 1
  17   10   11 1
  18   10   12 1
  19   10   13 1
  20   14   15 2
  21   14   16 2
  22   14   17 1
  23   17   31 1
  24   17   32 1
  25   17   33 1
  26   18   19 1
  27   19   20 ar
  28   19   24 ar
  29   20   21 ar
  30   20   34 1
  31   21   22 ar
  32   21   26 1
  33   22   23 ar
  34   22   25 1
  35   23   24 ar
  36   23   35 1
  37   24   36 1

#	End of record

