#	Name: ASD00111127
#	Creating user name:	WinNT
#	Creation time:	15. 06. 2019 18:31

#	Modifying user name:	WinNT
#	Modification time:	15. 06. 2019 18:31

#	Program:	/corina/corina34_cracker 3.40 0067  02.08.2006

@<TRIPOS>MOLECULE
ASD00111127
  35   36    0    0    0
SMALL
NO_CHARGES


@<TRIPOS>ATOM
   1 N1             1.1670     1.6581     0.3231 N.am    
   2 C2             0.6659     0.3210     0.0206 C.3     
   3 C3             0.6301    -0.5203     1.3014 C.3     
   4 C4             2.0216    -1.0466     1.5736 C.ar    
   5 C5             3.0167    -0.1940     1.9841 C.ar    
   6 C6             2.7309     1.2798     2.1675 C.3     
   7 C7             2.5266     1.9153     0.7878 C.3     
   8 C8             4.2893    -0.6768     2.2337 C.ar    
   9 C9             4.5574    -2.0232     2.0685 C.ar    
  10 C10            3.5555    -2.8824     1.6544 C.ar    
  11 C11            2.2842    -2.3946     1.4061 C.ar    
  12 C12            0.1716     0.3490     2.4740 C.3     
  13 C13           -1.3530     0.2892     2.5876 C.3     
  14 Cl14           3.8926    -4.5726     1.4460 Cl      
  15 C15            0.3359     2.7065     0.1601 C.2     
  16 O16           -0.7984     2.5262    -0.2293 O.2     
  17 C17            0.8161     4.1027     0.4619 C.3     
  18 F18           -0.2172     5.0140     0.2186 F       
  19 F19            1.2024     4.1831     1.8041 F       
  20 F20            1.9088     4.4072    -0.3569 F       
  21 H21           -0.3401     0.3957    -0.3923 H       
  22 H22            1.3216    -0.1557    -0.7080 H       
  23 H23           -0.0579    -1.3556     1.1712 H       
  24 H24            1.8283     1.4057     2.7654 H       
  25 H25            3.5737     1.7562     2.6684 H       
  26 H26            3.2381     1.4864     0.0822 H       
  27 H27            2.6888     2.9909     0.8565 H       
  28 H28            5.0705    -0.0043     2.5561 H       
  29 H29            5.5492    -2.4040     2.2625 H       
  30 H30            1.5004    -3.0635     1.0827 H       
  31 H31            0.6194    -0.0199     3.3967 H       
  32 H32            0.4832     1.3799     2.3057 H       
  33 H33           -1.8009     0.6581     1.6648 H       
  34 H34           -1.6647    -0.7417     2.7558 H       
  35 H35           -1.6797     0.9085     3.4229 H       
@<TRIPOS>BOND
   1    1    2 1
   2    1    7 1
   3    1   15 am
   4    2    3 1
   5    2   21 1
   6    2   22 1
   7    3    4 1
   8    3   12 1
   9    3   23 1
  10    4    5 ar
  11    4   11 ar
  12    5    6 1
  13    5    8 ar
  14    6    7 1
  15    6   24 1
  16    6   25 1
  17    7   26 1
  18    7   27 1
  19    8    9 ar
  20    8   28 1
  21    9   10 ar
  22    9   29 1
  23   10   11 ar
  24   10   14 1
  25   11   30 1
  26   12   13 1
  27   12   31 1
  28   12   32 1
  29   13   33 1
  30   13   34 1
  31   13   35 1
  32   15   16 2
  33   15   17 1
  34   17   18 1
  35   17   19 1
  36   17   20 1

#	End of record

