#	Name: ASD04880173
#	Creating user name:	WinNT
#	Creation time:	15. 06. 2019 20:52

#	Modifying user name:	WinNT
#	Modification time:	15. 06. 2019 20:52

#	Program:	/corina/corina34_cracker 3.40 0067  02.08.2006

@<TRIPOS>MOLECULE
ASD04880173
  57   60    0    0    0
SMALL
NO_CHARGES


@<TRIPOS>ATOM
   1 C1            -0.0144     1.2118     0.0087 C.2     
   2 O2             0.0583    -0.0018    -0.0139 O.2     
   3 C3             1.2183     2.0266    -0.0193 C.ar    
   4 C4             2.4679     1.4109     0.0723 C.ar    
   5 C5             3.6145     2.1773     0.0451 C.ar    
   6 C6             3.5281     3.5532    -0.0728 C.ar    
   7 C7             2.2928     4.1698    -0.1637 C.ar    
   8 C8             1.1384     3.4148    -0.1434 C.ar    
   9 N9            -1.2193     1.8139     0.0537 N.am    
  10 N10           -1.4364     3.1830     0.1952 N.2     
  11 C11           -2.6801     3.5199     0.2116 C.2     
  12 C12           -3.5398     2.2845     0.0676 C.3     
  13 C13           -2.5204     1.1336    -0.0448 C.3     
  14 C14           -3.1866     4.8973     0.3500 C.ar    
  15 C15           -2.2919     5.9632     0.4765 C.ar    
  16 C16           -2.7723     7.2528     0.6055 C.ar    
  17 C17           -4.1455     7.4878     0.6091 C.ar    
  18 C18           -5.0341     6.4298     0.4834 C.ar    
  19 C19           -4.5624     5.1411     0.3490 C.ar    
  20 O20           -4.6158     8.7568     0.7364 O.3     
  21 C21           -6.0348     8.9262     0.7323 C.3     
  22 O22           -1.9043     8.2925     0.7293 O.3     
  23 C23           -0.5102     7.9786     0.7182 C.3     
  24 S24            4.9978     4.5246    -0.1069 S.o2    
  25 N25            5.4573     4.6630    -1.6918 N.am    
  26 O26            4.6268     5.8286     0.3187 O.2     
  27 O27            6.0033     3.7537     0.5366 O.2     
  28 C28            4.9727     5.7736    -2.5267 C.3     
  29 C29            6.1798     6.4291    -3.2074 C.3     
  30 O30            6.9487     5.4237    -3.8721 O.3     
  31 C31            7.5019     4.4369    -2.9981 C.3     
  32 C32            6.3671     3.6825    -2.3051 C.3     
  33 H33            2.5367     0.3371     0.1647 H       
  34 H34            4.5819     1.7024     0.1162 H       
  35 H35            2.2323     5.2443    -0.2548 H       
  36 H36            0.1750     3.8969    -0.2189 H       
  37 H37           -4.1731     2.1549     0.9453 H       
  38 H38           -4.1455     2.3435    -0.8367 H       
  39 H39           -2.6162     0.6262    -1.0048 H       
  40 H40           -2.6481     0.4290     0.7770 H       
  41 H41           -1.2276     5.7797     0.4740 H       
  42 H42           -6.0979     6.6165     0.4867 H       
  43 H43           -5.2564     4.3198     0.2473 H       
  44 H44           -6.4422     8.5559    -0.2084 H       
  45 H45           -6.4697     8.3680     1.5614 H       
  46 H46           -6.2747     9.9839     0.8409 H       
  47 H47           -0.2825     7.3067     1.5457 H       
  48 H48           -0.2544     7.4941    -0.2241 H       
  49 H49            0.0695     8.8955     0.8245 H       
  50 H50            4.2870     5.3921    -3.2833 H       
  51 H51            4.4608     6.5060    -1.9025 H       
  52 H52            5.8333     7.1629    -3.9352 H       
  53 H53            6.7972     6.9229    -2.4571 H       
  54 H54            8.1067     3.7373    -3.5753 H       
  55 H55            8.1241     4.9234    -2.2470 H       
  56 H56            6.7772     3.0285    -1.5356 H       
  57 H57            5.8193     3.0897    -3.0377 H       
@<TRIPOS>BOND
   1    1    2 2
   2    1    3 1
   3    1    9 am
   4    3    4 ar
   5    3    8 ar
   6    4    5 ar
   7    4   33 1
   8    5    6 ar
   9    5   34 1
  10    6    7 ar
  11    6   24 1
  12    7    8 ar
  13    7   35 1
  14    8   36 1
  15    9   10 1
  16    9   13 1
  17   10   11 2
  18   11   12 1
  19   11   14 1
  20   12   13 1
  21   12   37 1
  22   12   38 1
  23   13   39 1
  24   13   40 1
  25   14   15 ar
  26   14   19 ar
  27   15   16 ar
  28   15   41 1
  29   16   17 ar
  30   16   22 1
  31   17   18 ar
  32   17   20 1
  33   18   19 ar
  34   18   42 1
  35   19   43 1
  36   20   21 1
  37   21   44 1
  38   21   45 1
  39   21   46 1
  40   22   23 1
  41   23   47 1
  42   23   48 1
  43   23   49 1
  44   24   25 am
  45   24   26 2
  46   24   27 2
  47   25   28 1
  48   25   32 1
  49   28   29 1
  50   28   50 1
  51   28   51 1
  52   29   30 1
  53   29   52 1
  54   29   53 1
  55   30   31 1
  56   31   32 1
  57   31   54 1
  58   31   55 1
  59   32   56 1
  60   32   57 1

#	End of record

