#	Name: ASD03332011
#	Creating user name:	WinNT
#	Creation time:	15. 06. 2019 20:40

#	Modifying user name:	WinNT
#	Modification time:	15. 06. 2019 20:40

#	Program:	/corina/corina34_cracker 3.40 0067  02.08.2006

@<TRIPOS>MOLECULE
ASD03332011
  64   66    0    0    0
SMALL
NO_CHARGES


@<TRIPOS>ATOM
   1 C1             0.3319     1.6969     1.5230 C.2     
   2 N2             0.3723     0.4020     1.9337 N.pl3   
   3 C3             1.5935    -0.0994     1.5880 C.2     
   4 N4             2.2865     0.8514     1.0055 N.2     
   5 C5             1.5375     1.9740     0.9524 C.2     
   6 C6             1.9505     3.2673     0.3792 C.2     
   7 O7             1.1824     4.2102     0.3899 O.2     
   8 N8             3.1793     3.4053    -0.1568 N.am    
   9 C9             3.5898     4.6910    -0.7266 C.3     
  10 C10            3.1076     4.7839    -2.1756 C.3     
  11 C11            3.7522     3.6680    -3.0003 C.3     
  12 C12            5.0924     4.8002    -0.6893 C.2     
  13 C13            1.5855     4.6345    -2.2171 C.3     
  14 C14            3.5028     6.1422    -2.7585 C.3     
  15 O15            5.7667     3.8158    -0.4719 O.2     
  16 N16            5.6869     5.9917    -0.8975 N.am    
  17 C17            7.1484     6.0843    -0.9360 C.3     
  18 C18           -0.7051    -0.3017     2.6347 C.3     
  19 C19           -2.0303    -0.0362     1.9136 C.3     
  20 C20           -2.6655     1.2404     2.4551 C.3     
  21 N21           -1.6432     2.2197     2.8294 N.3     
  22 C22           -0.8432     2.6292     1.6655 C.3     
  23 C23           -2.2471     3.3850     3.4894 C.3     
  24 C24            2.0585    -1.4817     1.8293 C.2     
  25 C25            2.0334    -1.9904     3.0694 C.2     
  26 C26            2.5529    -2.3060     0.6993 C.ar    
  27 C27            1.8599    -3.4522     0.3140 C.ar    
  28 C28            2.3242    -4.2150    -0.7383 C.ar    
  29 C29            3.4750    -3.8438    -1.4101 C.ar    
  30 C30            4.1670    -2.7074    -1.0317 C.ar    
  31 C31            3.7088    -1.9339     0.0154 C.ar    
  32 H32            3.7920     2.6533    -0.1654 H       
  33 H33            3.1520     5.5024    -0.1452 H       
  34 H34            3.4707     2.7003    -2.5850 H       
  35 H35            3.4087     3.7342    -4.0326 H       
  36 H36            4.8366     3.7745    -2.9707 H       
  37 H37            1.1262     5.4295    -1.6296 H       
  38 H38            1.2419     4.7007    -3.2494 H       
  39 H39            1.3039     3.6668    -1.8018 H       
  40 H40            4.5739     6.2959    -2.6278 H       
  41 H41            3.2592     6.1665    -3.8207 H       
  42 H42            2.9567     6.9319    -2.2424 H       
  43 H43            5.1470     6.7879    -1.0219 H       
  44 H44            7.4424     7.1188    -1.1133 H       
  45 H45            7.5590     5.7480     0.0160 H       
  46 H46            7.5314     5.4550    -1.7394 H       
  47 H47           -0.4998    -1.3722     2.6373 H       
  48 H48           -0.7697     0.0604     3.6607 H       
  49 H49           -1.8455     0.0758     0.8452 H       
  50 H50           -2.7066    -0.8752     2.0775 H       
  51 H51           -3.3105     1.6716     1.6896 H       
  52 H52           -3.2657     0.9972     3.3318 H       
  53 H53           -0.4845     3.6483     1.8101 H       
  54 H54           -1.4573     2.5817     0.7662 H       
  55 H55           -2.7686     3.0624     4.3905 H       
  56 H56           -1.4658     4.0964     3.7567 H       
  57 H57           -2.9549     3.8607     2.8106 H       
  58 H58            2.2905    -3.0265     3.2334 H       
  59 H59            1.7559    -1.3642     3.9044 H       
  60 H60            0.9615    -3.7431     0.8381 H       
  61 H61            1.7882    -5.1035    -1.0375 H       
  62 H62            3.8347    -4.4436    -2.2330 H       
  63 H63            5.0653    -2.4227    -1.5593 H       
  64 H64            4.2497    -1.0467     0.3098 H       
@<TRIPOS>BOND
   1    1    2 1
   2    1    5 2
   3    1   22 1
   4    2    3 1
   5    2   18 1
   6    3    4 2
   7    3   24 1
   8    4    5 1
   9    5    6 1
  10    6    7 2
  11    6    8 am
  12    8    9 1
  13    8   32 1
  14    9   10 1
  15    9   12 1
  16    9   33 1
  17   10   11 1
  18   10   13 1
  19   10   14 1
  20   11   34 1
  21   11   35 1
  22   11   36 1
  23   12   15 2
  24   12   16 am
  25   13   37 1
  26   13   38 1
  27   13   39 1
  28   14   40 1
  29   14   41 1
  30   14   42 1
  31   16   17 1
  32   16   43 1
  33   17   44 1
  34   17   45 1
  35   17   46 1
  36   18   19 1
  37   18   47 1
  38   18   48 1
  39   19   20 1
  40   19   49 1
  41   19   50 1
  42   20   21 1
  43   20   51 1
  44   20   52 1
  45   21   22 1
  46   21   23 1
  47   22   53 1
  48   22   54 1
  49   23   55 1
  50   23   56 1
  51   23   57 1
  52   24   25 2
  53   24   26 1
  54   25   58 1
  55   25   59 1
  56   26   27 ar
  57   26   31 ar
  58   27   28 ar
  59   27   60 1
  60   28   29 ar
  61   28   61 1
  62   29   30 ar
  63   29   62 1
  64   30   31 ar
  65   30   63 1
  66   31   64 1

#	End of record

