#	Name: ASD01230714
#	Creating user name:	WinNT
#	Creation time:	15. 06. 2019 19:14

#	Modifying user name:	WinNT
#	Modification time:	15. 06. 2019 19:14

#	Program:	/corina/corina34_cracker 3.40 0067  02.08.2006

@<TRIPOS>MOLECULE
ASD01230714
  33   35    0    0    0
SMALL
NO_CHARGES


@<TRIPOS>ATOM
   1 C1            -0.0157     1.3098     0.0092 C.2     
   2 N2             0.0017    -0.0026     0.0710 N.2     
   3 C3            -1.1324    -0.7008     0.0804 C.2     
   4 C4            -2.3361    -0.1022     0.0134 C.2     
   5 N5            -2.4539     1.2660    -0.0688 N.pl3   
   6 C6            -1.3156     2.0211    -0.0462 C.2     
   7 C7            -3.8050     1.8141    -0.1798 C.3     
   8 C8            -3.9051     3.1492     0.5652 C.3     
   9 S9            -2.6395     4.2537    -0.1367 S.o2    
  10 N10           -1.2701     3.3266    -0.0698 N.am    
  11 C11            1.2515     2.0721     0.0012 C.ar    
  12 C12            2.3680     1.5812     0.6809 C.ar    
  13 O13           -2.8676     4.4648    -1.5233 O.2     
  14 O14           -2.3747     5.3391     0.7413 O.2     
  15 C15            1.3363     3.2818    -0.6909 C.ar    
  16 C16            2.5191     3.9890    -0.6963 C.ar    
  17 C17            3.6261     3.4999    -0.0146 C.ar    
  18 C18            3.5473     2.2943     0.6707 C.ar    
  19 O19            4.7903     4.1996    -0.0227 O.3     
  20 C20            5.8891     3.6392     0.6988 C.3     
  21 H21           -1.0850    -1.7779     0.1432 H       
  22 H22           -3.2292    -0.7094     0.0240 H       
  23 H23           -4.0447     1.9702    -1.2316 H       
  24 H24           -4.5160     1.1083     0.2497 H       
  25 H25           -4.8956     3.5810     0.4216 H       
  26 H26           -3.7163     2.9964     1.6278 H       
  27 H27            2.3074     0.6440     1.2143 H       
  28 H28            0.4762     3.6626    -1.2215 H       
  29 H29            2.5856     4.9246    -1.2317 H       
  30 H30            4.4101     1.9172     1.1997 H       
  31 H31            6.7544     4.2962     0.6110 H       
  32 H32            5.6181     3.5338     1.7493 H       
  33 H33            6.1330     2.6601     0.2865 H       
@<TRIPOS>BOND
   1    1    2 2
   2    1   11 1
   3    1    6 1
   4    2    3 1
   5    3    4 2
   6    3   21 1
   7    4    5 1
   8    4   22 1
   9    5    6 1
  10    5    7 1
  11    6   10 2
  12    7    8 1
  13    7   23 1
  14    7   24 1
  15    8    9 1
  16    8   25 1
  17    8   26 1
  18    9   10 am
  19    9   13 2
  20    9   14 2
  21   11   12 ar
  22   11   15 ar
  23   12   18 ar
  24   12   27 1
  25   15   16 ar
  26   15   28 1
  27   16   17 ar
  28   16   29 1
  29   17   18 ar
  30   17   19 1
  31   18   30 1
  32   19   20 1
  33   20   31 1
  34   20   32 1
  35   20   33 1

#	End of record

