#	Name: ASD01148137
#	Creating user name:	WinNT
#	Creation time:	15. 06. 2019 19:02

#	Modifying user name:	WinNT
#	Modification time:	15. 06. 2019 19:02

#	Program:	/corina/corina34_cracker 3.40 0067  02.08.2006

@<TRIPOS>MOLECULE
ASD01148137
  57   61    0    0    0
SMALL
NO_CHARGES


@<TRIPOS>ATOM
   1 C1            -0.0218     1.3470     0.0780 C.ar    
   2 C2            -0.0132    -0.0496     0.0245 C.ar    
   3 C3            -1.1967    -0.7351    -0.0082 C.ar    
   4 C4            -2.3911    -0.0071     0.0131 C.ar    
   5 C5            -2.3291     1.3924     0.0672 C.ar    
   6 N6            -1.1575     2.0190     0.1031 N.ar    
   7 N7            -3.6066    -0.6535    -0.0188 N.pl3   
   8 C8            -4.7756    -0.0011    -0.0010 C.2     
   9 C9            -4.8456     1.3766     0.0509 C.2     
  10 C10           -3.5970     2.1512     0.0893 C.2     
  11 C11           -6.1495     2.0588     0.0680 C.2     
  12 N12           -6.8776     2.0924     1.2016 N.am    
  13 C13           -6.4370     1.3717     2.4066 C.3     
  14 C14           -8.1336     2.8558     1.2728 C.3     
  15 C15           -8.0848     3.7521     2.5155 C.3     
  16 O16           -7.7601     2.9559     3.6577 O.3     
  17 C17           -6.4743     2.3433     3.5917 C.3     
  18 O18           -6.5700     2.5923    -0.9410 O.2     
  19 O19           -3.6069     3.3689     0.1360 O.2     
  20 N20            1.1837     2.0384     0.1111 N.pl3   
  21 C21            2.4506     1.3031     0.0898 C.3     
  22 C22            3.5849     2.1809    -0.4805 C.3     
  23 C23            4.8202     1.7893     0.3018 C.ar    
  24 C24            4.4514     1.1204     1.4537 C.ar    
  25 C25            2.9429     1.0167     1.5244 C.3     
  26 C26            6.1610     2.0019     0.0275 C.ar    
  27 C27            7.1296     1.5474     0.9007 C.ar    
  28 C28            6.7607     0.8783     2.0529 C.ar    
  29 C29            5.4242     0.6658     2.3283 C.ar    
  30 C30           -3.6346    -2.6823     1.3469 C.3     
  31 C31           -3.6211    -2.1174    -0.0750 C.3     
  32 H32            0.9243    -0.5857     0.0087 H       
  33 H33           -1.2086    -1.8142    -0.0500 H       
  34 H34           -5.6928    -0.5706    -0.0286 H       
  35 H35           -7.1065     0.5331     2.5981 H       
  36 H36           -5.4204     1.0054     2.2640 H       
  37 H37           -8.2399     3.4718     0.3799 H       
  38 H38           -8.9768     2.1692     1.3483 H       
  39 H39           -7.3245     4.5214     2.3800 H       
  40 H40           -9.0570     4.2221     2.6638 H       
  41 H41           -6.2852     1.7935     4.5137 H       
  42 H42           -5.7114     3.1110     3.4618 H       
  43 H43            1.1860     3.0077     0.1483 H       
  44 H44            2.3512     0.3796    -0.4806 H       
  45 H45            3.7271     1.9731    -1.5410 H       
  46 H46            3.3595     3.2364    -0.3279 H       
  47 H47            2.5447     1.7590     2.2162 H       
  48 H48            2.6468     0.0140     1.8327 H       
  49 H49            6.4501     2.5245    -0.8724 H       
  50 H50            8.1744     1.7142     0.6835 H       
  51 H51            7.5168     0.5221     2.7368 H       
  52 H52            5.1367     0.1430     3.2286 H       
  53 H53           -4.5239    -2.3299     1.8694 H       
  54 H54           -3.6454    -3.7714     1.3050 H       
  55 H55           -2.7441    -2.3479     1.8791 H       
  56 H56           -4.5116    -2.4517    -0.6072 H       
  57 H57           -2.7318    -2.4698    -0.5975 H       
@<TRIPOS>BOND
   1    1    2 ar
   2    1   20 1
   3    1    6 ar
   4    2    3 ar
   5    2   32 1
   6    3    4 ar
   7    3   33 1
   8    4    5 ar
   9    4    7 1
  10    5    6 ar
  11    5   10 1
  12    7    8 1
  13    7   31 1
  14    8    9 2
  15    8   34 1
  16    9   10 1
  17    9   11 1
  18   10   19 2
  19   11   12 am
  20   11   18 2
  21   12   13 1
  22   12   14 1
  23   13   17 1
  24   13   35 1
  25   13   36 1
  26   14   15 1
  27   14   37 1
  28   14   38 1
  29   15   16 1
  30   15   39 1
  31   15   40 1
  32   16   17 1
  33   17   41 1
  34   17   42 1
  35   20   21 1
  36   20   43 1
  37   21   22 1
  38   21   25 1
  39   21   44 1
  40   22   23 1
  41   22   45 1
  42   22   46 1
  43   23   24 ar
  44   23   26 ar
  45   24   25 1
  46   24   29 ar
  47   25   47 1
  48   25   48 1
  49   26   27 ar
  50   26   49 1
  51   27   28 ar
  52   27   50 1
  53   28   29 ar
  54   28   51 1
  55   29   52 1
  56   30   31 1
  57   30   53 1
  58   30   54 1
  59   30   55 1
  60   31   56 1
  61   31   57 1

#	End of record

