#	Name: ASD01230457
#	Creating user name:	WinNT
#	Creation time:	15. 06. 2019 19:14

#	Modifying user name:	WinNT
#	Modification time:	15. 06. 2019 19:14

#	Program:	/corina/corina34_cracker 3.40 0067  02.08.2006

@<TRIPOS>MOLECULE
ASD01230457
  57   60    0    0    0
SMALL
NO_CHARGES


@<TRIPOS>ATOM
   1 S1            -0.5404     2.1929     0.9712 S.o2    
   2 N2            -0.4568     0.6072     0.5325 N.am    
   3 C3             0.6247    -0.0148     0.2779 C.2     
   4 N4             1.8766     0.5379     0.3723 N.pl3   
   5 C5             2.1368     1.6999     1.2147 C.3     
   6 C6             1.1562     2.8180     0.8551 C.3     
   7 C7             0.5871    -1.4725    -0.1513 C.3     
   8 C8             1.8102    -2.1596     0.4612 C.3     
   9 C9             3.1045    -1.5500    -0.0604 C.3     
  10 C10            2.9498    -0.0764    -0.4164 C.3     
  11 C11           -0.6740    -2.1237     0.3553 C.ar    
  12 C12           -1.5764    -2.6693    -0.5390 C.ar    
  13 C13           -2.7331    -3.2667    -0.0771 C.ar    
  14 C14           -2.9890    -3.3191     1.2854 C.ar    
  15 C15           -2.0820    -2.7709     2.1807 C.ar    
  16 C16           -0.9240    -2.1796     1.7140 C.ar    
  17 O17           -4.1265    -3.9059     1.7422 O.3     
  18 C18           -4.9561    -4.5530     0.7753 C.3     
  19 C19           -5.7874    -5.6388     1.4616 C.3     
  20 C20           -6.6757    -6.3317     0.4263 C.3     
  21 C21           -7.6095    -5.3031    -0.2146 C.3     
  22 C22           -6.7782    -4.2173    -0.9009 C.3     
  23 C23           -5.8899    -3.5244     0.1344 C.3     
  24 C24           -8.4978    -5.9960    -1.2499 C.3     
  25 C25           -8.4865    -4.6673     0.8660 C.3     
  26 O26           -1.3568     2.7867    -0.0289 O.2     
  27 O27           -0.9631     2.1556     2.3273 O.2     
  28 H28            2.0077     1.4260     2.2618 H       
  29 H29            3.1577     2.0455     1.0523 H       
  30 H30            1.3496     3.1576    -0.1624 H       
  31 H31            1.2849     3.6506     1.5468 H       
  32 H32            0.6294    -1.5402    -1.2384 H       
  33 H33            1.7755    -2.0505     1.5452 H       
  34 H34            1.7878    -3.2198     0.2091 H       
  35 H35            3.8749    -1.6495     0.7043 H       
  36 H36            3.4192    -2.0968    -0.9492 H       
  37 H37            2.7130     0.0139    -1.4765 H       
  38 H38            3.8867     0.4423    -0.2131 H       
  39 H39           -1.3769    -2.6280    -1.5997 H       
  40 H40           -3.4378    -3.6924    -0.7761 H       
  41 H41           -2.2790    -2.8104     3.2418 H       
  42 H42           -0.2154    -1.7570     2.4109 H       
  43 H43           -4.3313    -5.0060     0.0055 H       
  44 H44           -5.1221    -6.3716     1.9182 H       
  45 H45           -6.4122    -5.1858     2.2314 H       
  46 H46           -6.0509    -6.7846    -0.3436 H       
  47 H47           -7.2679    -7.1052     0.9152 H       
  48 H48           -6.1534    -4.6703    -1.6707 H       
  49 H49           -7.4435    -3.4845    -1.3575 H       
  50 H50           -6.5147    -3.0715     0.9042 H       
  51 H51           -5.2977    -2.7509    -0.3545 H       
  52 H52           -9.0900    -6.7695    -0.7610 H       
  53 H53           -9.1631    -5.2632    -1.7065 H       
  54 H54           -7.8730    -6.4489    -2.0197 H       
  55 H55           -7.8537    -4.1737     1.6035 H       
  56 H56           -9.1517    -3.9345     0.4094 H       
  57 H57           -9.0787    -5.4408     1.3549 H       
@<TRIPOS>BOND
   1    1    2 am
   2    1    6 1
   3    1   26 2
   4    1   27 2
   5    2    3 2
   6    3    4 1
   7    3    7 1
   8    4    5 1
   9    4   10 1
  10    5    6 1
  11    5   28 1
  12    5   29 1
  13    6   30 1
  14    6   31 1
  15    7    8 1
  16    7   11 1
  17    7   32 1
  18    8    9 1
  19    8   33 1
  20    8   34 1
  21    9   10 1
  22    9   35 1
  23    9   36 1
  24   10   37 1
  25   10   38 1
  26   11   12 ar
  27   11   16 ar
  28   12   13 ar
  29   12   39 1
  30   13   14 ar
  31   13   40 1
  32   14   15 ar
  33   14   17 1
  34   15   16 ar
  35   15   41 1
  36   16   42 1
  37   17   18 1
  38   18   19 1
  39   18   23 1
  40   18   43 1
  41   19   20 1
  42   19   44 1
  43   19   45 1
  44   20   21 1
  45   20   46 1
  46   20   47 1
  47   21   22 1
  48   21   24 1
  49   21   25 1
  50   22   23 1
  51   22   48 1
  52   22   49 1
  53   23   50 1
  54   23   51 1
  55   24   52 1
  56   24   53 1
  57   24   54 1
  58   25   55 1
  59   25   56 1
  60   25   57 1

#	End of record

