#	Name: ASD01330014
#	Creating user name:	WinNT
#	Creation time:	15. 06. 2019 19:16

#	Modifying user name:	WinNT
#	Modification time:	15. 06. 2019 19:16

#	Program:	/corina/corina34_cracker 3.40 0067  02.08.2006

@<TRIPOS>MOLECULE
ASD01330014
  13   12    0    0    0
SMALL
NO_CHARGES


@<TRIPOS>ATOM
   1 C1            -0.0184     1.5028     0.0103 C.2     
   2 C2             0.0021    -0.0041     0.0020 C.3     
   3 C3             1.4295    -0.4870    -0.0142 C.2     
   4 O4             2.3368     0.3103    -0.0186 O.2     
   5 C5             1.7217    -1.9487    -0.0248 C.2     
   6 O6             1.0197     2.1211     0.0037 O.2     
   7 O7            -1.1898     2.1580     0.0194 O.3     
   8 O8             0.8108    -2.7492    -0.0204 O.2     
   9 O9             2.9966    -2.3800    -0.0393 O.3     
  10 H10           -0.4983    -0.3791     0.8948 H       
  11 H11           -0.5153    -0.3696    -0.8850 H       
  12 H12           -1.1523     3.1243     0.0245 H       
  13 H13            3.1363    -3.3368    -0.0458 H       
@<TRIPOS>BOND
   1    1    2 1
   2    1    6 2
   3    1    7 1
   4    2    3 1
   5    2   10 1
   6    2   11 1
   7    3    4 2
   8    3    5 1
   9    5    8 2
  10    5    9 1
  11    7   12 1
  12    9   13 1

#	End of record

