#	Name: ASD01911021
#	Creating user name:	WinNT
#	Creation time:	15. 06. 2019 19:56

#	Modifying user name:	WinNT
#	Modification time:	15. 06. 2019 19:56

#	Program:	/corina/corina34_cracker 3.40 0067  02.08.2006

@<TRIPOS>MOLECULE
ASD01911021
  55   58    0    0    0
SMALL
NO_CHARGES


@<TRIPOS>ATOM
   1 N1            -4.4865    -3.3046     1.1933 N.3     
   2 C2            -3.1150    -2.8182     1.3942 C.3     
   3 C3            -2.4443    -2.6137     0.0317 C.3     
   4 N4            -3.3008    -1.7397    -0.7842 N.am    
   5 C5            -4.7232    -2.0887    -0.9192 C.3     
   6 C6            -5.3042    -2.3138     0.4808 C.3     
   7 C7            -2.7956    -0.6482    -1.3924 C.2     
   8 C8            -3.6394     0.1423    -2.3105 C.ar    
   9 C9            -3.5679     1.5387    -2.2983 C.ar    
  10 C10           -4.3530     2.2815    -3.1535 C.ar    
  11 C11           -5.2201     1.6497    -4.0329 C.ar    
  12 C12           -5.3009     0.2478    -4.0539 C.ar    
  13 C13           -4.5036    -0.5036    -3.1939 C.ar    
  14 C14           -6.1959    -0.4069    -4.9600 C.1     
  15 O15           -1.6450    -0.3146    -1.1850 O.2     
  16 C16           -6.9296    -0.9437    -5.7029 C.1     
  17 C17           -7.8246    -1.5984    -6.6090 C.ar    
  18 C18           -7.9057    -2.9931    -6.6306 C.ar    
  19 C19           -8.7704    -3.6167    -7.5058 C.ar    
  20 C20           -9.5560    -2.8647    -8.3612 C.ar    
  21 C21           -9.4807    -1.4828    -8.3457 C.ar    
  22 C22           -8.6254    -0.8452    -7.4719 C.ar    
  23 C23           -5.0728    -3.6567     2.4042 C.ar    
  24 O24           -5.9902     2.3860    -4.8721 O.3     
  25 C25           -5.9290    -4.7526     2.4632 C.ar    
  26 C26           -6.5051    -5.0917     3.6754 C.ar    
  27 C27           -6.2044    -4.3208     4.7904 C.ar    
  28 C28           -5.3465    -3.2472     4.6590 C.ar    
  29 N29           -4.8076    -2.9498     3.4918 N.ar    
  30 C30           -5.8570     3.8068    -4.7964 C.3     
  31 Cl31          -6.2700    -5.6810     1.0365 Cl      
  32 N32           -7.0653    -3.7995    -5.7169 N.pl3   
  33 O33           -7.1372    -5.0152    -5.7370 O.2     
  34 O34           -6.3019    -3.2472    -4.9449 O.2     
  35 H35           -3.1403    -1.8709     1.9330 H       
  36 H36           -2.5503    -3.5503     1.9714 H       
  37 H37           -1.4696    -2.1456     0.1699 H       
  38 H38           -2.3242    -3.5763    -0.4654 H       
  39 H39           -5.2553    -1.2736    -1.4097 H       
  40 H40           -4.8222    -3.0008    -1.5078 H       
  41 H41           -6.3272    -2.6803     0.3954 H       
  42 H42           -5.2990    -1.3736     1.0322 H       
  43 H43           -2.8953     2.0371    -1.6160 H       
  44 H44           -4.2932     3.3598    -3.1387 H       
  45 H45           -4.5606    -1.5820    -3.2053 H       
  46 H46           -8.8342    -4.6947    -7.5237 H       
  47 H47          -10.2310    -3.3585    -9.0446 H       
  48 H48          -10.0967    -0.9023    -9.0166 H       
  49 H49           -8.5677     0.2332    -7.4610 H       
  50 H50           -7.1736    -5.9364     3.7520 H       
  51 H51           -6.6376    -4.5585     5.7507 H       
  52 H52           -5.1104    -2.6450     5.5239 H       
  53 H53           -6.1145     4.1428    -3.7920 H       
  54 H54           -4.8280     4.0877    -5.0209 H       
  55 H55           -6.5268     4.2736    -5.5186 H       
@<TRIPOS>BOND
   1    1    2 1
   2    1   23 1
   3    1    6 1
   4    2    3 1
   5    2   35 1
   6    2   36 1
   7    3    4 1
   8    3   37 1
   9    3   38 1
  10    4    5 1
  11    4    7 am
  12    5    6 1
  13    5   39 1
  14    5   40 1
  15    6   41 1
  16    6   42 1
  17    7    8 1
  18    7   15 2
  19    8    9 ar
  20    8   13 ar
  21    9   10 ar
  22    9   43 1
  23   10   11 ar
  24   10   44 1
  25   11   12 ar
  26   11   24 1
  27   12   13 ar
  28   12   14 1
  29   13   45 1
  30   14   16 3
  31   16   17 1
  32   17   18 ar
  33   17   22 ar
  34   18   19 ar
  35   18   32 1
  36   19   20 ar
  37   19   46 1
  38   20   21 ar
  39   20   47 1
  40   21   22 ar
  41   21   48 1
  42   22   49 1
  43   23   25 ar
  44   23   29 ar
  45   24   30 1
  46   25   26 ar
  47   25   31 1
  48   26   27 ar
  49   26   50 1
  50   27   28 ar
  51   27   51 1
  52   28   29 ar
  53   28   52 1
  54   30   53 1
  55   30   54 1
  56   30   55 1
  57   32   33 2
  58   32   34 2

#	End of record

