#	Name: ASD05660003
#	Creating user name:	WinNT
#	Creation time:	15. 06. 2019 21:01

#	Modifying user name:	WinNT
#	Modification time:	15. 06. 2019 21:01

#	Program:	/corina/corina34_cracker 3.40 0067  02.08.2006

@<TRIPOS>MOLECULE
ASD05660003
  22   24    0    0    0
SMALL
NO_CHARGES


@<TRIPOS>ATOM
   1 C1            -0.0167     1.3797     0.0096 C.ar    
   2 C2             0.0021    -0.0041     0.0020 C.ar    
   3 C3            -1.1858    -0.7149     0.0095 C.ar    
   4 C4            -2.3954    -0.0408     0.0252 C.ar    
   5 C5            -2.4142     1.3506     0.0333 C.ar    
   6 C6            -1.2235     2.0576     0.0306 C.ar    
   7 C7            -4.7510    -0.0727     0.0464 C.ar    
   8 C8            -4.7697     1.3188     0.0562 C.ar    
   9 O9            -3.6011     2.0151     0.0490 O.3     
  10 C10           -5.9420    -0.7791     0.0532 C.ar    
  11 C11           -7.1486    -0.1007     0.0698 C.ar    
  12 C12           -7.1671     1.2831     0.0791 C.ar    
  13 C13           -5.9789     1.9934     0.0728 C.ar    
  14 Cl14          -8.6411    -0.9872     0.0783 Cl      
  15 O15           -3.5641    -0.7371     0.0321 O.3     
  16 Cl16           1.4755     2.2668     0.0001 Cl      
  17 Cl17           1.5179    -0.8500    -0.0176 Cl      
  18 Cl18          -8.6826     2.1295     0.0993 Cl      
  19 H19           -1.1693    -1.7947     0.0029 H       
  20 H20           -1.2364     3.1375     0.0369 H       
  21 H21           -5.9296    -1.8590     0.0452 H       
  22 H22           -5.9950     3.0732     0.0808 H       
@<TRIPOS>BOND
   1    1    2 ar
   2    1   16 1
   3    1    6 ar
   4    2    3 ar
   5    2   17 1
   6    3    4 ar
   7    3   19 1
   8    4    5 ar
   9    4   15 1
  10    5    6 ar
  11    5    9 1
  12    6   20 1
  13    7    8 ar
  14    7   10 ar
  15    7   15 1
  16    8    9 1
  17    8   13 ar
  18   10   11 ar
  19   10   21 1
  20   11   12 ar
  21   11   14 1
  22   12   13 ar
  23   12   18 1
  24   13   22 1

#	End of record

