#	Name: ASD08150763
#	Creating user name:	WinNT
#	Creation time:	15. 06. 2019 21:16

#	Modifying user name:	WinNT
#	Modification time:	15. 06. 2019 21:16

#	Program:	/corina/corina34_cracker 3.40 0067  02.08.2006

@<TRIPOS>MOLECULE
ASD08150763
  45   49    0    0    0
SMALL
NO_CHARGES


@<TRIPOS>ATOM
   1 C1            -0.0158     1.3168     0.0093 C.2     
   2 N2             0.0021    -0.0041     0.0020 N.2     
   3 C3             1.1387    -0.6846    -0.0125 C.2     
   4 C4             2.3424     0.0131    -0.0203 C.2     
   5 C5             2.3160     1.4197    -0.0125 C.2     
   6 N6             1.1169     2.0725     0.0025 N.am    
   7 S7            -1.3640     2.4677     0.0210 S.3     
   8 C8             0.9183     3.4311     0.0118 C.2     
   9 C9            -0.3178     3.8980     0.0246 C.2     
  10 O10            3.3590     2.0528    -0.0187 O.2     
  11 C11            3.6328    -0.7145    -0.0361 C.ar    
  12 C12            4.4822    -0.6084    -1.1368 C.ar    
  13 C13            5.6853    -1.2888    -1.1466 C.ar    
  14 C14            6.0478    -2.0750    -0.0652 C.ar    
  15 C15            5.2072    -2.1840     1.0305 C.ar    
  16 C16            4.0046    -1.5030     1.0522 C.ar    
  17 F17            5.5660    -2.9527     2.0819 F       
  18 F18            6.5089    -1.1871    -2.2127 F       
  19 C19            1.1279    -2.1915    -0.0200 C.3     
  20 C20            0.5274    -2.7038     1.2907 C.3     
  21 N21            0.3212    -2.6685    -1.1460 N.pl3   
  22 N22           -1.2296    -3.8894    -3.4997 N.2     
  23 C23           -1.5833    -4.7570    -4.4021 C.2     
  24 N24           -0.8102    -5.8766    -4.3001 N.pl3   
  25 C25            0.0708    -5.6753    -3.2679 C.ar    
  26 N26            1.0425    -6.3920    -2.7122 N.ar    
  27 C27            1.7387    -5.9088    -1.6960 C.ar    
  28 N28            1.5080    -4.7047    -1.1884 N.ar    
  29 C29            0.5554    -3.9221    -1.6829 C.ar    
  30 C30           -0.2098    -4.3949    -2.7629 C.ar    
  31 N31            2.7432    -6.6863    -1.1435 N.pl3   
  32 H32            1.7598     4.1080     0.0074 H       
  33 H33           -0.6257     4.9332     0.0310 H       
  34 H34            4.2003     0.0041    -1.9805 H       
  35 H35            6.9887    -2.6051    -0.0766 H       
  36 H36            3.3521    -1.5847     1.9089 H       
  37 H37            2.1481    -2.5617    -0.1214 H       
  38 H38           -0.4928    -2.3336     1.3921 H       
  39 H39            0.5197    -3.7937     1.2853 H       
  40 H40            1.1277    -2.3489     2.1285 H       
  41 H41           -0.3771    -2.1056    -1.5152 H       
  42 H42           -2.3724    -4.6124    -5.1252 H       
  43 H43           -0.8722    -6.6695    -4.8554 H       
  44 H44            2.9260    -7.5689    -1.5020 H       
  45 H45            3.2637    -6.3482    -0.3981 H       
@<TRIPOS>BOND
   1    1    2 2
   2    1    6 1
   3    1    7 1
   4    2    3 1
   5    3    4 2
   6    3   19 1
   7    4    5 1
   8    4   11 1
   9    5    6 am
  10    5   10 2
  11    6    8 1
  12    7    9 1
  13    8    9 2
  14    8   32 1
  15    9   33 1
  16   11   12 ar
  17   11   16 ar
  18   12   13 ar
  19   12   34 1
  20   13   14 ar
  21   13   18 1
  22   14   15 ar
  23   14   35 1
  24   15   16 ar
  25   15   17 1
  26   16   36 1
  27   19   20 1
  28   19   21 1
  29   19   37 1
  30   20   38 1
  31   20   39 1
  32   20   40 1
  33   21   29 1
  34   21   41 1
  35   22   23 2
  36   22   30 1
  37   23   24 1
  38   23   42 1
  39   24   25 1
  40   24   43 1
  41   25   26 ar
  42   25   30 ar
  43   26   27 ar
  44   27   28 ar
  45   27   31 1
  46   28   29 ar
  47   29   30 ar
  48   31   44 1
  49   31   45 1

#	End of record

