#	Name: ASD05720218
#	Creating user name:	WinNT
#	Creation time:	15. 06. 2019 21:02

#	Modifying user name:	WinNT
#	Modification time:	15. 06. 2019 21:02

#	Program:	/corina/corina34_cracker 3.40 0067  02.08.2006

@<TRIPOS>MOLECULE
ASD05720218
  81   86    0    0    0
SMALL
NO_CHARGES


@<TRIPOS>ATOM
   1 P1            -0.1885     1.3393     0.2189 P.3     
   2 O2            -0.0206    -0.0771    -0.1759 O.2     
   3 O3             1.2585     2.0121     0.4325 O.3     
   4 O4            -0.9817     2.1287    -0.9386 O.3     
   5 O5            -1.0249     1.4181     1.5923 O.3     
   6 C6             2.2753     2.0064    -0.5716 C.3     
   7 N7             3.4648     2.6962    -0.0660 N.pl3   
   8 N8             4.6729     2.9000    -0.7524 N.2     
   9 C9             5.4656     3.5592     0.0648 C.2     
  10 N10            4.8135     3.7728     1.2160 N.2     
  11 C11            3.6119     3.2637     1.1445 C.2     
  12 C12            6.8509     3.9930    -0.2374 C.ar    
  13 C13            7.5898     4.6895     0.7223 C.ar    
  14 C14            8.8783     5.0927     0.4405 C.ar    
  15 C15            9.4426     4.8044    -0.8032 C.ar    
  16 C16            8.7028     4.1083    -1.7608 C.ar    
  17 C17            7.4182     3.7008    -1.4772 C.ar    
  18 C18           11.8516     4.4374    -1.6270 C.2     
  19 N19           11.9010     3.1494    -1.9807 N.2     
  20 C20           13.0120     2.6237    -2.4611 C.2     
  21 C21           14.1651     3.4217    -2.6062 C.2     
  22 C22           14.1186     4.7253    -2.2494 C.2     
  23 N23           12.9530     5.2415    -1.7551 N.pl3   
  24 N24           12.6051     6.5223    -1.3114 N.2     
  25 C25           11.3528     6.5213    -0.9258 C.2     
  26 C26           10.8251     5.2370    -1.1068 C.2     
  27 O27           13.8805    -0.6535    -3.5888 O.3     
  28 C28           14.1087     0.6369    -3.3205 C.2     
  29 N29           13.0454     1.2835    -2.8235 N.am    
  30 C30           11.9196     0.3421    -2.7240 C.3     
  31 C31           12.5021    -0.9835    -3.2511 C.3     
  32 C32           10.7716     0.7966    -3.5880 C.ar    
  33 C33            9.4842     0.4009    -3.2770 C.ar    
  34 C34            8.4351     0.8248    -4.0780 C.ar    
  35 C35            8.7215     1.6346    -5.1667 C.ar    
  36 C36           10.0336     1.9895    -5.4153 C.ar    
  37 N37           11.0061     1.5715    -4.6286 N.ar    
  38 O38           15.1822     1.1736    -3.5097 O.2     
  39 F39            7.0422     4.9683     1.9255 F       
  40 C40           -2.2448     1.6976    -1.4495 C.3     
  41 C41           -3.1611     1.3131    -0.2862 C.3     
  42 C42           -2.8857     2.8333    -2.2497 C.3     
  43 C43           -2.0397     0.4850    -2.3596 C.3     
  44 C44           -0.6442     0.7153     2.7768 C.3     
  45 C45            0.8611     0.8720     3.0013 C.3     
  46 C46           -1.4013     1.2894     3.9761 C.3     
  47 C47           -0.9849    -0.7682     2.6213 C.3     
  48 H48            2.5316     0.9773    -0.8233 H       
  49 H49            1.9096     2.5179    -1.4620 H       
  50 H50            2.8657     3.2921     1.9247 H       
  51 H51            9.4501     5.6315     1.1815 H       
  52 H52            9.1396     3.8853    -2.7230 H       
  53 H53            6.8482     3.1585    -2.2171 H       
  54 H54           15.0769     2.9959    -2.9982 H       
  55 H55           14.9924     5.3515    -2.3533 H       
  56 H56           10.8146     7.3727    -0.5360 H       
  57 H57           11.6008     0.2348    -1.6872 H       
  58 H58           11.9600    -1.3134    -4.1373 H       
  59 H59           12.4714    -1.7493    -2.4761 H       
  60 H60            9.2979    -0.2309    -2.4211 H       
  61 H61            7.4190     0.5312    -3.8595 H       
  62 H62            7.9290     1.9832    -5.8123 H       
  63 H63           10.2649     2.6199    -6.2612 H       
  64 H64           -3.3072     2.1770     0.3622 H       
  65 H65           -4.1245     0.9843    -0.6759 H       
  66 H66           -2.7045     0.5040     0.2839 H       
  67 H67           -2.2328     3.1073    -3.0785 H       
  68 H68           -3.8491     2.5045    -2.6394 H       
  69 H69           -3.0317     3.6972    -1.6013 H       
  70 H70           -1.6709    -0.3540    -1.7695 H       
  71 H71           -2.9884     0.2140    -2.8231 H       
  72 H72           -1.3139     0.7310    -3.1347 H       
  73 H73            1.1038     1.9289     3.1121 H       
  74 H74            1.1515     0.3359     3.9049 H       
  75 H75            1.4004     0.4630     2.1470 H       
  76 H76           -2.4737     1.1777     3.8161 H       
  77 H77           -1.1109     0.7533     4.8796 H       
  78 H78           -1.1586     2.3462     4.0869 H       
  79 H79           -0.5049    -1.1591     1.7241 H       
  80 H80           -0.6272    -1.3164     3.4929 H       
  81 H81           -2.0651    -0.8859     2.5362 H       
@<TRIPOS>BOND
   1    1    2 2
   2    1    3 1
   3    1    4 1
   4    1    5 1
   5    3    6 1
   6    4   40 1
   7    5   44 1
   8    6    7 1
   9    6   48 1
  10    6   49 1
  11    7    8 1
  12    7   11 1
  13    8    9 2
  14    9   10 1
  15    9   12 1
  16   10   11 2
  17   11   50 1
  18   12   13 ar
  19   12   17 ar
  20   13   14 ar
  21   13   39 1
  22   14   15 ar
  23   14   51 1
  24   15   16 ar
  25   15   26 1
  26   16   17 ar
  27   16   52 1
  28   17   53 1
  29   18   19 1
  30   18   23 1
  31   18   26 2
  32   19   20 2
  33   20   21 1
  34   20   29 1
  35   21   22 2
  36   21   54 1
  37   22   23 1
  38   22   55 1
  39   23   24 1
  40   24   25 2
  41   25   26 1
  42   25   56 1
  43   27   28 1
  44   27   31 1
  45   28   29 am
  46   28   38 2
  47   29   30 1
  48   30   31 1
  49   30   32 1
  50   30   57 1
  51   31   58 1
  52   31   59 1
  53   32   33 ar
  54   32   37 ar
  55   33   34 ar
  56   33   60 1
  57   34   35 ar
  58   34   61 1
  59   35   36 ar
  60   35   62 1
  61   36   37 ar
  62   36   63 1
  63   40   41 1
  64   40   43 1
  65   40   42 1
  66   41   64 1
  67   41   65 1
  68   41   66 1
  69   42   67 1
  70   42   68 1
  71   42   69 1
  72   43   70 1
  73   43   71 1
  74   43   72 1
  75   44   45 1
  76   44   47 1
  77   44   46 1
  78   45   73 1
  79   45   74 1
  80   45   75 1
  81   46   76 1
  82   46   77 1
  83   46   78 1
  84   47   79 1
  85   47   80 1
  86   47   81 1

#	End of record

