#	Name: ASD02690014
#	Creating user name:	WinNT
#	Creation time:	15. 06. 2019 20:26

#	Modifying user name:	WinNT
#	Modification time:	15. 06. 2019 20:26

#	Program:	/corina/corina34_cracker 3.40 0067  02.08.2006

@<TRIPOS>MOLECULE
ASD02690014
  65   67    0    0    0
SMALL
NO_CHARGES


@<TRIPOS>ATOM
   1 C1             0.8077    -0.2994     1.3293 C.3     
   2 N2            -0.0281     0.0649     0.1781 N.3     
   3 C3            -0.0488     1.5192    -0.0240 C.3     
   4 C4             1.3685     2.0147    -0.3201 C.3     
   5 C5             2.2847     1.6567     0.8534 C.3     
   6 C6             2.2507     0.1418     1.0736 C.3     
   7 C7             5.9436     2.7775     1.3497 C.ar    
   8 C8             4.6339     2.3760     1.6355 C.ar    
   9 C9             3.6943     2.0888     0.5418 C.2     
  10 C10            6.8190     3.0445     2.3791 C.ar    
  11 C11            6.4049     2.9158     3.6968 C.ar    
  12 C12            5.1079     2.5187     3.9871 C.ar    
  13 C13            4.2225     2.2486     2.9670 C.ar    
  14 C14           -1.3899    -0.4654     0.3276 C.3     
  15 C15           -2.2575     0.0177    -0.8388 C.3     
  16 N16           -3.5758    -0.6243    -0.7452 N.am    
  17 C17           -3.6430    -2.0889    -0.6500 C.3     
  18 C18           -2.7599    -2.5484     0.5144 C.3     
  19 C19           -1.3455    -1.9951     0.3258 C.3     
  20 C20           -4.7019     0.1162    -0.7463 C.2     
  21 C21           -6.0217    -0.5466    -0.7757 C.ar    
  22 C22           -7.0718    -0.0519     0.0007 C.ar    
  23 C23           -8.3013    -0.6743    -0.0305 C.ar    
  24 C24           -8.4964    -1.7898    -0.8305 C.ar    
  25 C25           -7.4571    -2.2854    -1.6031 C.ar    
  26 C26           -6.2255    -1.6668    -1.5845 C.ar    
  27 O27           -0.8167    -2.4546    -0.9197 O.3     
  28 O28            4.0538     2.1997    -0.6111 O.2     
  29 F29            7.2687     3.1784     4.7018 F       
  30 F30           -9.7033    -2.3963    -0.8571 F       
  31 O31           -4.6314     1.3296    -0.7230 O.2     
  32 H32            0.4297     0.1957     2.2237 H       
  33 H33            0.7782    -1.3795     1.4723 H       
  34 H34           -0.7005     1.7599    -0.8639 H       
  35 H35           -0.4229     2.0058     0.8768 H       
  36 H36            1.7380     1.5389    -1.2285 H       
  37 H37            1.3553     3.0962    -0.4546 H       
  38 H38            1.9379     2.1635     1.7540 H       
  39 H39            2.8677    -0.1147     1.9348 H       
  40 H40            2.6340    -0.3635     0.1871 H       
  41 H41            6.2686     2.8734     0.3242 H       
  42 H42            7.8301     3.3545     2.1599 H       
  43 H43            4.7918     2.4205     5.0151 H       
  44 H44            3.2129     1.9395     3.1944 H       
  45 H45           -1.8158    -0.1144     1.2676 H       
  46 H46           -2.3736     1.1001    -0.7841 H       
  47 H47           -1.7850    -0.2540    -1.7828 H       
  48 H48           -4.6733    -2.3965    -0.4707 H       
  49 H49           -3.2835    -2.5324    -1.5785 H       
  50 H50           -3.1732    -2.1783     1.4526 H       
  51 H51           -2.7245    -3.6376     0.5364 H       
  52 H52           -0.7087    -2.3409     1.1401 H       
  53 H53           -6.9207     0.8165     0.6248 H       
  54 H54           -9.1140    -0.2925     0.5696 H       
  55 H55           -7.6142    -3.1550    -2.2240 H       
  56 H56           -5.4166    -2.0536    -2.1866 H       
  57 H57           -0.7585    -3.4172    -0.9912 H       
  58 C58           14.1295    12.4658    10.0290 C.1     
  59 C59           14.1454    11.2919    10.0225 C.1     
  60 O60           14.1111    13.8206    10.0364 O.3     
  61 O61           14.1638     9.9371    10.0151 O.3     
  62 O62           15.4448    14.4363    10.0270 O.3     
  63 O63           12.8301     9.3214    10.0245 O.3     
  64 H64           15.4317    15.4032    10.0323 H       
  65 H65           12.8432     8.3545    10.0192 H       
@<TRIPOS>BOND
   1    1    2 1
   2    1    6 1
   3    1   32 1
   4    1   33 1
   5    2    3 1
   6    2   14 1
   7    3    4 1
   8    3   34 1
   9    3   35 1
  10    4    5 1
  11    4   36 1
  12    4   37 1
  13    5    6 1
  14    5    9 1
  15    5   38 1
  16    6   39 1
  17    6   40 1
  18    7    8 ar
  19    7   10 ar
  20    7   41 1
  21    8    9 1
  22    8   13 ar
  23    9   28 2
  24   10   11 ar
  25   10   42 1
  26   11   12 ar
  27   11   29 1
  28   12   13 ar
  29   12   43 1
  30   13   44 1
  31   14   15 1
  32   14   19 1
  33   14   45 1
  34   15   16 1
  35   15   46 1
  36   15   47 1
  37   16   17 1
  38   16   20 am
  39   17   18 1
  40   17   48 1
  41   17   49 1
  42   18   19 1
  43   18   50 1
  44   18   51 1
  45   19   27 1
  46   19   52 1
  47   20   21 1
  48   20   31 2
  49   21   22 ar
  50   21   26 ar
  51   22   23 ar
  52   22   53 1
  53   23   24 ar
  54   23   54 1
  55   24   25 ar
  56   24   30 1
  57   25   26 ar
  58   25   55 1
  59   26   56 1
  60   27   57 1
  61   58   59 3
  62   58   60 1
  63   59   61 1
  64   60   62 1
  65   61   63 1
  66   62   64 1
  67   63   65 1

#	End of record

