#	Name: ASD02038808
#	Creating user name:	WinNT
#	Creation time:	15. 06. 2019 20:17

#	Modifying user name:	WinNT
#	Modification time:	15. 06. 2019 20:17

#	Program:	/corina/corina34_cracker 3.40 0067  02.08.2006

@<TRIPOS>MOLECULE
ASD02038808
  50   52    0    0    0
SMALL
NO_CHARGES


@<TRIPOS>ATOM
   1 C1            -1.2822    -0.8505     0.4650 C.2     
   2 C2            -0.0603    -0.0340     0.3014 C.2     
   3 N3             1.1370    -0.6350     0.1536 N.am    
   4 C4             1.2416    -2.0931     0.2504 C.3     
   5 C5             1.2137    -2.6916    -1.1323 C.ar    
   6 C6             2.3338     0.1697    -0.1038 C.3     
   7 O7            -0.1356     1.1792     0.3001 O.2     
   8 N8            -1.3382    -2.1944     0.4959 N.2     
   9 C9            -2.5938    -2.5274     0.6556 C.2     
  10 N10           -3.3114    -1.3908     0.7230 N.pl3   
  11 N11           -2.5057    -0.3914     0.6119 N.2     
  12 C12            2.3985    -3.0134    -1.7688 C.ar    
  13 C13            2.1223     1.0138    -1.3644 C.3     
  14 C14            3.3453     1.9088    -1.5810 C.3     
  15 O15            3.5452     2.7276    -0.4271 O.3     
  16 C16            3.7949     1.9934     0.7732 C.3     
  17 C17            2.5898     1.1019     1.0844 C.3     
  18 C18            0.0039    -2.9230    -1.7593 C.ar    
  19 C19           -0.0270    -3.4729    -3.0277 C.ar    
  20 C20            1.1563    -3.7927    -3.6730 C.ar    
  21 C21            2.3746    -3.5641    -3.0396 C.ar    
  22 C22           -4.7632    -1.3044     0.8992 C.3     
  23 O23            3.5390    -3.8760    -3.6692 O.3     
  24 C24            4.7509    -3.6141    -2.9587 C.3     
  25 F25            4.8351    -2.2483    -2.6677 F       
  26 F26            4.7603    -4.3463    -1.7667 F       
  27 O27            1.1277    -4.3339    -4.9202 O.3     
  28 F28           -0.8996    -5.4174    -4.7010 F       
  29 C29           -0.1584    -4.5459    -5.5061 C.3     
  30 F30           -0.8301    -3.3232    -5.6113 F       
  31 H31            2.1774    -2.3583     0.7424 H       
  32 H32            0.4038    -2.4797     0.8307 H       
  33 H33            3.1918    -0.4876    -0.2448 H       
  34 H34           -2.9836    -3.5324     0.7209 H       
  35 H35            3.3424    -2.8351    -1.2752 H       
  36 H36            1.9942     0.3574    -2.2251 H       
  37 H37            1.2341     1.6339    -1.2428 H       
  38 H38            4.2262     1.2875    -1.7429 H       
  39 H39            3.1822     2.5426    -2.4527 H       
  40 H40            4.6816     1.3733     0.6422 H       
  41 H41            3.9555     2.6882     1.5976 H       
  42 H42            1.7112     1.7237     1.2555 H       
  43 H43            2.7962     0.5083     1.9751 H       
  44 H44           -0.9193    -2.6741    -1.2573 H       
  45 H45           -0.9737    -3.6533    -3.5151 H       
  46 H46           -4.9984    -1.2647     1.9627 H       
  47 H47           -5.1354    -0.4038     0.4109 H       
  48 H48           -5.2358    -2.1804     0.4550 H       
  49 H49            5.6026    -3.9079    -3.5723 H       
  50 H50           -0.0384    -4.9811    -6.4982 H       
@<TRIPOS>BOND
   1    1    2 1
   2    1    8 1
   3    1   11 2
   4    2    3 am
   5    2    7 2
   6    3    4 1
   7    3    6 1
   8    4    5 1
   9    4   31 1
  10    4   32 1
  11    5   12 ar
  12    5   18 ar
  13    6   13 1
  14    6   17 1
  15    6   33 1
  16    8    9 2
  17    9   10 1
  18    9   34 1
  19   10   11 1
  20   10   22 1
  21   12   21 ar
  22   12   35 1
  23   13   14 1
  24   13   36 1
  25   13   37 1
  26   14   15 1
  27   14   38 1
  28   14   39 1
  29   15   16 1
  30   16   17 1
  31   16   40 1
  32   16   41 1
  33   17   42 1
  34   17   43 1
  35   18   19 ar
  36   18   44 1
  37   19   20 ar
  38   19   45 1
  39   20   21 ar
  40   20   27 1
  41   21   23 1
  42   22   46 1
  43   22   47 1
  44   22   48 1
  45   23   24 1
  46   24   25 1
  47   24   26 1
  48   24   49 1
  49   27   29 1
  50   28   29 1
  51   29   30 1
  52   29   50 1

#	End of record

