#	Name: ASD01816325
#	Creating user name:	WinNT
#	Creation time:	15. 06. 2019 19:35

#	Modifying user name:	WinNT
#	Modification time:	15. 06. 2019 19:35

#	Program:	/corina/corina34_cracker 3.40 0067  02.08.2006

@<TRIPOS>MOLECULE
ASD01816325
  46   50    0    0    0
SMALL
NO_CHARGES


@<TRIPOS>ATOM
   1 C1            -0.0167     1.3813     0.0096 C.ar    
   2 C2             0.0021    -0.0041     0.0020 C.ar    
   3 C3             1.1983    -0.6909    -0.0127 C.ar    
   4 C4             2.4015     0.0060    -0.0200 C.ar    
   5 C5             2.3790     1.4107    -0.0127 C.ar    
   6 C6             1.1663     2.0916     0.0022 C.ar    
   7 N7             3.6052    -0.6770    -0.0338 N.pl3   
   8 C8             4.7971    -0.0584    -0.0414 C.2     
   9 C9             4.9000     1.3104    -0.0354 C.2     
  10 C10            3.6671     2.1303    -0.0207 C.2     
  11 C11            5.9972     2.2731    -0.0404 C.2     
  12 N12            5.4244     3.4962    -0.0296 N.am    
  13 N13            4.0321     3.3797    -0.0179 N.2     
  14 O14            7.1909     2.0233    -0.0514 O.2     
  15 C15            3.5778    -2.1418    -0.0399 C.3     
  16 C16            3.5556    -2.6378    -1.4627 C.ar    
  17 C17            4.7436    -2.8873    -2.1251 C.ar    
  18 C18            4.7265    -3.3416    -3.4293 C.ar    
  19 C19            3.5149    -3.5481    -4.0751 C.ar    
  20 C20            2.3239    -3.2972    -3.4073 C.ar    
  21 C21            2.3473    -2.8480    -2.1014 C.ar    
  22 N22            3.4943    -4.0087    -5.3990 N.pl3   
  23 C23            2.3896    -4.2502    -6.1405 C.2     
  24 C24            2.7964    -4.6800    -7.3574 C.2     
  25 C25            4.1954    -4.7023    -7.3609 C.2     
  26 N26            4.6146    -4.2946    -6.1900 N.2     
  27 C27            6.1177     4.6941    -0.0291 C.2     
  28 N28            5.4317     5.8854    -0.0175 N.pl3   
  29 N29            7.4194     4.6927    -0.0397 N.2     
  30 H30           -0.9602     1.9068     0.0170 H       
  31 H31           -0.9288    -0.5516     0.0080 H       
  32 H32            1.2003    -1.7708    -0.0181 H       
  33 H33            1.1506     3.1715     0.0074 H       
  34 H34            5.6983    -0.6534    -0.0521 H       
  35 H35            4.4654    -2.5239     0.4643 H       
  36 H36            2.6859    -2.4906     0.4805 H       
  37 H37            5.6857    -2.7265    -1.6222 H       
  38 H38            5.6546    -3.5356    -3.9463 H       
  39 H39            1.3799    -3.4566    -3.9073 H       
  40 H40            1.4211    -2.6526    -1.5814 H       
  41 H41            1.3664    -4.1234    -5.8190 H       
  42 H42            2.1545    -4.9569    -8.1807 H       
  43 H43            4.8217    -5.0004    -8.1888 H       
  44 H44            4.4617     5.8864    -0.0096 H       
  45 H45            5.9176     6.7249    -0.0172 H       
  46 H46            7.9054     5.5322    -0.0394 H       
@<TRIPOS>BOND
   1    1    2 ar
   2    1    6 ar
   3    1   30 1
   4    2    3 ar
   5    2   31 1
   6    3    4 ar
   7    3   32 1
   8    4    5 ar
   9    4    7 1
  10    5    6 ar
  11    5   10 1
  12    6   33 1
  13    7    8 1
  14    7   15 1
  15    8    9 2
  16    8   34 1
  17    9   10 1
  18    9   11 1
  19   10   13 2
  20   11   12 am
  21   11   14 2
  22   12   13 1
  23   12   27 1
  24   15   16 1
  25   15   35 1
  26   15   36 1
  27   16   17 ar
  28   16   21 ar
  29   17   18 ar
  30   17   37 1
  31   18   19 ar
  32   18   38 1
  33   19   20 ar
  34   19   22 1
  35   20   21 ar
  36   20   39 1
  37   21   40 1
  38   22   23 1
  39   22   26 1
  40   23   24 2
  41   23   41 1
  42   24   25 1
  43   24   42 1
  44   25   26 2
  45   25   43 1
  46   27   28 1
  47   27   29 2
  48   28   44 1
  49   28   45 1
  50   29   46 1

#	End of record

