#	Name: ASD01816166
#	Creating user name:	WinNT
#	Creation time:	15. 06. 2019 19:34

#	Modifying user name:	WinNT
#	Modification time:	15. 06. 2019 19:34

#	Program:	/corina/corina34_cracker 3.40 0067  02.08.2006

@<TRIPOS>MOLECULE
ASD01816166
  47   51    0    0    0
SMALL
NO_CHARGES


@<TRIPOS>ATOM
   1 C1             0.3405     1.6311     0.7467 C.ar    
   2 C2             0.2561     0.2482     0.7410 C.ar    
   3 C3             1.3693    -0.5231     0.4786 C.ar    
   4 C4             2.5920     0.0850     0.2168 C.ar    
   5 C5             2.6743     1.4874     0.2233 C.ar    
   6 C6             1.5445     2.2541     0.4888 C.ar    
   7 N7             3.7130    -0.6832    -0.0464 N.pl3   
   8 C8             4.9187    -0.1523    -0.3058 C.2     
   9 C9             5.1203     1.2054    -0.3271 C.2     
  10 C10            3.9812     2.1120    -0.0571 C.2     
  11 C11            6.2594     2.0862    -0.5660 C.2     
  12 N12            5.7928     3.3473    -0.4403 N.am    
  13 N13            4.4292     3.3320    -0.1362 N.2     
  14 C14            6.5657     4.5055    -0.5927 C.ar    
  15 C15            6.6090     5.4534     0.4240 C.ar    
  16 C16            7.2949     4.7073    -1.7569 C.ar    
  17 C17            8.0562     5.8503    -1.9044 C.ar    
  18 C18            8.0937     6.7941    -0.8942 C.ar    
  19 C19            7.3735     6.5955     0.2693 C.ar    
  20 F20            5.9053     5.2591     1.5608 F       
  21 O21            7.4034     1.7507    -0.8263 O.2     
  22 C22            3.5779    -2.1419    -0.0411 C.3     
  23 C23            3.7072    -2.6609     1.3924 C.3     
  24 C24            3.4311    -4.1742     1.4320 C.3     
  25 C25            4.7170    -4.8430     1.9602 C.3     
  26 C26            5.4288    -3.7216     2.7569 C.3     
  27 C27            5.1512    -2.4630     1.8978 C.3     
  28 H28           -0.5396     2.2234     0.9493 H       
  29 H29           -0.6904    -0.2306     0.9443 H       
  30 H30            1.2912    -1.6003     0.4769 H       
  31 H31            1.6094     3.3322     0.4938 H       
  32 H32            5.7519    -0.8107    -0.5025 H       
  33 H33            7.2672     3.9709    -2.5464 H       
  34 H34            8.6233     6.0072    -2.8100 H       
  35 H35            8.6906     7.6864    -1.0126 H       
  36 H36            7.4048     7.3347     1.0561 H       
  37 H37            2.6021    -2.4179    -0.4408 H       
  38 H38            4.3611    -2.5816    -0.6587 H       
  39 H39            3.0077    -2.1366     2.0435 H       
  40 H40            2.5983    -4.3843     2.1031 H       
  41 H41            3.2051    -4.5388     0.4300 H       
  42 H42            4.4709    -5.6789     2.6150 H       
  43 H43            5.3412    -5.1773     1.1315 H       
  44 H44            4.9914    -3.6158     3.7497 H       
  45 H45            6.4994    -3.9151     2.8239 H       
  46 H46            5.8455    -2.4129     1.0591 H       
  47 H47            5.2220    -1.5620     2.5072 H       
@<TRIPOS>BOND
   1    1    2 ar
   2    1    6 ar
   3    1   28 1
   4    2    3 ar
   5    2   29 1
   6    3    4 ar
   7    3   30 1
   8    4    5 ar
   9    4    7 1
  10    5    6 ar
  11    5   10 1
  12    6   31 1
  13    7    8 1
  14    7   22 1
  15    8    9 2
  16    8   32 1
  17    9   10 1
  18    9   11 1
  19   10   13 2
  20   11   12 am
  21   11   21 2
  22   12   13 1
  23   12   14 1
  24   14   15 ar
  25   14   16 ar
  26   15   20 1
  27   15   19 ar
  28   16   17 ar
  29   16   33 1
  30   17   18 ar
  31   17   34 1
  32   18   19 ar
  33   18   35 1
  34   19   36 1
  35   22   23 1
  36   22   37 1
  37   22   38 1
  38   23   24 1
  39   23   27 1
  40   23   39 1
  41   24   25 1
  42   24   40 1
  43   24   41 1
  44   25   26 1
  45   25   42 1
  46   25   43 1
  47   26   27 1
  48   26   44 1
  49   26   45 1
  50   27   46 1
  51   27   47 1

#	End of record

