#	Name: ASD05060028
#	Creating user name:	WinNT
#	Creation time:	15. 06. 2019 20:56

#	Modifying user name:	WinNT
#	Modification time:	15. 06. 2019 20:56

#	Program:	/corina/corina34_cracker 3.40 0067  02.08.2006

@<TRIPOS>MOLECULE
ASD05060028
 126  127    0    0    0
SMALL
NO_CHARGES


@<TRIPOS>ATOM
   1 N1            -1.9701     2.5975    -1.9883 N.3     
   2 N2            -2.2923     1.3071    -2.5755 N.3     
   3 C3            -3.7357     1.1861    -2.8209 C.3     
   4 C4            -4.4210     0.7179    -1.5631 C.2     
   5 N5            -5.5891     1.3183    -1.1877 N.am    
   6 C6            -6.1977     0.8004     0.0587 C.3     
   7 C7            -7.1116     1.8573     0.6234 C.2     
   8 N8            -7.2731     1.9404     1.9724 N.am    
   9 C9            -8.1793     2.9965     2.4655 C.3     
  10 C10           -7.4745     3.7796     3.5428 C.2     
  11 N11           -7.6663     5.1304     3.6062 N.am    
  12 C12           -6.9423     5.8248     4.6951 C.3     
  13 C13           -6.1382     6.9509     4.0978 C.2     
  14 N14           -4.9688     7.3156     4.6913 N.am    
  15 C15           -4.2248     8.4240     4.0606 C.3     
  16 C16           -2.8020     7.9848     3.8284 C.2     
  17 N17           -2.0634     8.6253     2.8745 N.am    
  18 C18           -0.6776     8.1319     2.7060 C.3     
  19 C19           -0.4561     7.8086     1.2508 C.2     
  20 C20            0.2526     6.5597     0.8664 C.2     
  21 C21            0.4713     6.2349    -0.5890 C.3     
  22 N22            0.2915     4.7826    -0.7854 N.am    
  23 C23           -0.3366     4.3956    -1.9291 C.2     
  24 C24           -0.5519     2.9260    -2.1849 C.3     
  25 O25           -0.7182     5.2217    -2.7309 O.2     
  26 O26            0.6535     5.8054     1.7204 O.2     
  27 O27           -0.8548     8.5640     0.3968 O.2     
  28 O28           -2.3215     7.0796     4.4769 O.2     
  29 O29           -6.5274     7.5237     3.1021 O.2     
  30 O30           -6.7498     3.2208     4.3387 O.2     
  31 O31           -7.6954     2.6231    -0.1139 O.2     
  32 O32           -3.9443    -0.1761    -0.8964 O.2     
  33 C33            0.3006     2.1088    -1.2120 C.3     
  34 C34           -4.2991     2.5479    -3.2321 C.3     
  35 C35           -3.7820     2.9143    -4.6246 C.3     
  36 C36           -4.5992     4.0821    -5.1811 C.3     
  37 C37           -2.3099     3.3207    -4.5314 C.3     
  38 C38           -8.5521     3.9313     1.3130 C.3     
  39 C39           -7.2777     4.4903     0.6772 C.3     
  40 C40           -7.6127     5.0999    -0.6856 C.3     
  41 C41           -9.3474     3.1536     0.2625 C.3     
  42 C42           -7.0031    -0.4634    -0.2497 C.3     
  43 C43           -6.0570    -1.5677    -0.7255 C.3     
  44 C44           -6.8624    -2.8315    -1.0339 C.3     
  45 C45           -5.9163    -3.9358    -1.5096 C.3     
  46 N46           -6.6896    -5.1491    -1.8057 N.3     
  47 C47           -4.8754     8.7826     2.7230 C.3     
  48 C48           -4.7914     7.6014     1.7909 C.2     
  49 O49           -4.2631     6.5740     2.1601 O.2     
  50 N50           -5.3032     7.6868     0.5471 N.am    
  51 C51            0.3100     9.2137     3.1479 C.3     
  52 C52           -0.4645    10.3032     6.5499 C.2     
  53 N53            0.3456     9.3080     6.7870 N.2     
  54 C54            0.7415     8.7728     5.6225 C.2     
  55 C55            0.1543     9.4626     4.6261 C.2     
  56 N56           -0.6109    10.4335     5.2138 N.pl3   
  57 C57           -8.6782     5.2542     6.3714 C.2     
  58 C58           -7.9471     6.3890     5.7015 C.3     
  59 O59           -8.4219     4.1115     6.0743 O.2     
  60 O60           -9.6142     5.5130     7.2981 O.3     
  61 C61           -1.9345     6.5114    -1.1229 C.2     
  62 C62           -0.5442     6.9973    -1.4426 C.3     
  63 O63           -2.0919     5.5975    -0.3484 O.2     
  64 O64           -2.9979     7.0940    -1.6987 O.3     
  65 H65           -2.5643     3.3229    -2.3610 H       
  66 H66           -1.7673     1.1546    -3.4236 H       
  67 H67           -3.9093     0.4648    -3.6194 H       
  68 H68           -5.9924     2.0346    -1.7026 H       
  69 H69           -5.4140     0.5707     0.7805 H       
  70 H70           -6.8165     1.3365     2.5787 H       
  71 H71           -9.0811     2.5418     2.8754 H       
  72 H72           -8.2376     5.6026     2.9805 H       
  73 H73           -6.2743     5.1237     5.1953 H       
  74 H74           -4.6408     6.8698     5.4879 H       
  75 H75           -4.2360     9.2927     4.7189 H       
  76 H76           -2.4223     9.3534     2.3436 H       
  77 H77           -0.5334     7.2338     3.3065 H       
  78 H78            1.4825     6.5203    -0.8790 H       
  79 H79            0.6054     4.1373    -0.1327 H       
  80 H80           -0.2626     2.6892    -3.2087 H       
  81 H81            0.1448     1.0459    -1.3969 H       
  82 H82            1.3529     2.3525    -1.3579 H       
  83 H83            0.0113     2.3457    -0.1881 H       
  84 H84           -5.3879     2.5003    -3.2497 H       
  85 H85           -3.9800     3.3045    -2.5153 H       
  86 H86           -3.8803     2.0540    -5.2867 H       
  87 H87           -4.5009     4.9424    -4.5190 H       
  88 H88           -4.2308     4.3431    -6.1732 H       
  89 H89           -5.6479     3.7926    -5.2474 H       
  90 H90           -1.7283     2.4900    -4.1318 H       
  91 H91           -1.9406     3.5784    -5.5241 H       
  92 H92           -2.2121     4.1831    -3.8721 H       
  93 H93           -9.1589     4.7530     1.6934 H       
  94 H94           -6.8553     5.2585     1.3249 H       
  95 H95           -6.5535     3.6860     0.5473 H       
  96 H96           -8.0351     4.3317    -1.3333 H       
  97 H97           -8.3369     5.9041    -0.5557 H       
  98 H98           -6.7048     5.4981    -1.1385 H       
  99 H99           -8.9419     2.1459     0.1722 H       
 100 H100         -10.3930     3.0987     0.5655 H       
 101 H101          -9.2740     3.6623    -0.6988 H       
 102 H102          -7.5219    -0.7924     0.6507 H       
 103 H103          -7.7321    -0.2480    -1.0309 H       
 104 H104          -5.5382    -1.2387    -1.6259 H       
 105 H105          -5.3280    -1.7831     0.0558 H       
 106 H106          -7.3812    -3.1604    -0.1335 H       
 107 H107          -7.5914    -2.6161    -1.8151 H       
 108 H108          -5.3975    -3.6068    -2.4100 H       
 109 H109          -5.1873    -4.1511    -0.7284 H       
 110 H110          -7.4152    -4.9597    -2.4808 H       
 111 H111          -6.0868    -5.8939    -2.1221 H       
 112 H112          -5.9211     9.0432     2.8860 H       
 113 H113          -4.3539     9.6318     2.2814 H       
 114 H114          -5.7257     8.5086     0.2518 H       
 115 H115          -5.2492     6.9266    -0.0529 H       
 116 H116           1.3278     8.8831     2.9404 H       
 117 H117           0.1086    10.1348     2.6012 H       
 118 H118          -0.9424    10.9178     7.2984 H       
 119 H119           1.4136     7.9357     5.5047 H       
 120 H120          -1.1564    11.0922     4.7561 H       
 121 H121          -7.4183     6.9747     6.4534 H       
 122 H122          -8.6630     7.0261     5.1820 H       
 123 H123         -10.0561     4.7526     7.7000 H       
 124 H124          -0.4732     8.0632    -1.2263 H       
 125 H125          -0.3331     6.8258    -2.4981 H       
 126 H126          -3.8694     6.7479    -1.4626 H       
@<TRIPOS>BOND
   1    1    2 1
   2    1   24 1
   3    1   65 1
   4    2    3 1
   5    2   66 1
   6    3    4 1
   7    3   34 1
   8    3   67 1
   9    4    5 am
  10    4   32 2
  11    5    6 1
  12    5   68 1
  13    6    7 1
  14    6   42 1
  15    6   69 1
  16    7    8 am
  17    7   31 2
  18    8    9 1
  19    8   70 1
  20    9   10 1
  21    9   38 1
  22    9   71 1
  23   10   11 am
  24   10   30 2
  25   11   12 1
  26   11   72 1
  27   12   13 1
  28   12   58 1
  29   12   73 1
  30   13   14 am
  31   13   29 2
  32   14   15 1
  33   14   74 1
  34   15   16 1
  35   15   47 1
  36   15   75 1
  37   16   17 am
  38   16   28 2
  39   17   18 1
  40   17   76 1
  41   18   19 1
  42   18   51 1
  43   18   77 1
  44   19   20 1
  45   19   27 2
  46   20   21 1
  47   20   26 2
  48   21   22 1
  49   21   62 1
  50   21   78 1
  51   22   23 am
  52   22   79 1
  53   23   24 1
  54   23   25 2
  55   24   33 1
  56   24   80 1
  57   33   81 1
  58   33   82 1
  59   33   83 1
  60   34   35 1
  61   34   84 1
  62   34   85 1
  63   35   36 1
  64   35   37 1
  65   35   86 1
  66   36   87 1
  67   36   88 1
  68   36   89 1
  69   37   90 1
  70   37   91 1
  71   37   92 1
  72   38   39 1
  73   38   41 1
  74   38   93 1
  75   39   40 1
  76   39   94 1
  77   39   95 1
  78   40   96 1
  79   40   97 1
  80   40   98 1
  81   41   99 1
  82   41  100 1
  83   41  101 1
  84   42   43 1
  85   42  102 1
  86   42  103 1
  87   43   44 1
  88   43  104 1
  89   43  105 1
  90   44   45 1
  91   44  106 1
  92   44  107 1
  93   45   46 1
  94   45  108 1
  95   45  109 1
  96   46  110 1
  97   46  111 1
  98   47   48 1
  99   47  112 1
 100   47  113 1
 101   48   49 2
 102   48   50 am
 103   50  114 1
 104   50  115 1
 105   51   55 1
 106   51  116 1
 107   51  117 1
 108   52   53 2
 109   52   56 1
 110   52  118 1
 111   53   54 1
 112   54   55 2
 113   54  119 1
 114   55   56 1
 115   56  120 1
 116   57   58 1
 117   57   59 2
 118   57   60 1
 119   58  121 1
 120   58  122 1
 121   60  123 1
 122   61   62 1
 123   61   63 2
 124   61   64 1
 125   62  124 1
 126   62  125 1
 127   64  126 1

#	End of record

