#	Name: ASD01150320
#	Creating user name:	WinNT
#	Creation time:	15. 06. 2019 19:04

#	Modifying user name:	WinNT
#	Modification time:	15. 06. 2019 19:04

#	Program:	/corina/corina34_cracker 3.40 0067  02.08.2006

@<TRIPOS>MOLECULE
ASD01150320
  63   65    0    0    0
SMALL
NO_CHARGES


@<TRIPOS>ATOM
   1 N1            -0.0169     1.3926     0.0097 N.pl3   
   2 C2             0.0021    -0.0041     0.0020 C.2     
   3 C3            -1.3281    -0.4052     0.0134 C.2     
   4 N4            -2.0858     0.6950     0.0270 N.2     
   5 C5            -1.3234     1.7682     0.0302 C.2     
   6 C6             1.1390    -0.8368    -0.0144 C.2     
   7 C7             1.0965     2.2428     0.0036 C.ar    
   8 C8             1.3308     3.0746    -1.0833 C.ar    
   9 C9             2.4293     3.9117    -1.0863 C.ar    
  10 C10            3.2954     3.9221    -0.0084 C.ar    
  11 C11            3.0648     3.0950     1.0755 C.ar    
  12 C12            1.9648     2.2598     1.0870 C.ar    
  13 N13           -1.7777     3.0668     0.0440 N.3     
  14 C14           -3.2460     3.1108     0.0544 C.3     
  15 C15           -1.2207     3.8073     1.1839 C.3     
  16 O16            1.0070    -2.0475    -0.0195 O.2     
  17 O17            2.3748    -0.2923    -0.0246 O.3     
  18 C18            3.4817    -1.1958    -0.0411 C.3     
  19 C19            3.4076    -2.0704    -1.2943 C.3     
  20 C20            4.7889    -0.4008    -0.0506 C.3     
  21 C21            3.4339    -2.0838     1.2040 C.3     
  22 N22           -1.7882    -1.7164     0.0111 N.am    
  23 C23           -3.1126    -1.9660     0.0232 C.2     
  24 C24           -3.6014    -3.3595     0.0207 C.ar    
  25 O25           -3.9047    -1.0439     0.0362 O.2     
  26 C26           -2.6936    -4.4206     0.0058 C.ar    
  27 C27           -3.1555    -5.7194     0.0040 C.ar    
  28 C28           -4.5184    -5.9732     0.0170 C.ar    
  29 C29           -5.4243    -4.9233     0.0314 C.ar    
  30 C30           -4.9735    -3.6210     0.0391 C.ar    
  31 F31           -4.9656    -7.2481     0.0152 F       
  32 O32            5.8959    -1.3043    -0.0671 O.3     
  33 C33            7.1716    -0.6605    -0.0771 C.3     
  34 C34           -5.9591    -2.4811     0.0552 C.3     
  35 F35           -7.2619    -2.9911     0.0598 F       
  36 F36           -5.7575    -1.7065     1.2026 F       
  37 F37           -5.7730    -1.6876    -1.0818 F       
  38 H38            0.6549     3.0666    -1.9256 H       
  39 H39            2.6123     4.5585    -1.9316 H       
  40 H40            4.1539     4.5773    -0.0132 H       
  41 H41            3.7432     3.1051     1.9158 H       
  42 H42            1.7850     1.6143     1.9340 H       
  43 H43           -3.6184     2.6008     0.9428 H       
  44 H44           -3.5783     4.1488     0.0652 H       
  45 H45           -3.6307     2.6154    -0.8371 H       
  46 H46           -0.1330     3.8183     1.1135 H       
  47 H47           -1.5960     4.8306     1.1707 H       
  48 H48           -1.5198     3.3225     2.1132 H       
  49 H49            3.4416    -1.4378    -2.1813 H       
  50 H50            4.2520    -2.7596    -1.3069 H       
  51 H51            2.4763    -2.6368    -1.2875 H       
  52 H52            4.8230     0.2318    -0.9376 H       
  53 H53            4.8417     0.2223     0.8422 H       
  54 H54            2.5027    -2.6502     1.2108 H       
  55 H55            4.2783    -2.7730     1.1914 H       
  56 H56            3.4868    -1.4607     2.0968 H       
  57 H57           -1.1561    -2.4522     0.0007 H       
  58 H58           -1.6317    -4.2240    -0.0047 H       
  59 H59           -2.4544    -6.5408    -0.0079 H       
  60 H60           -6.4849    -5.1266     0.0408 H       
  61 H61            7.9589    -1.4142    -0.0895 H       
  62 H62            7.2551    -0.0333    -0.9647 H       
  63 H63            7.2738    -0.0428     0.8152 H       
@<TRIPOS>BOND
   1    1    2 1
   2    1    7 1
   3    1    5 1
   4    2    3 2
   5    2    6 1
   6    3    4 1
   7    3   22 1
   8    4    5 2
   9    5   13 1
  10    6   16 2
  11    6   17 1
  12    7    8 ar
  13    7   12 ar
  14    8    9 ar
  15    8   38 1
  16    9   10 ar
  17    9   39 1
  18   10   11 ar
  19   10   40 1
  20   11   12 ar
  21   11   41 1
  22   12   42 1
  23   13   14 1
  24   13   15 1
  25   14   43 1
  26   14   44 1
  27   14   45 1
  28   15   46 1
  29   15   47 1
  30   15   48 1
  31   17   18 1
  32   18   19 1
  33   18   20 1
  34   18   21 1
  35   19   49 1
  36   19   50 1
  37   19   51 1
  38   20   32 1
  39   20   52 1
  40   20   53 1
  41   21   54 1
  42   21   55 1
  43   21   56 1
  44   22   23 am
  45   22   57 1
  46   23   24 1
  47   23   25 2
  48   24   26 ar
  49   24   30 ar
  50   26   27 ar
  51   26   58 1
  52   27   28 ar
  53   27   59 1
  54   28   29 ar
  55   28   31 1
  56   29   30 ar
  57   29   60 1
  58   30   34 1
  59   32   33 1
  60   33   61 1
  61   33   62 1
  62   33   63 1
  63   34   35 1
  64   34   36 1
  65   34   37 1

#	End of record

