#	Name: ASD01420150
#	Creating user name:	WinNT
#	Creation time:	15. 06. 2019 19:20

#	Modifying user name:	WinNT
#	Modification time:	15. 06. 2019 19:20

#	Program:	/corina/corina34_cracker 3.40 0067  02.08.2006

@<TRIPOS>MOLECULE
ASD01420150
  54   57    0    0    0
SMALL
NO_CHARGES


@<TRIPOS>ATOM
   1 C1             2.3843     0.1885     1.0094 C.ar    
   2 C2             1.6634    -0.7925     0.3615 C.ar    
   3 C3             0.9274    -0.4958    -0.7776 C.ar    
   4 C4             0.9080     0.7889    -1.2768 C.ar    
   5 C5             2.3789     1.4892     0.5239 C.ar    
   6 O6             2.9714     2.6300     0.9334 O.3     
   7 C7             1.6332     1.7904    -0.6298 C.ar    
   8 C8             1.8372     3.2208    -0.8706 C.2     
   9 C9             2.6567     3.6547     0.1168 C.2     
  10 C10            1.2539     4.0432    -1.9907 C.3     
  11 C11            3.1339     5.0443     0.2752 C.ar    
  12 C12            2.2343     6.1081     0.1834 C.ar    
  13 C13            2.6833     7.4028     0.3322 C.ar    
  14 C14            4.0285     7.6498     0.5727 C.ar    
  15 C15            4.9266     6.5946     0.6647 C.ar    
  16 C16            4.4846     5.2967     0.5228 C.ar    
  17 O17            4.4673     8.9275     0.7179 O.3     
  18 Cl18           0.0286    -1.7477    -1.5768 Cl      
  19 C19            5.8632     9.1101     0.9633 C.3     
  20 C20            6.1663    10.6037     1.0977 C.3     
  21 C21            7.6347    10.7935     1.4835 C.3     
  22 N22            7.8962    12.2179     1.7293 N.3     
  23 O23            5.9133    11.2551    -0.1487 O.3     
  24 C24            9.2997    12.4386     2.1030 C.3     
  25 C25           10.1609    12.7037     0.8432 C.3     
  26 C26            9.4400    13.7296     2.9357 C.3     
  27 C27           10.7570    14.3941     2.4978 C.3     
  28 C28           11.3710    13.4837     1.4143 C.3     
  29 H29            2.9496    -0.0542     1.8970 H       
  30 H30            1.6717    -1.8024     0.7442 H       
  31 H31            0.3355     1.0189    -2.1632 H       
  32 H32            0.3425     4.5318    -1.6461 H       
  33 H33            1.9760     4.7984    -2.3011 H       
  34 H34            1.0213     3.3942    -2.8349 H       
  35 H35            1.1880     5.9169    -0.0044 H       
  36 H36            1.9881     8.2262     0.2613 H       
  37 H37            5.9720     6.7909     0.8519 H       
  38 H38            5.1829     4.4763     0.5990 H       
  39 H39            6.1399     8.5988     1.8854 H       
  40 H40            6.4353     8.6965     0.1328 H       
  41 H41            5.5292    11.0357     1.8694 H       
  42 H42            7.8495    10.2234     2.3873 H       
  43 H43            8.2719    10.4418     0.6720 H       
  44 H44            7.6436    12.7756     0.9272 H       
  45 H45            6.4466    10.9206    -0.8827 H       
  46 H46            9.6848    11.5831     2.6577 H       
  47 H47           10.4841    11.7657     0.3918 H       
  48 H48            9.6143    13.3122     0.1226 H       
  49 H49            8.6010    14.3961     2.7357 H       
  50 H50            9.4794    13.4866     3.9975 H       
  51 H51           10.5571    15.3830     2.0853 H       
  52 H52           11.4356    14.4736     3.3472 H       
  53 H53           12.0928    12.7973     1.8569 H       
  54 H54           11.8413    14.0827     0.6344 H       
@<TRIPOS>BOND
   1    1    2 ar
   2    1    5 ar
   3    1   29 1
   4    2    3 ar
   5    2   30 1
   6    3    4 ar
   7    3   18 1
   8    4    7 ar
   9    4   31 1
  10    5    7 ar
  11    5    6 1
  12    6    9 1
  13    7    8 1
  14    8    9 2
  15    8   10 1
  16    9   11 1
  17   10   32 1
  18   10   33 1
  19   10   34 1
  20   11   12 ar
  21   11   16 ar
  22   12   13 ar
  23   12   35 1
  24   13   14 ar
  25   13   36 1
  26   14   15 ar
  27   14   17 1
  28   15   16 ar
  29   15   37 1
  30   16   38 1
  31   17   19 1
  32   19   20 1
  33   19   39 1
  34   19   40 1
  35   20   21 1
  36   20   23 1
  37   20   41 1
  38   21   22 1
  39   21   42 1
  40   21   43 1
  41   22   24 1
  42   22   44 1
  43   23   45 1
  44   24   26 1
  45   24   25 1
  46   24   46 1
  47   25   28 1
  48   25   47 1
  49   25   48 1
  50   26   27 1
  51   26   49 1
  52   26   50 1
  53   27   28 1
  54   27   51 1
  55   27   52 1
  56   28   53 1
  57   28   54 1

#	End of record

