#	Name: ASD03430937
#	Creating user name:	WinNT
#	Creation time:	15. 06. 2019 20:41

#	Modifying user name:	WinNT
#	Modification time:	15. 06. 2019 20:41

#	Program:	/corina/corina34_cracker 3.40 0067  02.08.2006

@<TRIPOS>MOLECULE
ASD03430937
  50   54    0    0    0
SMALL
NO_CHARGES


@<TRIPOS>ATOM
   1 O1            -0.0175     1.4360     0.0099 O.3     
   2 C2             0.0021    -0.0041     0.0020 C.3     
   3 C3             1.3458    -0.3161    -0.6707 C.3     
   4 C4             2.1588     0.9232    -0.4085 C.ar    
   5 C5             1.2621     1.9062     0.0002 C.ar    
   6 C6             1.7483     3.1686     0.3266 C.ar    
   7 C7             3.1016     3.4412     0.2353 C.ar    
   8 C8             3.9859     2.4541    -0.1825 C.ar    
   9 C9             3.5073     1.1963    -0.5023 C.ar    
  10 N10            2.1595    -2.4042    -1.1215 N.am    
  11 C11            1.9850    -1.5475    -0.0957 C.2     
  12 C12            1.1884    -0.5969    -2.1356 C.ar    
  13 C13            0.6782     0.1220    -3.1929 C.ar    
  14 C14            0.6721    -0.4244    -4.4644 C.ar    
  15 C15            1.1794    -1.6940    -4.6704 C.ar    
  16 C16            1.6923    -2.4185    -3.6141 C.ar    
  17 C17            1.7024    -1.8767    -2.3316 C.ar    
  18 O18            2.2859    -1.7341     1.0643 O.2     
  19 C19            2.7595    -3.7336    -0.9836 C.3     
  20 C20            1.6636    -4.7595    -0.6879 C.3     
  21 O21            0.7854    -4.8559    -1.8110 O.3     
  22 C22            2.3015    -6.1256    -0.4220 C.3     
  23 C23            1.1961    -7.1594    -0.1863 C.3     
  24 C24            0.2638    -7.1798    -1.4015 C.3     
  25 C25           -0.2954    -5.7730    -1.6296 C.3     
  26 O26            3.5673     4.6779     0.5546 O.3     
  27 F27            5.3068     2.7218    -0.2763 F       
  28 C28            2.6035     5.6452     0.9760 C.3     
  29 H29           -0.0221    -0.3969     1.0185 H       
  30 H30           -0.8261    -0.3990    -0.5864 H       
  31 H31            1.0657     3.9395     0.6525 H       
  32 H32            4.1914     0.4263    -0.8269 H       
  33 H33            0.2820     1.1134    -3.0300 H       
  34 H34            0.2717     0.1395    -5.2939 H       
  35 H35            1.1745    -2.1204    -5.6626 H       
  36 H36            2.0868    -3.4097    -3.7827 H       
  37 H37            3.2670    -4.0010    -1.9104 H       
  38 H38            3.4790    -3.7243    -0.1649 H       
  39 H39            1.0985    -4.4451     0.1895 H       
  40 H40            2.8999    -6.4221    -1.2835 H       
  41 H41            2.9377    -6.0649     0.4610 H       
  42 H42            1.6414    -8.1452    -0.0518 H       
  43 H43            0.6284    -6.8897     0.7043 H       
  44 H44            0.8209    -7.4976    -2.2828 H       
  45 H45           -0.5574    -7.8730    -1.2190 H       
  46 H46           -0.8862    -5.4720    -0.7644 H       
  47 H47           -0.9260    -5.7722    -2.5186 H       
  48 H48            3.1067     6.5859     1.1996 H       
  49 H49            1.8751     5.8028     0.1806 H       
  50 H50            2.0936     5.2846     1.8694 H       
@<TRIPOS>BOND
   1    1    2 1
   2    1    5 1
   3    2    3 1
   4    2   29 1
   5    2   30 1
   6    3    4 1
   7    3   11 1
   8    3   12 1
   9    4    5 ar
  10    4    9 ar
  11    5    6 ar
  12    6    7 ar
  13    6   31 1
  14    7    8 ar
  15    7   26 1
  16    8    9 ar
  17    8   27 1
  18    9   32 1
  19   10   11 am
  20   10   17 1
  21   10   19 1
  22   11   18 2
  23   12   13 ar
  24   12   17 ar
  25   13   14 ar
  26   13   33 1
  27   14   15 ar
  28   14   34 1
  29   15   16 ar
  30   15   35 1
  31   16   17 ar
  32   16   36 1
  33   19   20 1
  34   19   37 1
  35   19   38 1
  36   20   21 1
  37   20   22 1
  38   20   39 1
  39   21   25 1
  40   22   23 1
  41   22   40 1
  42   22   41 1
  43   23   24 1
  44   23   42 1
  45   23   43 1
  46   24   25 1
  47   24   44 1
  48   24   45 1
  49   25   46 1
  50   25   47 1
  51   26   28 1
  52   28   48 1
  53   28   49 1
  54   28   50 1

#	End of record

