#	Name: ASD01910252
#	Creating user name:	WinNT
#	Creation time:	15. 06. 2019 19:55

#	Modifying user name:	WinNT
#	Modification time:	15. 06. 2019 19:55

#	Program:	/corina/corina34_cracker 3.40 0067  02.08.2006

@<TRIPOS>MOLECULE
ASD01910252
  48   52    0    0    0
SMALL
NO_CHARGES


@<TRIPOS>ATOM
   1 C1             0.6282     0.4999     0.4185 C.2     
   2 C2             1.8055     1.4406     0.4040 C.3     
   3 C3             2.1253     1.8363    -1.0393 C.3     
   4 C4             3.3411     2.7657    -1.0578 C.3     
   5 C5             3.0183     4.0379    -0.2678 C.3     
   6 N6             2.5700     3.6575     1.0786 N.am    
   7 C7             1.4653     2.6978     1.2106 C.3     
   8 C8             3.1608     4.1790     2.1720 C.2     
   9 O9             2.7364     3.9100     3.2788 O.2     
  10 N10            0.6170    -0.7250     0.8821 N.2     
  11 C11           -0.6429    -1.1758     0.6867 C.2     
  12 N12           -1.3160    -0.2074     0.1214 N.2     
  13 O13           -0.6022     0.7608    -0.0339 O.3     
  14 C14           -1.1638    -2.5180     1.0455 C.ar    
  15 C15           -2.4928    -2.8449     0.7829 C.ar    
  16 C16           -2.9729    -4.0941     1.1177 C.ar    
  17 C17           -2.1357    -5.0233     1.7144 C.ar    
  18 C18           -0.8136    -4.7023     1.9774 C.ar    
  19 C19           -0.3239    -3.4573     1.6409 C.ar    
  20 F20           -2.6100    -6.2453     2.0412 F       
  21 C21            4.2549     6.1730     1.1451 C.ar    
  22 C22            5.3103     7.0128     0.9934 C.ar    
  23 C23            6.4949     6.7953     1.7209 C.ar    
  24 C24            6.5787     5.6951     2.6118 C.ar    
  25 C25            5.4760     4.8370     2.7552 C.ar    
  26 C26            4.3252     5.0785     2.0251 C.ar    
  27 N27            7.5447     7.6128     1.5832 N.ar    
  28 C28            8.6401     7.3892     2.2727 C.ar    
  29 C29            8.7221     6.3052     3.1503 C.ar    
  30 N30            7.7056     5.4883     3.3027 N.ar    
  31 H31            2.6710     0.9472     0.8462 H       
  32 H32            2.3437     0.9411    -1.6215 H       
  33 H33            1.2681     2.3512    -1.4732 H       
  34 H34            4.1923     2.2603    -0.6016 H       
  35 H35            3.5825     3.0284    -2.0878 H       
  36 H36            3.9113     4.6585    -0.1939 H       
  37 H37            2.2271     4.5913    -0.7737 H       
  38 H38            0.5475     3.1419     0.8253 H       
  39 H39            1.3337     2.4342     2.2600 H       
  40 H40           -3.1460    -2.1212     0.3182 H       
  41 H41           -4.0028    -4.3482     0.9149 H       
  42 H42           -0.1645    -5.4294     2.4426 H       
  43 H43            0.7066    -3.2079     1.8462 H       
  44 H44            3.3480     6.3502     0.5860 H       
  45 H45            5.2409     7.8489     0.3133 H       
  46 H46            5.5257     3.9953     3.4300 H       
  47 H47            9.4867     8.0503     2.1598 H       
  48 H48            9.6311     6.1374     3.7089 H       
@<TRIPOS>BOND
   1    1   10 2
   2    1    2 1
   3    1   13 1
   4    2    3 1
   5    2    7 1
   6    2   31 1
   7    3    4 1
   8    3   32 1
   9    3   33 1
  10    4    5 1
  11    4   34 1
  12    4   35 1
  13    5    6 1
  14    5   36 1
  15    5   37 1
  16    6    7 1
  17    6    8 am
  18    7   38 1
  19    7   39 1
  20    8    9 2
  21    8   26 1
  22   10   11 1
  23   11   12 2
  24   11   14 1
  25   12   13 1
  26   14   15 ar
  27   14   19 ar
  28   15   16 ar
  29   15   40 1
  30   16   17 ar
  31   16   41 1
  32   17   18 ar
  33   17   20 1
  34   18   19 ar
  35   18   42 1
  36   19   43 1
  37   21   22 ar
  38   21   26 ar
  39   21   44 1
  40   22   23 ar
  41   22   45 1
  42   23   24 ar
  43   23   27 ar
  44   24   25 ar
  45   24   30 ar
  46   25   26 ar
  47   25   46 1
  48   27   28 ar
  49   28   29 ar
  50   28   47 1
  51   29   30 ar
  52   29   48 1

#	End of record

