#	Name: ASD03570004
#	Creating user name:	WinNT
#	Creation time:	15. 06. 2019 20:43

#	Modifying user name:	WinNT
#	Modification time:	15. 06. 2019 20:43

#	Program:	/corina/corina34_cracker 3.40 0067  02.08.2006

@<TRIPOS>MOLECULE
ASD03570004
  37   38    0    0    0
SMALL
NO_CHARGES


@<TRIPOS>ATOM
   1 C1            -0.0168     1.3861     0.0097 C.ar    
   2 C2             0.0021    -0.0041     0.0020 C.ar    
   3 C3             1.1973    -0.6901    -0.0126 C.ar    
   4 C4             2.3989     0.0124    -0.0203 C.ar    
   5 C5             2.3778     1.4210    -0.0130 C.ar    
   6 C6             1.1489     2.0969     0.0023 C.ar    
   7 N7             3.7167    -0.3793    -0.0346 N.pl3   
   8 C8             4.5159     0.7490    -0.0364 C.2     
   9 C9             3.7245     1.8548    -0.0234 C.2     
  10 C10            4.1972     3.2858    -0.0211 C.3     
  11 C11            4.3438     3.7768    -1.4627 C.3     
  12 Cl12           1.1102     3.8324     0.0109 Cl      
  13 Cl13          -1.4943    -0.8842     0.0116 Cl      
  14 C14            4.1952    -1.7639    -0.0456 C.3     
  15 C15            4.3481    -2.2391    -1.4918 C.3     
  16 C16            4.8164     5.2078    -1.4603 C.2     
  17 O17            5.0155     5.7765    -0.4131 O.2     
  18 O18            5.0162     5.8505    -2.6217 O.3     
  19 C19            5.9840     0.7526    -0.0501 C.2     
  20 O20            6.5894     1.8071    -0.0504 O.2     
  21 O21            6.6611    -0.4136    -0.0623 O.3     
  22 C22            4.8404    -3.6634    -1.5031 C.2     
  23 O23            5.0476    -4.2393    -0.4613 O.2     
  24 O24            5.0486    -4.2923    -2.6706 O.3     
  25 H25           -0.9620     1.9085     0.0170 H       
  26 H26            1.2015    -1.7701    -0.0177 H       
  27 H27            3.4708     3.9075     0.5024 H       
  28 H28            5.1609     3.3493     0.4842 H       
  29 H29            5.0701     3.1551    -1.9862 H       
  30 H30            3.3801     3.7133    -1.9679 H       
  31 H31            5.1598    -1.8189     0.4589 H       
  32 H32            3.4776    -2.4004     0.4721 H       
  33 H33            3.3835    -2.1841    -1.9963 H       
  34 H34            5.0657    -1.6026    -2.0095 H       
  35 H35            5.3195     6.7672    -2.5696 H       
  36 H36            7.6266    -0.3606    -0.0710 H       
  37 H37            5.3645    -5.2052    -2.6272 H       
@<TRIPOS>BOND
   1    1    2 ar
   2    1    6 ar
   3    1   25 1
   4    2    3 ar
   5    2   13 1
   6    3    4 ar
   7    3   26 1
   8    4    5 ar
   9    4    7 1
  10    5    6 ar
  11    5    9 1
  12    6   12 1
  13    7    8 1
  14    7   14 1
  15    8    9 2
  16    8   19 1
  17    9   10 1
  18   10   11 1
  19   10   27 1
  20   10   28 1
  21   11   16 1
  22   11   29 1
  23   11   30 1
  24   14   15 1
  25   14   31 1
  26   14   32 1
  27   15   22 1
  28   15   33 1
  29   15   34 1
  30   16   17 2
  31   16   18 1
  32   18   35 1
  33   19   20 2
  34   19   21 1
  35   21   36 1
  36   22   23 2
  37   22   24 1
  38   24   37 1

#	End of record

