#	Name: ASD06590072
#	Creating user name:	WinNT
#	Creation time:	15. 06. 2019 21:06

#	Modifying user name:	WinNT
#	Modification time:	15. 06. 2019 21:06

#	Program:	/corina/corina34_cracker 3.40 0067  02.08.2006

@<TRIPOS>MOLECULE
ASD06590072
 312  312    0    0    0
SMALL
NO_CHARGES


@<TRIPOS>ATOM
   1 C1            -8.7668    12.5021     8.0028 C.2     
   2 O2            -8.1801    12.6016     6.9460 O.2     
   3 N3            -6.8573    13.6538     8.9603 N.am    
   4 C4            -8.2054    13.1533     9.2405 C.3     
   5 C5            -9.1056    14.3182     9.6569 C.3     
   6 C6            -8.5448    14.9687    10.9231 C.3     
   7 O7            -9.1513    15.2845     8.6051 O.3     
   8 C8           -11.9918    11.7121     6.8035 C.2     
   9 O9           -12.4617    12.3682     7.7088 O.2     
  10 N10           -9.9237    11.8139     8.0691 N.am    
  11 C11          -10.5424    11.3014     6.8441 C.3     
  12 C12          -10.4441     9.7747     6.8232 C.3     
  13 C13           -8.9943     9.3651     6.7874 C.2     
  14 O14           -8.1246    10.2099     6.8167 O.2     
  15 N15           -8.6641     8.0601     6.7227 N.am    
  16 C16          -14.9481    10.7794     4.8661 C.2     
  17 O17          -14.3783     9.8465     4.3408 O.2     
  18 N18          -12.7659    11.3502     5.7613 N.am    
  19 C19          -14.1749    11.7494     5.7219 C.3     
  20 C20          -14.2902    13.1556     5.1303 C.3     
  21 C21          -18.4739    10.4164     3.8120 C.2     
  22 O22          -18.8427    11.3998     4.4184 O.2     
  23 N23          -16.2728    10.9486     4.6845 N.am    
  24 C24          -17.0245    10.0057     3.8526 C.3     
  25 C25          -21.6249     8.8846     2.7690 C.2     
  26 O26          -21.1085     7.7990     2.6085 O.2     
  27 N27          -19.3603     9.6907     3.1020 N.am    
  28 C28          -20.7693    10.0899     3.0626 C.3     
  29 C29          -20.9719    11.1383     1.9668 C.3     
  30 C30          -20.2010    12.4095     2.3283 C.3     
  31 C31          -20.4036    13.4578     1.2325 C.3     
  32 N32          -19.6654    14.6750     1.5787 N.pl3   
  33 C33          -19.6984    15.7617     0.7372 C.2     
  34 N34          -20.3864    15.7090    -0.3686 N.2     
  35 N35          -19.0057    16.9040     1.0621 N.pl3   
  36 C36          -25.0884     8.2854     1.7651 C.2     
  37 O37          -25.2947     9.4646     1.5706 O.2     
  38 N38          -22.9639     9.0130     2.6849 N.am    
  39 C39          -23.7956     7.8413     2.3995 C.3     
  40 C40          -24.0958     7.0992     3.7033 C.3     
  41 O41          -24.8910     7.9296     4.5519 O.3     
  42 C42          -28.2912     8.1669     1.6935 C.2     
  43 O43          -28.0659     8.0909     2.8828 O.2     
  44 N44          -26.0154     7.3722     1.4140 N.am    
  45 C45          -27.2230     7.7920     0.6988 C.3     
  46 C46          -27.7230     6.6414    -0.1771 C.3     
  47 C47          -26.6999     6.3392    -1.2415 C.2     
  48 O48          -25.7236     7.0415    -1.3579 O.2     
  49 O49          -26.8731     5.2897    -2.0602 O.3     
  50 C50          -31.8924     8.7872     1.5940 C.2     
  51 O51          -31.9832     8.4038     0.4470 O.2     
  52 N52          -29.4969     8.5866     1.2615 N.am    
  53 C53          -30.5353     8.9511     2.2285 C.3     
  54 C54          -30.3450    10.4076     2.6566 C.3     
  55 C55          -35.3139     9.8107     2.3744 C.2     
  56 O56          -34.9527    10.5179     3.2911 O.2     
  57 N57          -33.0051     9.0668     2.3012 N.am    
  58 C58          -34.3244     8.9075     1.6844 C.3     
  59 C59          -34.7794     7.4532     1.8219 C.3     
  60 C60          -33.8444     6.5480     1.0172 C.3     
  61 C61          -34.2994     5.0938     1.1547 C.3     
  62 N62          -33.4041     4.2271     0.3842 N.pl3   
  63 C63          -33.6169     2.8691     0.3575 C.2     
  64 N64          -34.6151     2.3527     1.0177 N.2     
  65 N65          -32.7767     2.0557    -0.3655 N.pl3   
  66 C66          -38.9520    10.1519     2.4792 C.2     
  67 O67          -39.1222     9.1215     1.8626 O.2     
  68 N68          -36.6002     9.8327     1.9727 N.am    
  69 C69          -37.5621    10.7108     2.6435 C.3     
  70 C70          -37.4973    12.1074     2.0219 C.3     
  71 C71          -36.1249    12.7250     2.2975 C.3     
  72 C72          -36.0611    14.1006     1.6853 C.2     
  73 O73          -37.0190    14.5434     1.0875 O.2     
  74 N74          -34.9396    14.8388     1.8021 N.am    
  75 C75          -42.3636    11.3693     2.9708 C.2     
  76 O76          -41.9893    12.5064     3.1656 O.2     
  77 N77          -40.0057    10.7970     3.0175 N.am    
  78 C78          -41.3568    10.2536     2.8578 C.3     
  79 C79          -41.6214     9.2154     3.9501 C.3     
  80 C80          -40.6808     8.0238     3.7596 C.3     
  81 C81          -40.9414     7.0012     4.8355 C.2     
  82 O82          -41.7953     7.2054     5.6721 O.2     
  83 N83          -40.2254     5.8598     4.8679 N.am    
  84 C84          -45.9832    11.6260     3.4127 C.2     
  85 O85          -46.0985    10.4365     3.6193 O.2     
  86 N86          -43.6798    11.1036     2.8555 N.am    
  87 C87          -44.6585    12.1882     2.9654 C.3     
  88 C88          -44.8253    12.8645     1.6031 C.3     
  89 C89          -43.5322    13.5324     1.2122 C.ar    
  90 C90          -42.5843    12.8315     0.4898 C.ar    
  91 C91          -41.3979    13.4414     0.1306 C.ar    
  92 C92          -41.1583    14.7584     0.4950 C.ar    
  93 O93          -39.9921    15.3607     0.1424 O.3     
  94 C94          -42.1112    15.4596     1.2195 C.ar    
  95 C95          -43.2981    14.8468     1.5717 C.ar    
  96 C96          -49.4393    12.8079     3.5611 C.2     
  97 O97          -49.1811    13.8134     2.9341 O.2     
  98 N98          -47.0399    12.4451     3.5831 N.am    
  99 C99          -48.3277    11.8986     4.0179 C.3     
 100 C100         -48.3484    11.7948     5.5442 C.3     
 101 C101         -47.3018    10.7763     6.0004 C.3     
 102 C102         -47.3225    10.6725     7.5267 C.3     
 103 N103         -46.3203     9.6973     7.9635 N.pl3   
 104 C104         -46.1551     9.4343     9.3028 C.2     
 105 N105         -46.8902    10.0525    10.1839 N.2     
 106 N106         -45.2146     8.5191     9.7127 N.pl3   
 107 C107         -52.9941    13.2157     4.3095 C.2     
 108 O108         -52.9466    12.4320     5.2338 O.2     
 109 N109         -50.7202    12.5037     3.8494 N.am    
 110 C110         -51.8008    13.3877     3.4053 C.3     
 111 C111         -52.1932    13.0321     1.9699 C.3     
 112 C112         -51.0196    13.3252     1.0329 C.3     
 113 C113         -51.4120    12.9696    -0.4025 C.3     
 114 C114         -50.2385    13.2627    -1.3395 C.3     
 115 N115         -50.6152    12.9213    -2.7177 N.3     
 116 C116         -56.5391    14.0230     4.0945 C.2     
 117 O117         -56.4407    14.6950     3.0897 O.2     
 118 N118         -54.1141    13.9329     4.0910 N.am    
 119 C119         -55.3105    13.6876     4.9001 C.3     
 120 C120         -55.2673    14.5644     6.1532 C.3     
 121 C121         -56.4734    14.2471     7.0395 C.3     
 122 C122         -56.3475    12.8216     7.5808 C.3     
 123 C123         -56.5214    15.2338     8.2078 C.3     
 124 C124         -59.4934    15.1712     3.9462 C.2     
 125 O125         -58.9683    15.8780     4.7736 O.2     
 126 N126         -57.7474    13.5761     4.4906 N.am    
 127 C127         -58.9252    13.8071     3.6507 C.3     
 128 C128         -59.9806    12.7398     3.9476 C.3     
 129 C129         -59.4354    11.3628     3.5637 C.3     
 130 C130         -60.4498    10.2858     3.9535 C.3     
 131 C131         -59.1934    11.3129     2.0537 C.3     
 132 O132         -60.5828    15.6010     3.2903 O.3     
 133 C133          -5.9734    13.8083     9.9659 C.2     
 134 O134          -6.2939    13.5331    11.1027 O.2     
 135 C135          10.8362    18.5473    16.7607 C.3     
 136 C136           9.4283    18.0246    17.0533 C.3     
 137 C137           8.6329    17.9438    15.7488 C.3     
 138 C138           7.2251    17.4211    16.0414 C.3     
 139 C139           6.4297    17.3404    14.7370 C.3     
 140 C140           5.0218    16.8177    15.0296 C.3     
 141 C141           4.2264    16.7369    13.7251 C.3     
 142 C142           2.8185    16.2142    14.0177 C.3     
 143 C143           2.0231    16.1335    12.7132 C.3     
 144 C144           0.6153    15.6108    13.0058 C.3     
 145 C145          -0.1802    15.5301    11.7014 C.3     
 146 C146          -1.5880    15.0074    11.9940 C.3     
 147 C147          -2.3834    14.9266    10.6895 C.3     
 148 C148          -3.7913    14.4039    10.9821 C.3     
 149 C149          -4.5867    14.3232     9.6776 C.3     
 150 H150          -6.6010    13.8739     8.0510 H       
 151 H151          -8.1610    12.4219    10.0475 H       
 152 H152         -10.1116    13.9476     9.8538 H       
 153 H153          -7.5828    15.4298    10.6992 H       
 154 H154          -9.2389    15.7305    11.2782 H       
 155 H155          -8.4132    14.2094    11.6940 H       
 156 H156          -9.4973    14.9409     7.7701 H       
 157 H157         -10.3467    11.6580     8.9280 H       
 158 H158         -10.0244    11.7107     5.9767 H       
 159 H159         -10.9145     9.3681     7.7185 H       
 160 H160         -10.9524     9.3900     5.9390 H       
 161 H161          -9.3597     7.3844     6.6992 H       
 162 H162          -7.7309     7.7964     6.6996 H       
 163 H163         -12.3901    10.8254     5.0372 H       
 164 H164         -14.5819    11.7461     6.7331 H       
 165 H165         -13.8833    13.1589     4.1191 H       
 166 H166         -15.3385    13.4527     5.1010 H       
 167 H167         -13.7310    13.8572     5.7493 H       
 168 H168         -16.7285    11.6948     5.1046 H       
 169 H169         -16.9423     9.0039     4.2740 H       
 170 H170         -16.6175    10.0090     2.8414 H       
 171 H171         -19.0653     8.9041     2.6170 H       
 172 H172         -21.0544    10.5119     4.0263 H       
 173 H173         -20.6041    10.7478     1.0179 H       
 174 H174         -22.0332    11.3700     1.8774 H       
 175 H175         -20.5688    12.7999     3.2772 H       
 176 H176         -19.1397    12.1777     2.4177 H       
 177 H177         -20.0358    13.0673     0.2837 H       
 178 H178         -21.4649    13.6896     1.1432 H       
 179 H179         -19.1534    14.7142     2.4016 H       
 180 H180         -20.4097    16.4757    -0.9623 H       
 181 H181         -18.4937    16.9432     1.8850 H       
 182 H182         -19.0290    17.6707     0.4683 H       
 183 H183         -23.3768     9.8813     2.8133 H       
 184 H184         -23.2655     7.1769     1.7171 H       
 185 H185         -24.6388     6.1804     3.4817 H       
 186 H186         -23.1601     6.8558     4.2066 H       
 187 H187         -25.1200     7.5222     5.3984 H       
 188 H188         -25.8829     6.4370     1.6349 H       
 189 H189         -26.9928     8.6529     0.0711 H       
 190 H190         -27.8780     5.7562     0.4397 H       
 191 H191         -28.6641     6.9256    -0.6479 H       
 192 H192         -26.1902     5.1358    -2.7273 H       
 193 H193         -29.6771     8.6474     0.3103 H       
 194 H194         -30.4620     8.3031     3.1019 H       
 195 H195         -31.1176    10.6787     3.3761 H       
 196 H196         -29.3635    10.5261     3.1155 H       
 197 H197         -30.4184    11.0555     1.7832 H       
 198 H198         -32.9325     9.3735     3.2186 H       
 199 H199         -34.2661     9.1717     0.6285 H       
 200 H200         -34.7525     7.1617     2.8718 H       
 201 H201         -35.7966     7.3534     1.4431 H       
 202 H202         -33.8713     6.8395    -0.0327 H       
 203 H203         -32.8272     6.6479     1.3960 H       
 204 H204         -34.2725     4.8023     2.2047 H       
 205 H205         -35.3166     4.9939     0.7759 H       
 206 H206         -32.6613     4.6114    -0.1071 H       
 207 H207         -34.7652     1.3945     0.9989 H       
 208 H208         -32.0339     2.4400    -0.8568 H       
 209 H209         -32.9268     1.0976    -0.3843 H       
 210 H210         -36.8891     9.2671     1.2396 H       
 211 H211         -37.3187    10.7735     3.7041 H       
 212 H212         -37.6532    12.0337     0.9457 H       
 213 H213         -38.2731    12.7360     2.4592 H       
 214 H214         -35.9691    12.7987     3.3737 H       
 215 H215         -35.3492    12.0964     1.8602 H       
 216 H216         -34.1735    14.4847     2.2802 H       
 217 H217         -34.8985    15.7243     1.4081 H       
 218 H218         -39.8696    11.6211     3.5107 H       
 219 H219         -41.4455     9.7820     1.8791 H       
 220 H220         -41.4461     9.6640     4.9279 H       
 221 H221         -42.6552     8.8761     3.8861 H       
 222 H222         -40.8561     7.5752     2.7818 H       
 223 H223         -39.6469     8.3632     3.8237 H       
 224 H224         -39.5424     5.6965     4.1987 H       
 225 H225         -40.3931     5.2016     5.5603 H       
 226 H226         -43.9792    10.1941     2.6997 H       
 227 H227         -44.3096    12.9199     3.6940 H       
 228 H228         -45.0881    12.1160     0.8556 H       
 229 H229         -45.6166    13.6117     1.6630 H       
 230 H230         -42.7713    11.8063     0.2063 H       
 231 H231         -40.6575    12.8933    -0.4331 H       
 232 H232         -40.0248    15.8108    -0.7128 H       
 233 H233         -41.9268    16.4848     1.5046 H       
 234 H234         -44.0421    15.3937     2.1319 H       
 235 H235         -46.9477    13.3964     3.4178 H       
 236 H236         -48.4671    10.9083     3.5844 H       
 237 H237         -48.1209    12.7686     5.9778 H       
 238 H238         -49.3364    11.4726     5.8731 H       
 239 H239         -47.5293     9.8025     5.5669 H       
 240 H240         -46.3138    11.0986     5.6715 H       
 241 H241         -47.0950    11.6464     7.9603 H       
 242 H242         -48.3105    10.3503     7.8556 H       
 243 H243         -45.7733     9.2372     7.3078 H       
 244 H244         -46.7737     9.8669    11.1288 H       
 245 H245         -44.6676     8.0590     9.0570 H       
 246 H246         -45.0981     8.3335    10.6577 H       
 247 H247         -50.9267    11.6995     4.3509 H       
 248 H248         -51.4621    14.4230     3.4436 H       
 249 H249         -52.4470    11.9736     1.9142 H       
 250 H250         -53.0549    13.6286     1.6704 H       
 251 H251         -50.7658    14.3837     1.0886 H       
 252 H252         -50.1579    12.7287     1.3324 H       
 253 H253         -51.6658    11.9111    -0.4582 H       
 254 H254         -52.2738    13.5661    -0.7020 H       
 255 H255         -49.9847    14.3212    -1.2838 H       
 256 H256         -49.3767    12.6662    -1.0400 H       
 257 H257         -49.8562    13.1060    -3.3563 H       
 258 H258         -50.9168    11.9606    -2.7827 H       
 259 H259         -54.1279    14.6115     3.3980 H       
 260 H260         -55.3427    12.6379     5.1920 H       
 261 H261         -54.3485    14.3648     6.7047 H       
 262 H262         -55.2960    15.6147     5.8630 H       
 263 H263         -57.3880    14.3336     6.4530 H       
 264 H264         -57.1504    12.6311     8.2930 H       
 265 H265         -56.4175    12.1123     6.7561 H       
 266 H266         -55.3849    12.7057     8.0789 H       
 267 H267         -56.6111    16.2494     7.8221 H       
 268 H268         -57.3807    15.0078     8.8392 H       
 269 H269         -55.6068    15.1473     8.7943 H       
 270 H270         -57.8371    13.1017     5.3319 H       
 271 H271         -58.6389    13.7525     2.6004 H       
 272 H272         -60.2205    12.7521     5.0108 H       
 273 H273         -60.8808    12.9483     3.3695 H       
 274 H274         -58.4966    11.1845     4.0881 H       
 275 H275         -60.1018     9.3145     3.6018 H       
 276 H276         -60.5566    10.2627     5.0380 H       
 277 H277         -61.4138    10.5129     3.4983 H       
 278 H278         -58.4707    12.0802     1.7761 H       
 279 H279         -58.8050    10.3319     1.7802 H       
 280 H280         -60.1322    11.4912     1.5293 H       
 281 H281         -60.9104    16.4829     3.5140 H       
 282 H282          11.4029    18.6048    17.6900 H       
 283 H283          11.3388    17.8703    16.0700 H       
 284 H284          10.7699    19.5391    16.3136 H       
 285 H285           9.4947    17.0327    17.5004 H       
 286 H286           8.9257    18.7016    17.7440 H       
 287 H287           8.5666    18.9357    15.3017 H       
 288 H288           9.1356    17.2668    15.0581 H       
 289 H289           7.2914    16.4292    16.4885 H       
 290 H290           6.7224    18.0981    16.7322 H       
 291 H291           6.3633    18.3323    14.2899 H       
 292 H292           6.9323    16.6634    14.0462 H       
 293 H293           5.0881    15.8258    15.4767 H       
 294 H294           4.5192    17.4947    15.7203 H       
 295 H295           4.1601    17.7288    13.2780 H       
 296 H296           4.7290    16.0599    13.0344 H       
 297 H297           2.8849    15.2224    14.4648 H       
 298 H298           2.3159    16.8912    14.7084 H       
 299 H299           1.9568    17.1254    12.2661 H       
 300 H300           2.5258    15.4565    12.0225 H       
 301 H301           0.6816    14.6189    13.4529 H       
 302 H302           0.1126    16.2878    13.6966 H       
 303 H303          -0.2465    16.5219    11.2543 H       
 304 H304           0.3225    14.8531    11.0106 H       
 305 H305          -1.5217    14.0155    12.4411 H       
 306 H306          -2.0906    15.6844    12.6847 H       
 307 H307          -2.4498    15.9185    10.2424 H       
 308 H308          -1.8808    14.2496     9.9988 H       
 309 H309          -3.7249    13.4120    11.4292 H       
 310 H310          -4.2939    15.0809    11.6728 H       
 311 H311          -4.0840    13.6462     8.9869 H       
 312 H312          -4.6530    15.3151     9.2305 H       
@<TRIPOS>BOND
   1    1    2 2
   2    1    4 1
   3    1   10 am
   4    3  133 am
   5    3    4 1
   6    3  150 1
   7    4    5 1
   8    4  151 1
   9    5    6 1
  10    5    7 1
  11    5  152 1
  12    6  153 1
  13    6  154 1
  14    6  155 1
  15    7  156 1
  16    8    9 2
  17    8   11 1
  18    8   18 am
  19   10   11 1
  20   10  157 1
  21   11   12 1
  22   11  158 1
  23   12   13 1
  24   12  159 1
  25   12  160 1
  26   13   14 2
  27   13   15 am
  28   15  161 1
  29   15  162 1
  30   16   17 2
  31   16   19 1
  32   16   23 am
  33   18   19 1
  34   18  163 1
  35   19   20 1
  36   19  164 1
  37   20  165 1
  38   20  166 1
  39   20  167 1
  40   21   22 2
  41   21   24 1
  42   21   27 am
  43   23   24 1
  44   23  168 1
  45   24  169 1
  46   24  170 1
  47   25   26 2
  48   25   28 1
  49   25   38 am
  50   27   28 1
  51   27  171 1
  52   28   29 1
  53   28  172 1
  54   29   30 1
  55   29  173 1
  56   29  174 1
  57   30   31 1
  58   30  175 1
  59   30  176 1
  60   31   32 1
  61   31  177 1
  62   31  178 1
  63   32   33 1
  64   32  179 1
  65   33   34 2
  66   33   35 1
  67   34  180 1
  68   35  181 1
  69   35  182 1
  70   36   37 2
  71   36   39 1
  72   36   44 am
  73   38   39 1
  74   38  183 1
  75   39   40 1
  76   39  184 1
  77   40   41 1
  78   40  185 1
  79   40  186 1
  80   41  187 1
  81   42   43 2
  82   42   45 1
  83   42   52 am
  84   44   45 1
  85   44  188 1
  86   45   46 1
  87   45  189 1
  88   46   47 1
  89   46  190 1
  90   46  191 1
  91   47   48 2
  92   47   49 1
  93   49  192 1
  94   50   51 2
  95   50   53 1
  96   50   57 am
  97   52   53 1
  98   52  193 1
  99   53   54 1
 100   53  194 1
 101   54  195 1
 102   54  196 1
 103   54  197 1
 104   55   56 2
 105   55   58 1
 106   55   68 am
 107   57   58 1
 108   57  198 1
 109   58   59 1
 110   58  199 1
 111   59   60 1
 112   59  200 1
 113   59  201 1
 114   60   61 1
 115   60  202 1
 116   60  203 1
 117   61   62 1
 118   61  204 1
 119   61  205 1
 120   62   63 1
 121   62  206 1
 122   63   64 2
 123   63   65 1
 124   64  207 1
 125   65  208 1
 126   65  209 1
 127   66   67 2
 128   66   69 1
 129   66   77 am
 130   68   69 1
 131   68  210 1
 132   69   70 1
 133   69  211 1
 134   70   71 1
 135   70  212 1
 136   70  213 1
 137   71   72 1
 138   71  214 1
 139   71  215 1
 140   72   73 2
 141   72   74 am
 142   74  216 1
 143   74  217 1
 144   75   76 2
 145   75   78 1
 146   75   86 am
 147   77   78 1
 148   77  218 1
 149   78   79 1
 150   78  219 1
 151   79   80 1
 152   79  220 1
 153   79  221 1
 154   80   81 1
 155   80  222 1
 156   80  223 1
 157   81   82 2
 158   81   83 am
 159   83  224 1
 160   83  225 1
 161   84   85 2
 162   84   87 1
 163   84   98 am
 164   86   87 1
 165   86  226 1
 166   87   88 1
 167   87  227 1
 168   88   89 1
 169   88  228 1
 170   88  229 1
 171   89   90 ar
 172   89   95 ar
 173   90   91 ar
 174   90  230 1
 175   91   92 ar
 176   91  231 1
 177   92   93 1
 178   92   94 ar
 179   93  232 1
 180   94   95 ar
 181   94  233 1
 182   95  234 1
 183   96   97 2
 184   96   99 1
 185   96  109 am
 186   98   99 1
 187   98  235 1
 188   99  100 1
 189   99  236 1
 190  100  101 1
 191  100  237 1
 192  100  238 1
 193  101  102 1
 194  101  239 1
 195  101  240 1
 196  102  103 1
 197  102  241 1
 198  102  242 1
 199  103  104 1
 200  103  243 1
 201  104  105 2
 202  104  106 1
 203  105  244 1
 204  106  245 1
 205  106  246 1
 206  107  108 2
 207  107  110 1
 208  107  118 am
 209  109  110 1
 210  109  247 1
 211  110  111 1
 212  110  248 1
 213  111  112 1
 214  111  249 1
 215  111  250 1
 216  112  113 1
 217  112  251 1
 218  112  252 1
 219  113  114 1
 220  113  253 1
 221  113  254 1
 222  114  115 1
 223  114  255 1
 224  114  256 1
 225  115  257 1
 226  115  258 1
 227  116  117 2
 228  116  119 1
 229  116  126 am
 230  118  119 1
 231  118  259 1
 232  119  120 1
 233  119  260 1
 234  120  121 1
 235  120  261 1
 236  120  262 1
 237  121  122 1
 238  121  123 1
 239  121  263 1
 240  122  264 1
 241  122  265 1
 242  122  266 1
 243  123  267 1
 244  123  268 1
 245  123  269 1
 246  124  125 2
 247  124  127 1
 248  124  132 1
 249  126  127 1
 250  126  270 1
 251  127  128 1
 252  127  271 1
 253  128  129 1
 254  128  272 1
 255  128  273 1
 256  129  130 1
 257  129  131 1
 258  129  274 1
 259  130  275 1
 260  130  276 1
 261  130  277 1
 262  131  278 1
 263  131  279 1
 264  131  280 1
 265  132  281 1
 266  133  134 2
 267  133  149 1
 268  135  136 1
 269  135  282 1
 270  135  283 1
 271  135  284 1
 272  136  137 1
 273  136  285 1
 274  136  286 1
 275  137  138 1
 276  137  287 1
 277  137  288 1
 278  138  139 1
 279  138  289 1
 280  138  290 1
 281  139  140 1
 282  139  291 1
 283  139  292 1
 284  140  141 1
 285  140  293 1
 286  140  294 1
 287  141  142 1
 288  141  295 1
 289  141  296 1
 290  142  143 1
 291  142  297 1
 292  142  298 1
 293  143  144 1
 294  143  299 1
 295  143  300 1
 296  144  145 1
 297  144  301 1
 298  144  302 1
 299  145  146 1
 300  145  303 1
 301  145  304 1
 302  146  147 1
 303  146  305 1
 304  146  306 1
 305  147  148 1
 306  147  307 1
 307  147  308 1
 308  148  149 1
 309  148  309 1
 310  148  310 1
 311  149  311 1
 312  149  312 1

#	End of record

