#	Name: ASD01884803
#	Creating user name:	WinNT
#	Creation time:	15. 06. 2019 19:48

#	Modifying user name:	WinNT
#	Modification time:	15. 06. 2019 19:48

#	Program:	/corina/corina34_cracker 3.40 0067  02.08.2006

@<TRIPOS>MOLECULE
ASD01884803
  50   54    0    0    0
SMALL
NO_CHARGES


@<TRIPOS>ATOM
   1 C1            -0.4405     1.2698     0.2469 C.3     
   2 C2            -0.1584    -0.2326     0.1822 C.3     
   3 H3            -1.0921    -0.7833     0.2964 H       
   4 C4             0.4741    -0.5751    -1.1655 C.3     
   5 N5             1.0418    -1.9188    -1.1936 N.am    
   6 C6             1.7235    -2.4207    -0.1354 C.2     
   7 O7             2.3646    -3.4515    -0.2154 O.2     
   8 C8             1.6461    -1.6513     1.1134 C.2     
   9 C9             2.3406    -1.7608     2.2983 C.2     
  10 C10            1.8276    -0.7254     3.1101 C.2     
  11 N11            0.9101    -0.0927     2.4203 N.2     
  12 N12            0.7652    -0.6047     1.2615 N.pl3   
  13 C13            3.3927    -2.7474     2.6446 C.2     
  14 C14            4.0936    -2.8478     3.8747 C.2     
  15 C15            4.9398    -3.9041     3.6832 C.2     
  16 O16            4.7148    -4.3486     2.4337 O.3     
  17 N17            3.8566    -3.7045     1.8772 N.2     
  18 C18            5.9094    -4.4494     4.6559 C.ar    
  19 C19            6.7208    -5.5406     4.3153 C.ar    
  20 C20            7.6113    -6.0150     5.2569 C.ar    
  21 C21            7.6744    -5.3996     6.5045 C.ar    
  22 N22            8.5681    -5.8713     7.4561 N.pl3   
  23 N23            6.8933    -4.3694     6.7956 N.ar    
  24 C24            6.0343    -3.8824     5.9238 C.ar    
  25 C25            0.8786    -2.7062    -2.3374 C.ar    
  26 C26            0.0871    -3.8466    -2.2902 C.ar    
  27 C27           -0.0724    -4.6219    -3.4219 C.ar    
  28 C28            0.5551    -4.2642    -4.6011 C.ar    
  29 C29            1.3441    -3.1296    -4.6514 C.ar    
  30 C30            1.5029    -2.3465    -3.5249 C.ar    
  31 C31            0.3791    -5.1129    -5.8339 C.3     
  32 F32           -0.7283    -4.6589    -6.5584 F       
  33 F33            1.5261    -5.0225    -6.6299 F       
  34 F34            0.1762    -6.4450    -5.4579 F       
  35 H35            0.4934     1.8201     0.1327 H       
  36 H36           -1.1252     1.5457    -0.5551 H       
  37 H37           -0.8907     1.5139     1.2091 H       
  38 H38           -0.2874    -0.4981    -1.9417 H       
  39 H39            1.2640     0.1455    -1.3772 H       
  40 H40            2.1359    -0.4960     4.1194 H       
  41 H41            3.9840    -2.2332     4.7560 H       
  42 H42            6.6506    -5.9991     3.3400 H       
  43 H43            8.2516    -6.8543     5.0289 H       
  44 H44            9.1432    -6.6248     7.2499 H       
  45 H45            8.6175    -5.4475     8.3272 H       
  46 H46            5.4174    -3.0386     6.1954 H       
  47 H47           -0.4027    -4.1270    -1.3694 H       
  48 H48           -0.6877    -5.5088    -3.3858 H       
  49 H49            1.8332    -2.8532    -5.5738 H       
  50 H50            2.1156    -1.4581    -3.5661 H       
@<TRIPOS>BOND
   1    1    2 1
   2    1   35 1
   3    1   36 1
   4    1   37 1
   5    2    3 1
   6    2   12 1
   7    2    4 1
   8    4    5 1
   9    4   38 1
  10    4   39 1
  11    5    6 am
  12    5   25 1
  13    6    7 2
  14    6    8 1
  15    8   12 1
  16    8    9 2
  17    9   10 1
  18    9   13 1
  19   10   11 2
  20   10   40 1
  21   11   12 1
  22   13   17 2
  23   13   14 1
  24   14   15 2
  25   14   41 1
  26   15   16 1
  27   15   18 1
  28   16   17 1
  29   18   24 ar
  30   18   19 ar
  31   19   20 ar
  32   19   42 1
  33   20   21 ar
  34   20   43 1
  35   21   22 1
  36   21   23 ar
  37   22   44 1
  38   22   45 1
  39   23   24 ar
  40   24   46 1
  41   25   30 ar
  42   25   26 ar
  43   26   27 ar
  44   26   47 1
  45   27   28 ar
  46   27   48 1
  47   28   29 ar
  48   28   31 1
  49   29   30 ar
  50   29   49 1
  51   30   50 1
  52   31   32 1
  53   31   33 1
  54   31   34 1

#	End of record

