#	Name: ASD01180042
#	Creating user name:	WinNT
#	Creation time:	15. 06. 2019 19:06

#	Modifying user name:	WinNT
#	Modification time:	15. 06. 2019 19:06

#	Program:	/corina/corina34_cracker 3.40 0067  02.08.2006

@<TRIPOS>MOLECULE
ASD01180042
 128  134    0    0    0
SMALL
NO_CHARGES


@<TRIPOS>ATOM
   1 C1            -0.4304     1.1704     0.6369 C.3     
   2 C2            -0.4648    -0.3503     0.4109 C.3     
   3 C3             1.0294    -0.3589     0.7746 C.3     
   4 C4             1.0706     1.1061     0.3089 C.3     
   5 C5            -1.2358     1.9489    -0.3712 C.2     
   6 O6            -1.4083     1.5030    -1.4808 O.2     
   7 O7            -1.7616     3.1377    -0.0364 O.3     
   8 C8             1.2909    -0.5313     2.2487 C.2     
   9 O9             1.4543     0.4384     2.9507 O.2     
  10 O10            1.3422    -1.7622     2.7818 O.3     
  11 C11            1.3752     1.2647    -1.1585 C.ar    
  12 C12            2.0090     2.4069    -1.6118 C.ar    
  13 C13            2.2898     2.5544    -2.9605 C.ar    
  14 C14            1.9323     1.5506    -3.8564 C.ar    
  15 C15            1.2975     0.4087    -3.3953 C.ar    
  16 C16            1.0254     0.2656    -2.0473 C.ar    
  17 O17            2.2053     1.6907    -5.1812 O.3     
  18 C18            3.4326     1.3156    -5.5966 C.2     
  19 O19            4.2040     0.7891    -4.8172 O.2     
  20 C20            3.8362     1.5421    -6.9854 C.2     
  21 C21            5.0479     1.2077    -7.5241 C.2     
  22 C22            5.1596     1.5338    -8.8543 C.2     
  23 C23            4.0790     2.1151    -9.3894 C.2     
  24 S24            2.8381     2.2809    -8.2302 S.3     
  25 O25            2.9126     3.6772    -3.4080 O.3     
  26 C26            3.2493     4.6651    -2.4320 C.3     
  27 C27           -1.3309    -1.0881     1.3991 C.ar    
  28 C28           -2.4826    -0.4959     1.8836 C.ar    
  29 C29           -3.2800    -1.1727     2.7922 C.ar    
  30 C30           -2.9187    -2.4489     3.2151 C.ar    
  31 C31           -1.7633    -3.0364     2.7255 C.ar    
  32 C32           -0.9751    -2.3574     1.8147 C.ar    
  33 O33           -3.6977    -3.1173     4.1071 O.3     
  34 C34           -4.7897    -3.7412     3.6194 C.2     
  35 O35           -4.9889    -3.7699     2.4197 O.2     
  36 C36           -5.7351    -4.3837     4.5339 C.2     
  37 C37           -6.8734    -5.0446     4.1628 C.2     
  38 C38           -7.5776    -5.5535     5.2275 C.2     
  39 C39           -7.0377    -5.3194     6.4297 C.2     
  40 S40           -5.5853    -4.4360     6.2850 S.3     
  41 O41           -4.4127    -0.5917     3.2700 O.3     
  42 C42           -4.7204     0.7194     2.7922 C.3     
  43 N43            1.8304    -1.2615    -0.0560 N.am    
  44 C44            3.1546    -1.3824     0.1637 C.2     
  45 C45            3.9422    -2.3700    -0.5996 C.ar    
  46 C46            5.3154    -2.4966    -0.3729 C.ar    
  47 C47            6.0470    -3.4191    -1.0863 C.ar    
  48 C48            5.4207    -4.2249    -2.0320 C.ar    
  49 C49            4.0539    -4.1011    -2.2604 C.ar    
  50 C50            3.3154    -3.1846    -1.5464 C.ar    
  51 O51            3.7004    -0.6778     0.9908 O.2     
  52 N52            6.1648    -5.1583    -2.7528 N.am    
  53 C53            7.4306    -4.8740    -3.1181 C.2     
  54 O54            7.9530    -3.8420    -2.7461 O.2     
  55 O55            8.1162    -5.7335    -3.8953 O.3     
  56 C56            9.4745    -5.3623    -4.2495 C.3     
  57 C57           10.3084    -5.2041    -2.9765 C.3     
  58 C58           10.0884    -6.4533    -5.1291 C.3     
  59 C59            9.4579    -4.0383    -5.0162 C.3     
  60 N60           -0.7126     1.5648     2.0193 N.am    
  61 C61           -0.5698     2.8510     2.3957 C.2     
  62 C62           -0.7641     3.2325     3.8081 C.ar    
  63 C63           -0.6164     4.5658     4.2001 C.ar    
  64 C64           -0.7989     4.9183     5.5183 C.ar    
  65 C65           -1.1299     3.9490     6.4599 C.ar    
  66 C66           -1.2772     2.6206     6.0731 C.ar    
  67 C67           -1.1019     2.2622     4.7555 C.ar    
  68 O68           -0.2809     3.6971     1.5717 O.2     
  69 N69           -1.3139     4.3095     7.7942 N.am    
  70 C70           -0.5797     5.3041     8.3310 C.2     
  71 O71            0.1779     5.9460     7.6307 O.2     
  72 O72           -0.6858     5.5865     9.6432 O.3     
  73 C73            0.1349     6.6706    10.1526 C.3     
  74 C74           -0.2223     7.9671     9.4228 C.3     
  75 C75           -0.1198     6.8422    11.6514 C.3     
  76 C76            1.6117     6.3449     9.9202 C.3     
  77 H77           -0.6642    -0.6337    -0.6225 H       
  78 H78            1.6837     1.7482     0.9413 H       
  79 H79           -2.2705     3.5999    -0.7165 H       
  80 H80            1.5126    -1.8224     3.7317 H       
  81 H81            2.2849     3.1842    -0.9147 H       
  82 H82            1.0191    -0.3716    -4.0882 H       
  83 H83            0.5347    -0.6271    -1.6885 H       
  84 H84            5.8383     0.7348    -6.9602 H       
  85 H85            6.0541     1.3359    -9.4263 H       
  86 H86            4.0016     2.4332   -10.4185 H       
  87 H87            3.7399     5.5067    -2.9211 H       
  88 H88            2.3419     5.0111    -1.9371 H       
  89 H89            3.9231     4.2311    -1.6932 H       
  90 H90           -2.7604     0.4944     1.5541 H       
  91 H91           -1.4807    -4.0263     3.0520 H       
  92 H92           -0.0773    -2.8184     1.4303 H       
  93 H93           -7.1878    -5.1553     3.1355 H       
  94 H94           -8.4996    -6.1021     5.1032 H       
  95 H95           -7.4629    -5.6489     7.3662 H       
  96 H96           -5.6467     1.0652     3.2511 H       
  97 H97           -3.9099     1.4004     3.0520 H       
  98 H98           -4.8395     0.6928     1.7090 H       
  99 H99            1.4077    -1.7722    -0.7642 H       
 100 H100           5.8022    -1.8712     0.3608 H       
 101 H101           7.1083    -3.5172    -0.9119 H       
 102 H102           3.5709    -4.7278    -2.9955 H       
 103 H103           2.2535    -3.0924    -1.7208 H       
 104 H104           5.7714    -6.0122    -2.9913 H       
 105 H105          10.3202    -6.1473    -2.4304 H       
 106 H106          11.3281    -4.9254    -3.2425 H       
 107 H107           9.8710    -4.4268    -2.3499 H       
 108 H108           9.4943    -6.5660    -6.0360 H       
 109 H109          11.1081    -6.1747    -5.3950 H       
 110 H110          10.1002    -7.3965    -4.5829 H       
 111 H111           9.0206    -3.2611    -4.3895 H       
 112 H112          10.4776    -3.7597    -5.2821 H       
 113 H113           8.8638    -4.1510    -5.9231 H       
 114 H114          -1.0022     0.9001     2.6638 H       
 115 H115          -0.3591     5.3187     3.4698 H       
 116 H116          -0.6845     5.9484     5.8219 H       
 117 H117          -1.5339     1.8706     6.8065 H       
 118 H118          -1.2211     1.2317     4.4551 H       
 119 H119          -1.9704     3.8444     8.3362 H       
 120 H120          -1.2744     8.1991     9.5884 H       
 121 H121           0.3938     8.7809     9.8053 H       
 122 H122          -0.0408     7.8448     8.3550 H       
 123 H123           0.1347     5.9186    12.1713 H       
 124 H124           0.4963     7.6560    12.0338 H       
 125 H125          -1.1719     7.0743    11.8170 H       
 126 H126           1.7931     6.2226     8.8524 H       
 127 H127           2.2278     7.1587    10.3027 H       
 128 H128           1.8662     5.4212    10.4401 H       
@<TRIPOS>BOND
   1    1    2 1
   2    1    4 1
   3    1    5 1
   4    1   60 1
   5    2    3 1
   6    2   27 1
   7    2   77 1
   8    3    4 1
   9    3    8 1
  10    3   43 1
  11    4   11 1
  12    4   78 1
  13    5    6 2
  14    5    7 1
  15    7   79 1
  16    8    9 2
  17    8   10 1
  18   10   80 1
  19   11   12 ar
  20   11   16 ar
  21   12   13 ar
  22   12   81 1
  23   13   14 ar
  24   13   25 1
  25   14   15 ar
  26   14   17 1
  27   15   16 ar
  28   15   82 1
  29   16   83 1
  30   17   18 1
  31   18   19 2
  32   18   20 1
  33   20   21 2
  34   20   24 1
  35   21   22 1
  36   21   84 1
  37   22   23 2
  38   22   85 1
  39   23   24 1
  40   23   86 1
  41   25   26 1
  42   26   87 1
  43   26   88 1
  44   26   89 1
  45   27   28 ar
  46   27   32 ar
  47   28   29 ar
  48   28   90 1
  49   29   30 ar
  50   29   41 1
  51   30   31 ar
  52   30   33 1
  53   31   32 ar
  54   31   91 1
  55   32   92 1
  56   33   34 1
  57   34   35 2
  58   34   36 1
  59   36   37 2
  60   36   40 1
  61   37   38 1
  62   37   93 1
  63   38   39 2
  64   38   94 1
  65   39   40 1
  66   39   95 1
  67   41   42 1
  68   42   96 1
  69   42   97 1
  70   42   98 1
  71   43   44 am
  72   43   99 1
  73   44   45 1
  74   44   51 2
  75   45   46 ar
  76   45   50 ar
  77   46   47 ar
  78   46  100 1
  79   47   48 ar
  80   47  101 1
  81   48   49 ar
  82   48   52 1
  83   49   50 ar
  84   49  102 1
  85   50  103 1
  86   52   53 am
  87   52  104 1
  88   53   54 2
  89   53   55 1
  90   55   56 1
  91   56   57 1
  92   56   59 1
  93   56   58 1
  94   57  105 1
  95   57  106 1
  96   57  107 1
  97   58  108 1
  98   58  109 1
  99   58  110 1
 100   59  111 1
 101   59  112 1
 102   59  113 1
 103   60   61 am
 104   60  114 1
 105   61   62 1
 106   61   68 2
 107   62   63 ar
 108   62   67 ar
 109   63   64 ar
 110   63  115 1
 111   64   65 ar
 112   64  116 1
 113   65   66 ar
 114   65   69 1
 115   66   67 ar
 116   66  117 1
 117   67  118 1
 118   69   70 am
 119   69  119 1
 120   70   71 2
 121   70   72 1
 122   72   73 1
 123   73   74 1
 124   73   76 1
 125   73   75 1
 126   74  120 1
 127   74  121 1
 128   74  122 1
 129   75  123 1
 130   75  124 1
 131   75  125 1
 132   76  126 1
 133   76  127 1
 134   76  128 1

#	End of record

