#	Name: ASD00330002
#	Creating user name:	WinNT
#	Creation time:	15. 06. 2019 18:35

#	Modifying user name:	WinNT
#	Modification time:	15. 06. 2019 18:35

#	Program:	/corina/corina34_cracker 3.40 0067  02.08.2006

@<TRIPOS>MOLECULE
ASD00330002
  25   24    0    0    0
SMALL
NO_CHARGES


@<TRIPOS>ATOM
   1 C1            -0.0184     1.5028     0.0103 C.2     
   2 N2             1.3897    -0.4735    -0.0138 N.am    
   3 C3             0.0021    -0.0041     0.0020 C.3     
   4 C4            -0.7002    -0.5305     1.2552 C.3     
   5 C5            -0.7886    -2.0334     1.1876 C.2     
   6 O6            -0.3362    -2.6230     0.2349 O.2     
   7 O7            -1.3698    -2.7171     2.1859 O.3     
   8 O8             1.0197     2.1211     0.0037 O.2     
   9 O9            -1.1898     2.1580     0.0194 O.3     
  10 C10            2.0495    -0.5869    -1.1835 C.2     
  11 C11            3.4770    -1.0698    -1.1997 C.3     
  12 O12            1.4945    -0.3002    -2.2230 O.2     
  13 P13            4.5999     0.3581    -1.3526 P.3     
  14 O14            4.4821     1.2432    -0.0917 O.3     
  15 O15            6.1154    -0.1645    -1.5018 O.3     
  16 O16            4.2150     1.1847    -2.5998 O.2     
  17 H17            1.8336    -0.7028     0.8177 H       
  18 H18           -0.5153    -0.3696    -0.8850 H       
  19 H19           -0.1328    -0.2393     2.1391 H       
  20 H20           -1.7041    -0.1098     1.3130 H       
  21 H21           -1.4028    -3.6796     2.0978 H       
  22 H22           -1.1523     3.1243     0.0245 H       
  23 H23            3.6908    -1.6027    -0.2732 H       
  24 H24            3.6241    -1.7401    -2.0466 H       
  25 H25            6.7688     0.5432    -1.5879 H       
@<TRIPOS>BOND
   1    1    3 1
   2    1    8 2
   3    1    9 1
   4    2   10 am
   5    2    3 1
   6    2   17 1
   7    3    4 1
   8    3   18 1
   9    4    5 1
  10    4   19 1
  11    4   20 1
  12    5    6 2
  13    5    7 1
  14    7   21 1
  15    9   22 1
  16   10   11 1
  17   10   12 2
  18   11   13 1
  19   11   23 1
  20   11   24 1
  21   13   14 1
  22   13   15 1
  23   13   16 2
  24   15   25 1

#	End of record

