#	Name: ASD04590882
#	Creating user name:	WinNT
#	Creation time:	15. 06. 2019 20:51

#	Modifying user name:	WinNT
#	Modification time:	15. 06. 2019 20:51

#	Program:	/corina/corina34_cracker 3.40 0067  02.08.2006

@<TRIPOS>MOLECULE
ASD04590882
  67   72    0    0    0
SMALL
NO_CHARGES


@<TRIPOS>ATOM
   1 N1            -0.0171     1.3229    -0.0118 N.ar    
   2 C2             0.0017    -0.0035    -0.0051 C.ar    
   3 N3             1.1297    -0.6952    -0.0122 N.ar    
   4 C4             2.3048    -0.0728    -0.0266 C.ar    
   5 C5             2.3180     1.3354    -0.0340 C.ar    
   6 C6             1.1079     2.0199    -0.0261 C.ar    
   7 N7             3.6036    -0.5177    -0.0370 N.pl3   
   8 C8             4.4824     0.5537    -0.0512 C.ar    
   9 C9             3.7335     1.7403    -0.0500 C.ar    
  10 C10            5.8713     0.6252    -0.0659 C.ar    
  11 C11            6.4997     1.8521    -0.0787 C.ar    
  12 C12            5.7585     3.0235    -0.0775 C.ar    
  13 C13            4.3811     2.9731    -0.0635 C.ar    
  14 N14           -1.2025    -0.6889     0.0103 N.pl3   
  15 C15           -2.4023     0.0120     0.1313 C.ar    
  16 N16           -2.3785     1.3197     0.3319 N.ar    
  17 C17           -3.4885     2.0231     0.4522 C.ar    
  18 C18           -4.7293     1.4090     0.3721 C.ar    
  19 C19           -4.7939     0.0324     0.1614 C.ar    
  20 C20           -3.6099    -0.6707     0.0340 C.ar    
  21 N21           -5.9023     2.1620     0.5017 N.3     
  22 C22            4.0041    -1.9269    -0.0337 C.3     
  23 C23            3.4041    -2.6438     1.1935 C.3     
  24 C24            3.4411    -2.6379    -1.2768 C.3     
  25 C25            2.5188    -3.7620    -0.7617 C.3     
  26 C26            2.1054    -3.2945     0.6559 C.3     
  27 C27           -5.5953     3.5818     0.7168 C.3     
  28 C28           -6.8897     4.3481     0.9983 C.3     
  29 C29           -7.8414     4.1868    -0.1903 C.3     
  30 C30           -8.1067     2.6968    -0.4231 C.3     
  31 C31           -6.7769     1.9784    -0.6635 C.3     
  32 N32           -9.1084     4.8717     0.0988 N.3     
  33 C33          -10.0023     4.8390    -1.0664 C.3     
  34 C34           -9.7621     4.2929     1.2802 C.3     
  35 H35            1.0863     3.0996    -0.0315 H       
  36 H36            6.4581    -0.2815    -0.0670 H       
  37 H37            7.5785     1.9011    -0.0894 H       
  38 H38            6.2620     3.9789    -0.0876 H       
  39 H39            3.8058     3.8871    -0.0629 H       
  40 H40           -1.2111    -1.6561    -0.0630 H       
  41 H41           -3.4300     3.0891     0.6153 H       
  42 H42           -5.7464    -0.4723     0.0948 H       
  43 H43           -3.6229    -1.7380    -0.1303 H       
  44 H44            5.0911    -2.0058    -0.0186 H       
  45 H45            4.0892    -3.4074     1.5619 H       
  46 H46            3.1736    -1.9254     1.9801 H       
  47 H47            2.8700    -1.9344    -1.8826 H       
  48 H48            4.2549    -3.0626    -1.8646 H       
  49 H49            1.6420    -3.8596    -1.4020 H       
  50 H50            3.0608    -4.7062    -0.7091 H       
  51 H51            1.8149    -4.1444     1.2735 H       
  52 H52            1.3001    -2.5619     0.6016 H       
  53 H53           -4.9211     3.6828     1.5673 H       
  54 H54           -5.1186     3.9893    -0.1747 H       
  55 H55           -7.3599     3.9502     1.8976 H       
  56 H56           -6.6632     5.4045     1.1424 H       
  57 H57           -7.3874     4.6196    -1.0818 H       
  58 H58           -8.5960     2.2729     0.4537 H       
  59 H59           -8.7496     2.5735    -1.2946 H       
  60 H60           -6.2947     2.3935    -1.5485 H       
  61 H61           -6.9610     0.9149    -0.8155 H       
  62 H62          -10.2171     3.8036    -1.3307 H       
  63 H63          -10.9328     5.3529    -0.8251 H       
  64 H64           -9.5204     5.3363    -1.9082 H       
  65 H65           -9.1054     4.3931     2.1444 H       
  66 H66          -10.6976     4.8183     1.4718 H       
  67 H67           -9.9682     3.2376     1.1010 H       
@<TRIPOS>BOND
   1    1    2 ar
   2    1    6 ar
   3    2    3 ar
   4    2   14 1
   5    3    4 ar
   6    4    5 ar
   7    4    7 1
   8    5    6 ar
   9    5    9 1
  10    6   35 1
  11    7    8 1
  12    7   22 1
  13    8    9 ar
  14    8   10 ar
  15    9   13 ar
  16   10   11 ar
  17   10   36 1
  18   11   12 ar
  19   11   37 1
  20   12   13 ar
  21   12   38 1
  22   13   39 1
  23   14   15 1
  24   14   40 1
  25   15   16 ar
  26   15   20 ar
  27   16   17 ar
  28   17   18 ar
  29   17   41 1
  30   18   19 ar
  31   18   21 1
  32   19   20 ar
  33   19   42 1
  34   20   43 1
  35   21   27 1
  36   21   31 1
  37   22   24 1
  38   22   23 1
  39   22   44 1
  40   23   26 1
  41   23   45 1
  42   23   46 1
  43   24   25 1
  44   24   47 1
  45   24   48 1
  46   25   26 1
  47   25   49 1
  48   25   50 1
  49   26   51 1
  50   26   52 1
  51   27   28 1
  52   27   53 1
  53   27   54 1
  54   28   29 1
  55   28   55 1
  56   28   56 1
  57   29   30 1
  58   29   32 1
  59   29   57 1
  60   30   31 1
  61   30   58 1
  62   30   59 1
  63   31   60 1
  64   31   61 1
  65   32   33 1
  66   32   34 1
  67   33   62 1
  68   33   63 1
  69   33   64 1
  70   34   65 1
  71   34   66 1
  72   34   67 1

#	End of record

