#	Name: ASD02508017
#	Creating user name:	WinNT
#	Creation time:	15. 06. 2019 20:23

#	Modifying user name:	WinNT
#	Modification time:	15. 06. 2019 20:23

#	Program:	/corina/corina34_cracker 3.40 0067  02.08.2006

@<TRIPOS>MOLECULE
ASD02508017
  44   46    0    0    0
SMALL
NO_CHARGES


@<TRIPOS>ATOM
   1 C1            -0.0162     1.3468     0.0094 C.ar    
   2 F2             0.0021    -0.0041     0.0020 F       
   3 C3             3.9276     1.9654    -2.3207 C.3     
   4 N4             3.1242     0.9653    -1.6038 N.am    
   5 C5             1.1728     2.0554     0.0019 C.ar    
   6 C6             1.1525     3.4394     0.0096 C.ar    
   7 C7            -0.0570     4.1135     0.0248 C.ar    
   8 C8            -1.2436     3.4049     0.0328 C.ar    
   9 C9            -1.2246     2.0230     0.0189 C.ar    
  10 C10            5.1669     1.2735    -2.9018 C.3     
  11 N11            4.7370     0.0644    -3.6183 N.am    
  12 C12            3.9336    -0.9357    -2.9013 C.3     
  13 C13            2.6943    -0.2438    -2.3203 C.3     
  14 C14            6.6887    -1.0251    -5.2240 C.ar    
  15 C15            6.7071    -2.4078    -5.2310 C.ar    
  16 C16            7.8750    -0.3146    -5.2373 C.ar    
  17 C17            9.0826    -0.9844    -5.2578 C.ar    
  18 C18            9.1047    -2.3733    -5.2650 C.ar    
  19 C19            7.9112    -3.0839    -5.2515 C.ar    
  20 F20            2.3123     4.1323     0.0027 F       
  21 N21           10.3242    -3.0539    -5.2862 N.pl3   
  22 S22            2.7110     1.1963    -0.0169 S.o2    
  23 O23            2.4571    -0.0932     0.5234 O.2     
  24 O24            3.6758     2.0890     0.5231 O.2     
  25 S25            5.1502    -0.1666    -5.2052 S.o2    
  26 O26            4.1857    -1.0596    -5.7450 O.2     
  27 O27            5.4036     1.1230    -5.7456 O.2     
  28 H28            3.3375     2.3979    -3.1287 H       
  29 H29            4.2368     2.7498    -1.6299 H       
  30 H30           -0.0730     5.1934     0.0308 H       
  31 H31           -2.1864     3.9315     0.0450 H       
  32 H32           -2.1524     1.4704     0.0247 H       
  33 H33            5.6722     1.9481    -3.5930 H       
  34 H34            5.8448     0.9983    -2.0939 H       
  35 H35            3.6244    -1.7201    -3.5922 H       
  36 H36            4.5237    -1.3681    -2.0934 H       
  37 H37            2.1890    -0.9183    -1.6291 H       
  38 H38            2.0164     0.0314    -3.1282 H       
  39 H39            5.7788    -2.9596    -5.2202 H       
  40 H40            7.8572     0.7652    -5.2321 H       
  41 H41           10.0088    -0.4289    -5.2686 H       
  42 H42            7.9248    -4.1638    -5.2567 H       
  43 H43           11.1570    -2.5566    -5.2959 H       
  44 H44           10.3384    -4.0237    -5.2912 H       
@<TRIPOS>BOND
   1    1    2 1
   2    1    5 ar
   3    1    9 ar
   4    3    4 1
   5    3   10 1
   6    3   28 1
   7    3   29 1
   8    4   22 am
   9    4   13 1
  10    5    6 ar
  11    5   22 1
  12    6    7 ar
  13    6   20 1
  14    7    8 ar
  15    7   30 1
  16    8    9 ar
  17    8   31 1
  18    9   32 1
  19   10   11 1
  20   10   33 1
  21   10   34 1
  22   11   12 1
  23   11   25 am
  24   12   13 1
  25   12   35 1
  26   12   36 1
  27   13   37 1
  28   13   38 1
  29   14   15 ar
  30   14   16 ar
  31   14   25 1
  32   15   19 ar
  33   15   39 1
  34   16   17 ar
  35   16   40 1
  36   17   18 ar
  37   17   41 1
  38   18   19 ar
  39   18   21 1
  40   19   42 1
  41   21   43 1
  42   21   44 1
  43   22   23 2
  44   22   24 2
  45   25   26 2
  46   25   27 2

#	End of record

