#	Name: ASD04880081
#	Creating user name:	WinNT
#	Creation time:	15. 06. 2019 20:52

#	Modifying user name:	WinNT
#	Modification time:	15. 06. 2019 20:52

#	Program:	/corina/corina34_cracker 3.40 0067  02.08.2006

@<TRIPOS>MOLECULE
ASD04880081
  41   43    0    0    0
SMALL
NO_CHARGES


@<TRIPOS>ATOM
   1 C1            -0.0144     1.2118     0.0087 C.2     
   2 O2             0.0433    -0.0026     0.0316 O.2     
   3 N3             1.1187     1.9394    -0.0484 N.am    
   4 N4             1.1865     3.3238    -0.1914 N.2     
   5 C5             2.3868     3.7917    -0.2204 C.2     
   6 C6             3.3752     2.6554    -0.0860 C.3     
   7 C7             2.4860     1.4022     0.0362 C.3     
   8 C8             2.7416     5.2154    -0.3632 C.ar    
   9 C9             1.7365     6.1796    -0.4799 C.ar    
  10 C10            2.0747     7.5128    -0.6130 C.ar    
  11 C11            3.4152     7.8933    -0.6311 C.ar    
  12 C12            4.4129     6.9368    -0.5158 C.ar    
  13 C13            4.0830     5.6048    -0.3763 C.ar    
  14 O14            3.7458     9.2053    -0.7626 O.3     
  15 C15            5.1384     9.5255    -0.7736 C.3     
  16 O16            1.0993     8.4536    -0.7268 O.3     
  17 C17           -0.2530     7.9924    -0.7009 C.3     
  18 C18           -1.3269     1.8897     0.0374 C.ar    
  19 C19           -2.5034     1.1431    -0.0541 C.ar    
  20 C20           -3.7270     1.7829    -0.0268 C.ar    
  21 C21           -3.7872     3.1637     0.0909 C.ar    
  22 C22           -2.6234     3.9073     0.1819 C.ar    
  23 C23           -1.3957     3.2785     0.1618 C.ar    
  24 F24           -4.8668     1.0630    -0.1152 F       
  25 Br25          -5.4659     4.0336     0.1265 Br      
  26 H26            4.0096     2.5939    -0.9703 H       
  27 H27            3.9804     2.7793     0.8120 H       
  28 H28            2.6454     0.9084     0.9948 H       
  29 H29            2.6798     0.7149    -0.7873 H       
  30 H30            0.6980     5.8833    -0.4664 H       
  31 H31            5.4505     7.2362    -0.5307 H       
  32 H32            4.8619     4.8625    -0.2823 H       
  33 H33            5.6216     9.0167    -1.6077 H       
  34 H34            5.2627    10.6028    -0.8839 H       
  35 H35            5.5932     9.2013     0.1625 H       
  36 H36           -0.4165     7.2997    -1.5264 H       
  37 H37           -0.4455     7.4838     0.2437 H       
  38 H38           -0.9286     8.8420    -0.8003 H       
  39 H39           -2.4566     0.0681    -0.1465 H       
  40 H40           -2.6766     4.9821     0.2733 H       
  41 H41           -0.4890     3.8601     0.2378 H       
@<TRIPOS>BOND
   1    1    2 2
   2    1    3 am
   3    1   18 1
   4    3    4 1
   5    3    7 1
   6    4    5 2
   7    5    6 1
   8    5    8 1
   9    6    7 1
  10    6   26 1
  11    6   27 1
  12    7   28 1
  13    7   29 1
  14    8    9 ar
  15    8   13 ar
  16    9   10 ar
  17    9   30 1
  18   10   11 ar
  19   10   16 1
  20   11   12 ar
  21   11   14 1
  22   12   13 ar
  23   12   31 1
  24   13   32 1
  25   14   15 1
  26   15   33 1
  27   15   34 1
  28   15   35 1
  29   16   17 1
  30   17   36 1
  31   17   37 1
  32   17   38 1
  33   18   19 ar
  34   18   23 ar
  35   19   20 ar
  36   19   39 1
  37   20   21 ar
  38   20   24 1
  39   21   22 ar
  40   21   25 1
  41   22   23 ar
  42   22   40 1
  43   23   41 1

#	End of record

