#	Name: ASD01120124
#	Creating user name:	WinNT
#	Creation time:	15. 06. 2019 18:59

#	Modifying user name:	WinNT
#	Modification time:	15. 06. 2019 18:59

#	Program:	/corina/corina34_cracker 3.40 0067  02.08.2006

@<TRIPOS>MOLECULE
ASD01120124
  31   33    0    0    0
SMALL
NO_CHARGES


@<TRIPOS>ATOM
   1 C1            -0.0173     1.2665    -0.6976 C.ar    
   2 C2             1.0839     1.5910    -1.4686 C.ar    
   3 C3             2.2917     0.9576    -1.2514 C.ar    
   4 C4             2.3998    -0.0062    -0.2567 C.ar    
   5 C5             1.2916    -0.3294     0.5162 C.ar    
   6 C6             0.0868     0.3076     0.2934 C.ar    
   7 N7             3.6204    -0.6495    -0.0345 N.pl3   
   8 C8             4.8073     0.0580    -0.1467 C.2     
   9 N9             5.9964    -0.4566    -0.0787 N.2     
  10 C10            7.0205     0.3763    -0.2090 C.2     
  11 C11            6.6937     1.6666    -0.3978 C.2     
  12 S12            4.9363     1.7943    -0.4113 S.3     
  13 C13            8.4290    -0.0841    -0.1501 C.ar    
  14 C14            8.7176    -1.4377     0.0482 C.ar    
  15 C15           10.0361    -1.8590     0.1020 C.ar    
  16 C16           11.0621    -0.9435    -0.0395 C.ar    
  17 C17           10.7798     0.3967    -0.2359 C.ar    
  18 C18            9.4705     0.8293    -0.2978 C.ar    
  19 O19            7.7083    -2.3367     0.1882 O.3     
  20 H20           -0.9597     1.7663    -0.8668 H       
  21 H21            0.9992     2.3404    -2.2417 H       
  22 H22            3.1511     1.2110    -1.8543 H       
  23 H23            1.3722    -1.0785     1.2901 H       
  24 H24           -0.7751     0.0568     0.8940 H       
  25 H25            3.6371    -1.5910     0.1981 H       
  26 H26            7.3887     2.4837    -0.5235 H       
  27 H27           10.2627    -2.9038     0.2551 H       
  28 H28           12.0888    -1.2758     0.0037 H       
  29 H29           11.5867     1.1062    -0.3453 H       
  30 H30            9.2537     1.8761    -0.4515 H       
  31 H31            7.4101    -2.7262    -0.6452 H       
@<TRIPOS>BOND
   1    1    2 ar
   2    1    6 ar
   3    1   20 1
   4    2    3 ar
   5    2   21 1
   6    3    4 ar
   7    3   22 1
   8    4    5 ar
   9    4    7 1
  10    5    6 ar
  11    5   23 1
  12    6   24 1
  13    7    8 1
  14    7   25 1
  15    8    9 2
  16    8   12 1
  17    9   10 1
  18   10   11 2
  19   10   13 1
  20   11   12 1
  21   11   26 1
  22   13   14 ar
  23   13   18 ar
  24   14   15 ar
  25   14   19 1
  26   15   16 ar
  27   15   27 1
  28   16   17 ar
  29   16   28 1
  30   17   18 ar
  31   17   29 1
  32   18   30 1
  33   19   31 1

#	End of record

