#	Name: ASD01230783
#	Creating user name:	WinNT
#	Creation time:	15. 06. 2019 19:15

#	Modifying user name:	WinNT
#	Modification time:	15. 06. 2019 19:15

#	Program:	/corina/corina34_cracker 3.40 0067  02.08.2006

@<TRIPOS>MOLECULE
ASD01230783
  47   49    0    0    0
SMALL
NO_CHARGES


@<TRIPOS>ATOM
   1 S1             2.9955    -5.3726    -1.2732 S.o2    
   2 N2             1.8357    -4.2915    -0.8002 N.am    
   3 C3             2.0233    -2.9979    -0.8531 C.2     
   4 N4             3.1613    -2.3769    -1.2891 N.pl3   
   5 C5             4.3732    -3.0883    -1.7044 C.3     
   6 C6             4.0123    -4.3922    -2.4221 C.3     
   7 C7             0.8910    -2.1600    -0.3971 C.2     
   8 C8             1.0072    -0.7797    -0.4625 C.2     
   9 C9             2.1897    -0.2246    -0.9541 C.2     
  10 C10            3.2110    -1.0115    -1.3487 C.2     
  11 C11           -0.3368    -2.7812     0.1163 C.2     
  12 O12           -0.4677    -3.9905     0.0803 O.2     
  13 N13           -1.3185    -2.0120     0.6272 N.am    
  14 N14           -2.5322    -2.5928     1.0174 N.am    
  15 C15           -3.5139    -1.8236     1.5283 C.2     
  16 O16           -3.3462    -0.6259     1.6506 O.2     
  17 C17           -4.7948    -2.4365     1.9401 C.ar    
  18 C18           -5.8134    -1.6428     2.4696 C.ar    
  19 C19           -7.0062    -2.2210     2.8519 C.ar    
  20 C20           -7.1939    -3.5846     2.7114 C.ar    
  21 C21           -6.1881    -4.3771     2.1872 C.ar    
  22 C22           -4.9927    -3.8106     1.7957 C.ar    
  23 C23           -8.4993    -4.2094     3.1316 C.3     
  24 C24           -9.1517    -4.8877     1.9252 C.3     
  25 C25           -8.2388    -5.2500     4.2225 C.3     
  26 O26            3.7175    -5.6653    -0.0848 O.2     
  27 O27            2.2796    -6.3832    -1.9699 O.2     
  28 H28            4.9490    -2.4543    -2.3786 H       
  29 H29            4.9752    -3.3168    -0.8249 H       
  30 H30            4.9199    -4.9403    -2.6753 H       
  31 H31            3.4447    -4.1737    -3.3266 H       
  32 H32            0.1958    -0.1447    -0.1388 H       
  33 H33            2.2878     0.8489    -1.0194 H       
  34 H34            4.1072    -0.5432    -1.7281 H       
  35 H35           -1.1846    -1.0563     0.7248 H       
  36 H36           -2.6661    -3.5486     0.9198 H       
  37 H37           -5.6681    -0.5783     2.5801 H       
  38 H38           -7.7951    -1.6080     3.2621 H       
  39 H39           -6.3409    -5.4409     2.0801 H       
  40 H40           -4.2102    -4.4296     1.3822 H       
  41 H41           -9.1642    -3.4369     3.5177 H       
  42 H42           -8.4867    -5.6602     1.5391 H       
  43 H43          -10.0959    -5.3396     2.2291 H       
  44 H44           -9.3373    -4.1463     1.1480 H       
  45 H45           -7.7740    -4.7668     5.0820 H       
  46 H46           -9.1829    -5.7019     4.5265 H       
  47 H47           -7.5738    -6.0226     3.8364 H       
@<TRIPOS>BOND
   1    1    2 am
   2    1    6 1
   3    1   26 2
   4    1   27 2
   5    2    3 2
   6    3    4 1
   7    3    7 1
   8    4    5 1
   9    4   10 1
  10    5    6 1
  11    5   28 1
  12    5   29 1
  13    6   30 1
  14    6   31 1
  15    7    8 2
  16    7   11 1
  17    8    9 1
  18    8   32 1
  19    9   10 2
  20    9   33 1
  21   10   34 1
  22   11   12 2
  23   11   13 am
  24   13   14 1
  25   13   35 1
  26   14   15 am
  27   14   36 1
  28   15   16 2
  29   15   17 1
  30   17   18 ar
  31   17   22 ar
  32   18   19 ar
  33   18   37 1
  34   19   20 ar
  35   19   38 1
  36   20   21 ar
  37   20   23 1
  38   21   22 ar
  39   21   39 1
  40   22   40 1
  41   23   24 1
  42   23   25 1
  43   23   41 1
  44   24   42 1
  45   24   43 1
  46   24   44 1
  47   25   45 1
  48   25   46 1
  49   25   47 1

#	End of record

