#	Name: ASD04880087
#	Creating user name:	WinNT
#	Creation time:	15. 06. 2019 20:52

#	Modifying user name:	WinNT
#	Modification time:	15. 06. 2019 20:52

#	Program:	/corina/corina34_cracker 3.40 0067  02.08.2006

@<TRIPOS>MOLECULE
ASD04880087
  41   43    0    0    0
SMALL
NO_CHARGES


@<TRIPOS>ATOM
   1 C1            -0.0144     1.2119     0.0087 C.2     
   2 O2             0.0576    -0.0018    -0.0141 O.2     
   3 C3             1.2178     2.0254    -0.0194 C.ar    
   4 C4             2.4674     1.4081     0.0724 C.ar    
   5 C5             3.6142     2.1722     0.0457 C.ar    
   6 C6             3.5290     3.5512    -0.0721 C.ar    
   7 C7             2.2911     4.1692    -0.1631 C.ar    
   8 C8             1.1380     3.4143    -0.1437 C.ar    
   9 F9             4.6563     4.2954    -0.0977 F       
  10 N10           -1.2190     1.8148     0.0541 N.am    
  11 N11           -1.4352     3.1839     0.1959 N.2     
  12 C12           -2.6787     3.5215     0.2126 C.2     
  13 C13           -3.5392     2.2866     0.0683 C.3     
  14 C14           -2.5205     1.1352    -0.0445 C.3     
  15 C15           -3.1844     4.8992     0.3513 C.ar    
  16 C16           -2.2888     5.9648     0.4781 C.ar    
  17 C17           -2.7683     7.2543     0.6074 C.ar    
  18 C18           -4.1417     7.4901     0.6117 C.ar    
  19 C19           -5.0308     6.4330     0.4859 C.ar    
  20 C20           -4.5597     5.1437     0.3507 C.ar    
  21 O21           -4.6113     8.7593     0.7399 O.3     
  22 C22           -6.0302     8.9295     0.7365 C.3     
  23 O23           -1.8997     8.2935     0.7310 O.3     
  24 C24           -0.5058     7.9788     0.7191 C.3     
  25 H25            2.5348     0.3342     0.1645 H       
  26 H26            4.5809     1.6961     0.1169 H       
  27 H27            2.2305     5.2436    -0.2543 H       
  28 H28            0.1745     3.8962    -0.2195 H       
  29 H29           -4.1724     2.1572     0.9461 H       
  30 H30           -4.1450     2.3462    -0.8359 H       
  31 H31           -2.6167     0.6281    -1.0046 H       
  32 H32           -2.6484     0.4305     0.7772 H       
  33 H33           -1.2246     5.7807     0.4754 H       
  34 H34           -6.0944     6.6203     0.4901 H       
  35 H35           -5.2541     4.3229     0.2488 H       
  36 H36           -6.4382     8.5599    -0.2042 H       
  37 H37           -6.4651     8.3712     1.5655 H       
  38 H38           -6.2695     9.9873     0.8457 H       
  39 H39           -0.2780     7.3067     1.5464 H       
  40 H40           -0.2507     7.4943    -0.2234 H       
  41 H41            0.0745     8.8954     0.8252 H       
@<TRIPOS>BOND
   1    1    2 2
   2    1    3 1
   3    1   10 am
   4    3    4 ar
   5    3    8 ar
   6    4    5 ar
   7    4   25 1
   8    5    6 ar
   9    5   26 1
  10    6    7 ar
  11    6    9 1
  12    7    8 ar
  13    7   27 1
  14    8   28 1
  15   10   11 1
  16   10   14 1
  17   11   12 2
  18   12   13 1
  19   12   15 1
  20   13   14 1
  21   13   29 1
  22   13   30 1
  23   14   31 1
  24   14   32 1
  25   15   16 ar
  26   15   20 ar
  27   16   17 ar
  28   16   33 1
  29   17   18 ar
  30   17   23 1
  31   18   19 ar
  32   18   21 1
  33   19   20 ar
  34   19   34 1
  35   20   35 1
  36   21   22 1
  37   22   36 1
  38   22   37 1
  39   22   38 1
  40   23   24 1
  41   24   39 1
  42   24   40 1
  43   24   41 1

#	End of record

