#	Name: ASD01209098
#	Creating user name:	WinNT
#	Creation time:	15. 06. 2019 19:10

#	Modifying user name:	WinNT
#	Modification time:	15. 06. 2019 19:10

#	Program:	/corina/corina34_cracker 3.40 0067  02.08.2006

@<TRIPOS>MOLECULE
ASD01209098
  67   69    0    0    0
SMALL
NO_CHARGES


@<TRIPOS>ATOM
   1 C1            -0.7505     1.8927     0.0079 C.3     
   2 C2             1.9130    -0.8486    -3.6350 C.ar    
   3 S3            -0.5763     0.0872     0.0281 S.o2    
   4 O4             0.2370    -0.3231     1.1187 O.2     
   5 O5            -1.8266    -0.5373    -0.2290 O.2     
   6 C6             2.7418    -1.1601    -4.8545 C.3     
   7 C7             2.4775    -0.1266    -5.9189 C.2     
   8 N8             3.1997    -0.1312    -7.0568 N.am    
   9 O9             1.6148     0.7094    -5.7516 O.2     
  10 C10            2.3678    -2.5456    -5.3849 C.3     
  11 C11            2.7535    -3.6078    -4.3535 C.3     
  12 C12            2.2527    -4.9900    -4.8077 C.3     
  13 C13            3.5015    -5.8825    -4.9620 C.3     
  14 C14            4.5576    -5.2201    -4.0427 C.3     
  15 C15            4.2893    -3.7085    -4.2476 C.3     
  16 C16            2.5315    -0.6017    -2.4236 C.ar    
  17 C17            1.7713    -0.3163    -1.3049 C.ar    
  18 C18            0.3927    -0.2771    -1.3977 C.ar    
  19 C19           -0.2258    -0.5240    -2.6091 C.ar    
  20 C20            0.5346    -0.8042    -3.7290 C.ar    
  21 C21            2.8869     0.7537    -8.0821 C.2     
  22 N22            1.9246     1.6214    -8.0462 N.2     
  23 P23            3.7904     4.3221   -11.2754 P.3     
  24 O24            5.1177     3.8931   -10.7808 O.2     
  25 O25            3.1490     5.3787   -10.2437 O.3     
  26 O26            3.9539     5.0140   -12.7199 O.3     
  27 C27            4.8328     6.1148   -12.9606 C.3     
  28 C28            4.7450     6.5253   -14.4319 C.3     
  29 C29            1.7689     2.3854    -9.1112 C.2     
  30 C30            2.6412     2.1521   -10.0937 C.2     
  31 S31            3.7201     0.8611    -9.5712 S.3     
  32 C32            2.6966     2.8706   -11.4172 C.3     
  33 C33            3.8178     6.5746    -9.8382 C.3     
  34 C34            2.9329     7.3462    -8.8572 C.3     
  35 H35            0.2361     2.3535     0.0578 H       
  36 H36           -1.2486     2.1994    -0.9118 H       
  37 H37           -1.3435     2.2102     0.8656 H       
  38 H38            3.7988    -1.1459    -4.5888 H       
  39 H39            3.9378    -0.7520    -7.1602 H       
  40 H40            1.2937    -2.5878    -5.5656 H       
  41 H41            2.9007    -2.7339    -6.3170 H       
  42 H42            2.3272    -3.3569    -3.3822 H       
  43 H43            1.5840    -5.4103    -4.0564 H       
  44 H44            1.7348    -4.9041    -5.7629 H       
  45 H45            3.2883    -6.8980    -4.6282 H       
  46 H46            3.8438    -5.8840    -5.9968 H       
  47 H47            4.3965    -5.5036    -3.0026 H       
  48 H48            5.5664    -5.4803    -4.3632 H       
  49 H49            4.7588    -3.3589    -5.1671 H       
  50 H50            4.6510    -3.1375    -3.3925 H       
  51 H51            3.6087    -0.6323    -2.3511 H       
  52 H52            2.2545    -0.1241    -0.3583 H       
  53 H53           -1.3030    -0.4937    -2.6815 H       
  54 H54            0.0514    -0.9971    -4.6754 H       
  55 H55            4.5426     6.9558   -12.3308 H       
  56 H56            5.8558     5.8211   -12.7257 H       
  57 H57            5.4154     7.3650   -14.6154 H       
  58 H58            5.0352     5.6843   -15.0616 H       
  59 H59            3.7220     6.8191   -14.6667 H       
  60 H60            0.9978     3.1383    -9.1817 H       
  61 H61            1.6945     3.1967   -11.6959 H       
  62 H62            3.0847     2.1964   -12.1807 H       
  63 H63            4.7596     6.3177    -9.3533 H       
  64 H64            4.0166     7.1941   -10.7127 H       
  65 H65            2.7341     6.7267    -7.9826 H       
  66 H66            3.4430     8.2584    -8.5478 H       
  67 H67            1.9911     7.6031    -9.3421 H       
@<TRIPOS>BOND
   1    1    3 1
   2    1   35 1
   3    1   36 1
   4    1   37 1
   5    2    6 1
   6    2   16 ar
   7    2   20 ar
   8    3    4 2
   9    3    5 2
  10    3   18 1
  11    6    7 1
  12    6   10 1
  13    6   38 1
  14    7    8 am
  15    7    9 2
  16    8   21 1
  17    8   39 1
  18   10   11 1
  19   10   40 1
  20   10   41 1
  21   11   12 1
  22   11   15 1
  23   11   42 1
  24   12   13 1
  25   12   43 1
  26   12   44 1
  27   13   14 1
  28   13   45 1
  29   13   46 1
  30   14   15 1
  31   14   47 1
  32   14   48 1
  33   15   49 1
  34   15   50 1
  35   16   17 ar
  36   16   51 1
  37   17   18 ar
  38   17   52 1
  39   18   19 ar
  40   19   20 ar
  41   19   53 1
  42   20   54 1
  43   21   22 2
  44   21   31 1
  45   22   29 1
  46   23   24 2
  47   23   25 1
  48   23   26 1
  49   23   32 1
  50   25   33 1
  51   26   27 1
  52   27   28 1
  53   27   55 1
  54   27   56 1
  55   28   57 1
  56   28   58 1
  57   28   59 1
  58   29   30 2
  59   29   60 1
  60   30   31 1
  61   30   32 1
  62   32   61 1
  63   32   62 1
  64   33   34 1
  65   33   63 1
  66   33   64 1
  67   34   65 1
  68   34   66 1
  69   34   67 1

#	End of record

