#	Name: ASD01708040
#	Creating user name:	WinNT
#	Creation time:	15. 06. 2019 19:22

#	Modifying user name:	WinNT
#	Modification time:	15. 06. 2019 19:22

#	Program:	/corina/corina34_cracker 3.40 0067  02.08.2006

@<TRIPOS>MOLECULE
ASD01708040
  66   70    0    0    0
SMALL
NO_CHARGES


@<TRIPOS>ATOM
   1 C1            -0.0162     1.3436     0.0094 C.2     
   2 N2             0.0384     0.0735    -0.4382 N.am    
   3 O3             0.9946     1.8937     0.4025 O.2     
   4 C4             1.3215    -0.6354    -0.5767 C.3     
   5 C5            -1.1783    -0.6605    -0.8014 C.3     
   6 C6            -1.1173    -2.0577    -0.2353 C.ar    
   7 C7             0.0363    -2.5830     0.3056 C.ar    
   8 C8             1.3170    -1.8088     0.4015 C.3     
   9 C9            -2.2789    -2.8199    -0.2742 C.ar    
  10 C10           -2.2939    -4.1069     0.2176 C.ar    
  11 C11           -1.1264    -4.6508     0.7605 C.ar    
  12 C12            0.0349    -3.8805     0.8002 C.ar    
  13 Cl13           1.4896    -4.5484     1.4722 Cl      
  14 Cl14          -3.7528    -5.0462     0.1638 Cl      
  15 C15           -1.1230    -6.0303     1.2879 C.2     
  16 N16           -1.4241    -6.2579     2.5817 N.am    
  17 O17           -0.8487    -6.9606     0.5549 O.2     
  18 C18           -1.4207    -7.6263     3.1049 C.3     
  19 C19           -2.7545    -8.2721     2.8309 C.2     
  20 O20           -2.9820    -9.5352     3.2238 O.3     
  21 O21           -3.6191    -7.6528     2.2575 O.2     
  22 C22           -1.2998     2.0677     0.0169 C.ar    
  23 C23           -1.1697    -7.5949     4.6138 C.3     
  24 C24            0.2143    -7.0623     4.8818 C.ar    
  25 C25            0.4112    -5.7047     5.0544 C.ar    
  26 C26           -2.1666     1.9745    -1.0693 C.ar    
  27 C27           -3.3703     2.6558    -1.0594 C.ar    
  28 C28           -3.7341     3.4355     0.0197 C.ar    
  29 C29           -2.8905     3.5481     1.1190 C.ar    
  30 C30           -1.6657     2.8572     1.1261 C.ar    
  31 N31           -2.9769     4.2326     2.3118 N.pl3   
  32 C32           -1.8579     4.0033     3.0600 C.2     
  33 C33           -1.0259     3.1784     2.3985 C.2     
  34 C34            1.2860    -7.9315     4.9606 C.ar    
  35 C35            2.5558    -7.4429     5.2065 C.ar    
  36 C36            2.7535    -6.0851     5.3730 C.ar    
  37 C37            1.6806    -5.2162     5.3001 C.ar    
  38 S38            3.9218    -8.5511     5.3081 S.o2    
  39 O39            4.8592    -7.8768     6.1363 O.2     
  40 O40            3.3430    -9.7848     5.7107 O.2     
  41 C41            4.5410    -8.6636     3.6068 C.3     
  42 H42            1.4303    -1.0054    -1.5962 H       
  43 H43            2.1435     0.0399    -0.3390 H       
  44 H44           -2.0483    -0.1431    -0.3970 H       
  45 H45           -1.2602    -0.7124    -1.8870 H       
  46 H46            2.1526    -2.4678     0.1660 H       
  47 H47            1.4334    -1.4331     1.4181 H       
  48 H48           -3.1801    -2.3985    -0.6945 H       
  49 H49           -1.6429    -5.5156     3.1666 H       
  50 H50           -0.6324    -8.1998     2.6172 H       
  51 H51           -3.8526    -9.9066     3.0258 H       
  52 H52           -1.9064    -6.9488     5.0913 H       
  53 H53           -1.2552    -8.6038     5.0174 H       
  54 H54           -0.4269    -5.0259     4.9968 H       
  55 H55           -1.8978     1.3688    -1.9222 H       
  56 H56           -4.0342     2.5768    -1.9075 H       
  57 H57           -4.6778     3.9607     0.0099 H       
  58 H58           -3.7214     4.7937     2.5798 H       
  59 H59           -1.6701     4.4197     4.0387 H       
  60 H60           -0.0664     2.8221     2.7430 H       
  61 H61            1.1315    -8.9924     4.8305 H       
  62 H62            3.7453    -5.7034     5.5654 H       
  63 H63            1.8351    -4.1553     5.4302 H       
  64 H64            4.8443    -7.6743     3.2643 H       
  65 H65            5.3974    -9.3372     3.5756 H       
  66 H66            3.7534    -9.0470     2.9581 H       
@<TRIPOS>BOND
   1    1    2 am
   2    1    3 2
   3    1   22 1
   4    2    4 1
   5    2    5 1
   6    4    8 1
   7    4   42 1
   8    4   43 1
   9    5    6 1
  10    5   44 1
  11    5   45 1
  12    6    7 ar
  13    6    9 ar
  14    7    8 1
  15    7   12 ar
  16    8   46 1
  17    8   47 1
  18    9   10 ar
  19    9   48 1
  20   10   11 ar
  21   10   14 1
  22   11   12 ar
  23   11   15 1
  24   12   13 1
  25   15   16 am
  26   15   17 2
  27   16   18 1
  28   16   49 1
  29   18   19 1
  30   18   23 1
  31   18   50 1
  32   19   20 1
  33   19   21 2
  34   20   51 1
  35   22   26 ar
  36   22   30 ar
  37   23   24 1
  38   23   52 1
  39   23   53 1
  40   24   25 ar
  41   24   34 ar
  42   25   37 ar
  43   25   54 1
  44   26   27 ar
  45   26   55 1
  46   27   28 ar
  47   27   56 1
  48   28   29 ar
  49   28   57 1
  50   29   30 ar
  51   29   31 1
  52   30   33 1
  53   31   32 1
  54   31   58 1
  55   32   33 2
  56   32   59 1
  57   33   60 1
  58   34   35 ar
  59   34   61 1
  60   35   36 ar
  61   35   38 1
  62   36   37 ar
  63   36   62 1
  64   37   63 1
  65   38   39 2
  66   38   40 2
  67   38   41 1
  68   41   64 1
  69   41   65 1
  70   41   66 1

#	End of record

