#	Name: ASD01901343
#	Creating user name:	WinNT
#	Creation time:	15. 06. 2019 19:53

#	Modifying user name:	WinNT
#	Modification time:	15. 06. 2019 19:53

#	Program:	/corina/corina34_cracker 3.40 0067  02.08.2006

@<TRIPOS>MOLECULE
ASD01901343
  40   43    0    0    0
SMALL
NO_CHARGES


@<TRIPOS>ATOM
   1 C1            -0.0169     1.3939     0.0097 C.ar    
   2 C2             1.1912     2.0671     0.0018 C.ar    
   3 C3             2.3717     1.3403    -0.0134 C.ar    
   4 N4             2.3566     0.0199    -0.0208 N.ar    
   5 C5             1.2287    -0.6621    -0.0137 C.ar    
   6 C6             0.0021    -0.0041     0.0020 C.ar    
   7 C7            -1.2664    -0.7749     0.0105 C.2     
   8 N8            -3.1699    -1.5573    -1.1467 N.2     
   9 C9            -2.0504    -0.8760    -1.1593 C.2     
  10 C10           -1.6890    -1.4014     1.1493 C.2     
  11 N11           -2.8590    -2.1011     1.1227 N.pl3   
  12 C12           -3.5951    -2.1709    -0.0321 C.2     
  13 C13           -3.5316    -2.8183     2.0750 C.2     
  14 C14           -4.6476    -3.3040     1.4911 C.2     
  15 N15           -4.6719    -2.9025     0.2168 N.2     
  16 C16           -5.6926    -4.1559     2.1645 C.3     
  17 O17           -5.3225    -4.3754     3.5272 O.3     
  18 C18           -6.1641    -5.1304     4.2812 C.ar    
  19 C19           -7.3195    -5.6541     3.7195 C.ar    
  20 C20           -5.8664    -5.3836     5.6123 C.ar    
  21 C21           -6.7236    -6.1513     6.3766 C.ar    
  22 C22           -7.8771    -6.6677     5.8159 C.ar    
  23 C23           -8.1734    -6.4212     4.4880 C.ar    
  24 F24            3.5549     1.9925    -0.0212 F       
  25 C25           -1.3212     2.1485     0.0324 C.3     
  26 H26            1.2147     3.1468     0.0070 H       
  27 H27            1.2565    -1.7417    -0.0201 H       
  28 H28           -1.7266    -0.3898    -2.0677 H       
  29 H29           -1.1051    -1.3435     2.0560 H       
  30 H30           -3.2267    -2.9678     3.1003 H       
  31 H31           -6.6557    -3.6468     2.1271 H       
  32 H32           -5.7676    -5.1136     1.6496 H       
  33 H33           -7.5513    -5.4619     2.6823 H       
  34 H34           -4.9651    -4.9810     6.0506 H       
  35 H35           -6.4923    -6.3487     7.4130 H       
  36 H36           -8.5456    -7.2683     6.4149 H       
  37 H37           -9.0729    -6.8291     4.0512 H       
  38 H38           -1.6209     2.3249     1.0654 H       
  39 H39           -1.1974     3.1035    -0.4782 H       
  40 H40           -2.0886     1.5627    -0.4736 H       
@<TRIPOS>BOND
   1    1    6 ar
   2    1    2 ar
   3    1   25 1
   4    2    3 ar
   5    2   26 1
   6    3    4 ar
   7    3   24 1
   8    4    5 ar
   9    5    6 ar
  10    5   27 1
  11    6    7 1
  12    7   10 2
  13    7    9 1
  14    8    9 2
  15    8   12 1
  16    9   28 1
  17   10   11 1
  18   10   29 1
  19   11   13 1
  20   11   12 1
  21   12   15 2
  22   13   14 2
  23   13   30 1
  24   14   15 1
  25   14   16 1
  26   16   17 1
  27   16   31 1
  28   16   32 1
  29   17   18 1
  30   18   20 ar
  31   18   19 ar
  32   19   23 ar
  33   19   33 1
  34   20   21 ar
  35   20   34 1
  36   21   22 ar
  37   21   35 1
  38   22   23 ar
  39   22   36 1
  40   23   37 1
  41   25   38 1
  42   25   39 1
  43   25   40 1

#	End of record

