#	Name: ASD09380008
#	Creating user name:	WinNT
#	Creation time:	15. 06. 2019 21:21

#	Modifying user name:	WinNT
#	Modification time:	15. 06. 2019 21:21

#	Program:	/corina/corina34_cracker 3.40 0067  02.08.2006

@<TRIPOS>MOLECULE
ASD09380008
  91   96    0    0    0
SMALL
NO_CHARGES


@<TRIPOS>ATOM
   1 O1             2.5209    -1.6409    -6.9591 O.2     
   2 C2             1.6865     0.1756    -4.9537 C.ar    
   3 O3             2.7303    -0.6134    -8.9043 O.3     
   4 C4             2.8131    -0.6371    -7.5648 C.2     
   5 C5             5.2192     1.8020    -4.6795 C.3     
   6 N6            -3.8815    -5.2554    -1.5773 N.3     
   7 C7             3.2705     0.5883    -6.8164 C.3     
   8 C8             3.1405     0.3449    -5.3115 C.3     
   9 C9             3.7174     1.5399    -4.5498 C.3     
  10 C10            4.6500     1.2444    -3.3734 C.3     
  11 O11           -2.2139    -7.3262    -1.7830 O.2     
  12 C12           -2.8177    -7.7860    -0.8324 C.2     
  13 N13           -2.1852    -8.5956     0.0399 N.am    
  14 C14           -2.9528    -9.3194     1.0564 C.3     
  15 C15           -3.2942   -10.7177     0.5379 C.3     
  16 C16           -2.0349   -11.5866     0.5471 C.3     
  17 C17           -4.3569   -11.3503     1.4387 C.3     
  18 C18           -3.8322   -10.6147    -0.8907 C.3     
  19 C19           -0.8015    -8.7441    -0.0249 C.ar    
  20 N20           -0.2150    -9.7234     0.6452 N.ar    
  21 C21            1.0916    -9.9025     0.6067 C.ar    
  22 C22            1.7107   -11.0330     1.3875 C.3     
  23 C23            1.8989    -9.0679    -0.1401 C.ar    
  24 C24            1.3228    -8.0282    -0.8579 C.ar    
  25 C25           -0.0498    -7.8658    -0.7977 C.ar    
  26 C26           -4.2387    -7.4583    -0.6349 C.ar    
  27 C27           -5.1035    -8.3976    -0.0637 C.ar    
  28 C28           -6.4215    -8.0924     0.1195 C.ar    
  29 C29           -6.9161    -6.8472    -0.2592 C.ar    
  30 O30           -8.2284    -6.5562    -0.0717 O.3     
  31 C31           -9.0406    -7.5733     0.5182 C.3     
  32 C32           -6.0745    -5.9035    -0.8269 C.ar    
  33 C33           -4.7319    -6.1981    -1.0140 C.ar    
  34 C34           -3.8339    -4.0354    -0.7614 C.3     
  35 C35           -2.7819    -3.0805    -1.3302 C.3     
  36 C36           -4.2721    -4.9543    -2.9605 C.3     
  37 C37           -3.2332    -4.0268    -3.5949 C.3     
  38 C38           -3.1426    -2.7351    -2.7776 C.3     
  39 C39           -2.0784    -1.8427    -3.3626 C.2     
  40 O40           -0.7798    -2.1698    -3.4819 O.3     
  41 C41           -0.0799    -1.1632    -4.0433 C.ar    
  42 C42            1.2587    -1.0005    -4.3755 C.ar    
  43 C43           -2.2895    -0.6084    -3.8395 C.2     
  44 C44           -0.9850    -0.1202    -4.3027 C.ar    
  45 C45           -0.5374     1.0686    -4.8767 C.ar    
  46 C46            0.7934     1.2072    -5.2043 C.ar    
  47 H47            2.4320    -1.4235    -9.3401 H       
  48 H48            5.7962     1.1231    -5.3074 H       
  49 H49            5.5506     2.8404    -4.6813 H       
  50 H50            4.3118     0.7966    -7.0622 H       
  51 H51            2.6525     1.4398    -7.1014 H       
  52 H52            3.6887    -0.5575    -5.0407 H       
  53 H53            3.0608     2.4058    -4.4663 H       
  54 H54            4.8525     0.1986    -3.1421 H       
  55 H55            4.6068     1.9159    -2.5159 H       
  56 H56           -2.3601    -9.4042     1.9672 H       
  57 H57           -3.8734    -8.7767     1.2712 H       
  58 H58           -1.6516   -11.6600     1.5649 H       
  59 H59           -2.2781   -12.5829     0.1777 H       
  60 H60           -1.2778   -11.1360    -0.0946 H       
  61 H61           -3.9736   -11.4237     2.4564 H       
  62 H62           -5.2540   -10.7313     1.4321 H       
  63 H63           -4.6001   -12.3465     1.0693 H       
  64 H64           -3.7695   -11.5898    -1.3738 H       
  65 H65           -4.8719   -10.2883    -0.8647 H       
  66 H66           -3.2386    -9.8926    -1.4513 H       
  67 H67            1.9693   -10.6850     2.3876 H       
  68 H68            0.9994   -11.8556     1.4617 H       
  69 H69            2.6111   -11.3761     0.8781 H       
  70 H70            2.9676    -9.2218    -0.1655 H       
  71 H71            1.9324    -7.3613    -1.4494 H       
  72 H72           -0.5313    -7.0702    -1.3468 H       
  73 H73           -4.7282    -9.3660     0.2326 H       
  74 H74           -7.0848    -8.8216     0.5608 H       
  75 H75           -8.6516    -7.8216     1.5057 H       
  76 H76          -10.0647    -7.2119     0.6114 H       
  77 H77           -9.0249    -8.4621    -0.1125 H       
  78 H78           -6.4625    -4.9388    -1.1191 H       
  79 H79           -4.8100    -3.5506    -0.7757 H       
  80 H80           -3.5721    -4.2946     0.2645 H       
  81 H81           -2.7577    -2.1686    -0.7336 H       
  82 H82           -1.8030    -3.5593    -1.3028 H       
  83 H83           -4.3288    -5.8808    -3.5318 H       
  84 H84           -5.2461    -4.4650    -2.9645 H       
  85 H85           -2.2616    -4.5207    -3.6038 H       
  86 H86           -3.5312    -3.7915    -4.6167 H       
  87 H87           -4.1035    -2.2212    -2.8009 H       
  88 H88            1.9640    -1.7950    -4.1815 H       
  89 H89           -3.2303    -0.0794    -3.8762 H       
  90 H90           -1.2324     1.8708    -5.0764 H       
  91 H91            1.1431     2.1229    -5.6578 H       
@<TRIPOS>BOND
   1    1    4 2
   2    2   42 ar
   3    2    8 1
   4    2   46 ar
   5    3   47 1
   6    3    4 1
   7    4    7 1
   8    5    9 1
   9    5   10 1
  10    5   48 1
  11    5   49 1
  12    6   33 1
  13    6   34 1
  14    6   36 1
  15    7    8 1
  16    7   50 1
  17    7   51 1
  18    8   52 1
  19    8    9 1
  20    9   10 1
  21    9   53 1
  22   10   54 1
  23   10   55 1
  24   11   12 2
  25   12   26 1
  26   12   13 am
  27   13   14 1
  28   13   19 1
  29   14   56 1
  30   14   57 1
  31   14   15 1
  32   15   16 1
  33   15   17 1
  34   15   18 1
  35   16   58 1
  36   16   59 1
  37   16   60 1
  38   17   61 1
  39   17   62 1
  40   17   63 1
  41   18   64 1
  42   18   65 1
  43   18   66 1
  44   19   25 ar
  45   19   20 ar
  46   20   21 ar
  47   21   23 ar
  48   21   22 1
  49   22   67 1
  50   22   68 1
  51   22   69 1
  52   23   24 ar
  53   23   70 1
  54   24   25 ar
  55   24   71 1
  56   25   72 1
  57   26   27 ar
  58   26   33 ar
  59   27   28 ar
  60   27   73 1
  61   28   74 1
  62   28   29 ar
  63   29   30 1
  64   29   32 ar
  65   30   31 1
  66   31   75 1
  67   31   76 1
  68   31   77 1
  69   32   78 1
  70   32   33 ar
  71   34   79 1
  72   34   80 1
  73   34   35 1
  74   35   81 1
  75   35   82 1
  76   35   38 1
  77   36   83 1
  78   36   84 1
  79   36   37 1
  80   37   85 1
  81   37   86 1
  82   37   38 1
  83   38   87 1
  84   38   39 1
  85   39   40 1
  86   39   43 2
  87   40   41 1
  88   41   42 ar
  89   41   44 ar
  90   42   88 1
  91   43   89 1
  92   43   44 1
  93   44   45 ar
  94   45   90 1
  95   45   46 ar
  96   46   91 1

#	End of record

