#	Name: ASD04640013
#	Creating user name:	WinNT
#	Creation time:	15. 06. 2019 20:52

#	Modifying user name:	WinNT
#	Modification time:	15. 06. 2019 20:52

#	Program:	/corina/corina34_cracker 3.40 0067  02.08.2006

@<TRIPOS>MOLECULE
ASD04640013
  40   42    0    0    0
SMALL
NO_CHARGES


@<TRIPOS>ATOM
   1 C1            -0.0180     1.4730     0.0101 C.ar    
   2 C2             0.0021    -0.0041     0.0020 C.2     
   3 O3            -1.0424    -0.6262     0.0086 O.2     
   4 N4             1.1783    -0.6620    -0.0127 N.am    
   5 C5             1.1981    -2.1268    -0.0208 C.3     
   6 C6             2.6473    -2.6171    -0.0373 C.3     
   7 C7             2.6681    -4.1470    -0.0457 C.3     
   8 C8             4.1173    -4.6373    -0.0622 C.3     
   9 O9             4.1367    -6.0661    -0.0700 O.3     
  10 C10            1.1808     2.1901     0.0025 C.ar    
  11 C11            1.1622     3.5659     0.0106 C.ar    
  12 C12           -0.0559     4.2517     0.0260 C.ar    
  13 C13           -1.2506     3.5326     0.0331 C.ar    
  14 C14           -1.2364     2.1576     0.0196 C.ar    
  15 C15           -0.3551     5.7044     0.0373 C.ar    
  16 C16           -1.7345     5.8946     0.0512 C.ar    
  17 C17           -2.3820     4.5316     0.0493 C.3     
  18 C18            0.4895     6.8170     0.0363 C.ar    
  19 C19           -0.0458     8.0878     0.0490 C.ar    
  20 C20           -1.4177     8.2664     0.0628 C.ar    
  21 C21           -2.2605     7.1691     0.0635 C.ar    
  22 H22            2.0116    -0.1656    -0.0180 H       
  23 H23            0.6978    -2.5019     0.8720 H       
  24 H24            0.6808    -2.4923    -0.9079 H       
  25 H25            3.1477    -2.2421    -0.9301 H       
  26 H26            3.1647    -2.2516     0.8498 H       
  27 H27            2.1677    -4.5220     0.8471 H       
  28 H28            2.1508    -4.5125    -0.9327 H       
  29 H29            4.6176    -4.2622    -0.9550 H       
  30 H30            4.6346    -4.2718     0.8249 H       
  31 H31            5.0253    -6.4474    -0.0805 H       
  32 H32            2.1238     1.6638    -0.0093 H       
  33 H33            2.0908     4.1172     0.0055 H       
  34 H34           -2.1656     1.6073     0.0252 H       
  35 H35           -3.0014     4.4116    -0.8395 H       
  36 H36           -2.9848     4.4013     0.9480 H       
  37 H37            1.5610     6.6820     0.0259 H       
  38 H38            0.6085     8.9471     0.0486 H       
  39 H39           -1.8314     9.2640     0.0727 H       
  40 H40           -3.3311     7.3110     0.0738 H       
@<TRIPOS>BOND
   1    1    2 1
   2    1   10 ar
   3    1   14 ar
   4    2    3 2
   5    2    4 am
   6    4    5 1
   7    4   22 1
   8    5    6 1
   9    5   23 1
  10    5   24 1
  11    6    7 1
  12    6   25 1
  13    6   26 1
  14    7    8 1
  15    7   27 1
  16    7   28 1
  17    8    9 1
  18    8   29 1
  19    8   30 1
  20    9   31 1
  21   10   11 ar
  22   10   32 1
  23   11   12 ar
  24   11   33 1
  25   12   13 ar
  26   12   15 1
  27   13   14 ar
  28   13   17 1
  29   14   34 1
  30   15   16 ar
  31   15   18 ar
  32   16   17 1
  33   16   21 ar
  34   17   35 1
  35   17   36 1
  36   18   19 ar
  37   18   37 1
  38   19   20 ar
  39   19   38 1
  40   20   21 ar
  41   20   39 1
  42   21   40 1

#	End of record

