#	Name: ASD01840505
#	Creating user name:	WinNT
#	Creation time:	15. 06. 2019 19:37

#	Modifying user name:	WinNT
#	Modification time:	15. 06. 2019 19:37

#	Program:	/corina/corina34_cracker 3.40 0067  02.08.2006

@<TRIPOS>MOLECULE
ASD01840505
  35   37    0    0    0
SMALL
NO_CHARGES


@<TRIPOS>ATOM
   1 Cl1            0.0000     0.0000     0.0000 Cl      
   2 H2             0.0000     1.3700     0.0000 H       
   3 C3             6.1819    16.9366    10.7672 C.3     
   4 C4             6.2361    15.4306    10.7589 C.ar    
   5 N5             6.2692    14.7911     9.6130 N.ar    
   6 C6             6.3182    13.4566     9.5409 C.ar    
   7 S7             6.3691    12.4163     8.1245 S.3     
   8 C8             6.4143    10.9526     9.0871 C.ar    
   9 C9             6.4679     9.5965     8.7111 C.ar    
  10 N10            6.4935     9.2429     7.3652 N.pl3   
  11 C11            6.5493     7.8306     6.9798 C.3     
  12 C12            5.6398     7.3736     5.8375 C.3     
  13 C13            7.1484     7.4945     5.6127 C.3     
  14 N14            6.4942     8.6627     9.6447 N.ar    
  15 N15            6.4727     8.9414    10.8959 N.ar    
  16 C16            6.4230    10.1728    11.3492 C.ar    
  17 C17            6.3911    11.2527    10.4432 C.ar    
  18 C18            6.3356    12.6972    10.7056 C.ar    
  19 C19            6.3001    13.3625    11.9478 C.ar    
  20 C20            6.3177    12.5824    13.2371 C.3     
  21 C21            6.2560    14.7416    11.9614 C.ar    
  22 Cl22           6.2189    15.6038    13.4678 Cl      
  23 H23            7.1958    17.3367    10.7733 H       
  24 H24            5.6588    17.2863     9.8771 H       
  25 H25            5.6519    17.2763    11.6571 H       
  26 H26            6.4744     9.9316     6.6823 H       
  27 H27            6.7272     7.1279     7.7938 H       
  28 H28            5.2191     6.3700     5.8998 H       
  29 H29            5.0000     8.1237     5.3727 H       
  30 H30            7.5010     8.3242     5.0000 H       
  31 H31            7.7202     6.5705     5.5272 H       
  32 H32            6.4070    10.3579    12.4131 H       
  33 H33            7.3465    12.3328    13.4967 H       
  34 H34            5.8783    13.1847    14.0322 H       
  35 H35            5.7411    11.6655    13.1149 H       
@<TRIPOS>BOND
   1    1    2 1
   2    3    4 1
   3    3   23 1
   4    3   24 1
   5    3   25 1
   6    4   21 ar
   7    4    5 ar
   8    5    6 ar
   9    6   18 ar
  10    6    7 1
  11    7    8 1
  12    8   17 ar
  13    8    9 ar
  14    9   10 1
  15    9   14 ar
  16   10   11 1
  17   10   26 1
  18   11   13 1
  19   11   12 1
  20   11   27 1
  21   12   13 1
  22   12   28 1
  23   12   29 1
  24   13   30 1
  25   13   31 1
  26   14   15 ar
  27   15   16 ar
  28   16   17 ar
  29   16   32 1
  30   17   18 1
  31   18   19 ar
  32   19   20 1
  33   19   21 ar
  34   20   33 1
  35   20   34 1
  36   20   35 1
  37   21   22 1

#	End of record

