#	Name: ASD01908332
#	Creating user name:	WinNT
#	Creation time:	15. 06. 2019 19:54

#	Modifying user name:	WinNT
#	Modification time:	15. 06. 2019 19:54

#	Program:	/corina/corina34_cracker 3.40 0067  02.08.2006

@<TRIPOS>MOLECULE
ASD01908332
  38   41    0    0    0
SMALL
NO_CHARGES


@<TRIPOS>ATOM
   1 C1            -0.0139     1.2061     0.1395 C.2     
   2 O2             0.0017    -0.0101     0.1375 O.2     
   3 C3             1.2435     1.9537     0.1517 C.2     
   4 C4             2.4956     1.4014     0.1614 C.2     
   5 C5             3.5015     2.3369     0.1718 C.2     
   6 C6             3.0920     3.6118     0.1705 C.2     
   7 S7             1.3886     3.7060     0.1484 S.3     
   8 N8            -1.1895     1.8650     0.1250 N.am    
   9 N9            -1.3530     3.2557     0.1249 N.2     
  10 C10           -2.6301     3.5247     0.1084 C.2     
  11 C11           -3.3397     2.3049     0.0973 C.2     
  12 C12           -2.4243     1.2954     0.1019 C.2     
  13 S13           -7.1891     2.5696     0.0482 S.3     
  14 N14           -5.6079     3.1916     0.0697 N.2     
  15 C15           -4.8156     2.1496     0.0783 C.2     
  16 N16           -5.3783     0.9557     0.0691 N.2     
  17 C17           -6.6924     0.9202     0.0520 C.2     
  18 N18           -7.5028    -0.2015     0.0406 N.pl3   
  19 C19           -8.8891    -0.0634     0.1545 C.ar    
  20 C20           -9.7334    -0.9346    -0.5222 C.ar    
  21 C21          -11.1025    -0.7953    -0.4075 C.ar    
  22 C22          -11.6333     0.2103     0.3795 C.ar    
  23 C23          -10.7957     1.0796     1.0541 C.ar    
  24 C24           -9.4255     0.9418     0.9491 C.ar    
  25 C25           -3.2419     4.9019     0.1024 C.3     
  26 H26            2.6750     0.3364     0.1614 H       
  27 H27            4.5464     2.0640     0.1806 H       
  28 H28            3.7522     4.4665     0.1781 H       
  29 H29           -2.6398     0.2372     0.0915 H       
  30 H30           -7.1088    -1.0836    -0.0464 H       
  31 H31           -9.3195    -1.7197    -1.1375 H       
  32 H32          -11.7595    -1.4723    -0.9333 H       
  33 H33          -12.7044     0.3173     0.4672 H       
  34 H34          -11.2134     1.8644     1.6674 H       
  35 H35           -8.7719     1.6180     1.4800 H       
  36 H36           -3.3763     5.2352    -0.9267 H       
  37 H37           -4.2093     4.8719     0.6038 H       
  38 H38           -2.5828     5.5946     0.6256 H       
@<TRIPOS>BOND
   1    1    2 2
   2    1    3 1
   3    1    8 am
   4    3    4 2
   5    3    7 1
   6    4    5 1
   7    4   26 1
   8    5    6 2
   9    5   27 1
  10    6    7 1
  11    6   28 1
  12    8    9 1
  13    8   12 1
  14    9   10 2
  15   10   11 1
  16   10   25 1
  17   11   12 2
  18   11   15 1
  19   12   29 1
  20   13   14 1
  21   13   17 1
  22   14   15 2
  23   15   16 1
  24   16   17 2
  25   17   18 1
  26   18   19 1
  27   18   30 1
  28   19   20 ar
  29   19   24 ar
  30   20   21 ar
  31   20   31 1
  32   21   22 ar
  33   21   32 1
  34   22   23 ar
  35   22   33 1
  36   23   24 ar
  37   23   34 1
  38   24   35 1
  39   25   36 1
  40   25   37 1
  41   25   38 1

#	End of record

