#	Name: ASD07300655
#	Creating user name:	WinNT
#	Creation time:	15. 06. 2019 21:10

#	Modifying user name:	WinNT
#	Modification time:	15. 06. 2019 21:10

#	Program:	/corina/corina34_cracker 3.40 0067  02.08.2006

@<TRIPOS>MOLECULE
ASD07300655
  30   32    0    0    0
SMALL
NO_CHARGES


@<TRIPOS>ATOM
   1 C1            -0.0035     1.3932     0.2412 C.2     
   2 C2             0.0021    -0.0041     0.0020 C.2     
   3 N3             1.1907     2.0695     0.2266 N.pl3   
   4 N4             1.1445    -0.6195    -0.2275 N.2     
   5 C5             2.3029     0.0487    -0.2396 C.2     
   6 C6             2.3488     1.3766    -0.0175 C.2     
   7 N7            -0.9638     2.2632     0.4997 N.2     
   8 C8            -0.4279     3.4759     0.6454 C.2     
   9 C9             0.9137     3.3770     0.4800 C.2     
  10 C10           -1.1862     4.7425     0.9485 C.3     
  11 F11           -2.5337     4.4378     1.1688 F       
  12 F12           -0.6510     5.3439     2.0926 F       
  13 F13           -1.0778     5.6214    -0.1345 F       
  14 N14           -1.1857    -0.7180     0.0100 N.pl3   
  15 C15           -2.4812    -0.0316     0.1360 C.3     
  16 C16           -3.4036    -0.5307    -0.9821 C.3     
  17 O17           -3.4376    -1.9598    -0.9615 O.3     
  18 C18           -2.1740    -2.5790    -1.2141 C.3     
  19 C19           -1.1890    -2.1843    -0.1135 C.3     
  20 Br20           2.1656     4.7904     0.5855 Br      
  21 H21            3.2207    -0.4875    -0.4312 H       
  22 H22            3.2961     1.8950    -0.0326 H       
  23 H23           -2.9240    -0.2584     1.1058 H       
  24 H24           -2.3373     1.0446     0.0402 H       
  25 H25           -4.4092    -0.1403    -0.8259 H       
  26 H26           -3.0253    -0.1894    -1.9457 H       
  27 H27           -2.2951    -3.6622    -1.2248 H       
  28 H28           -1.7913    -2.2451    -2.1785 H       
  29 H29           -0.1898    -2.5330    -0.3744 H       
  30 H30           -1.4995    -2.6316     0.8308 H       
@<TRIPOS>BOND
   1    1    2 1
   2    1    3 1
   3    1    7 2
   4    2    4 2
   5    2   14 1
   6    3    6 1
   7    3    9 1
   8    4    5 1
   9    5    6 2
  10    5   21 1
  11    6   22 1
  12    7    8 1
  13    8    9 2
  14    8   10 1
  15    9   20 1
  16   10   11 1
  17   10   12 1
  18   10   13 1
  19   14   15 1
  20   14   19 1
  21   15   16 1
  22   15   23 1
  23   15   24 1
  24   16   17 1
  25   16   25 1
  26   16   26 1
  27   17   18 1
  28   18   19 1
  29   18   27 1
  30   18   28 1
  31   19   29 1
  32   19   30 1

#	End of record

