#	Name: ASD01890380
#	Creating user name:	WinNT
#	Creation time:	15. 06. 2019 19:50

#	Modifying user name:	WinNT
#	Modification time:	15. 06. 2019 19:50

#	Program:	/corina/corina34_cracker 3.40 0067  02.08.2006

@<TRIPOS>MOLECULE
ASD01890380
  43   46    0    0    0
SMALL
NO_CHARGES


@<TRIPOS>ATOM
   1 C1            -0.8633    -0.2179    -1.0817 C.2     
   2 C2            -0.0695     0.1285     0.1515 C.3     
   3 C3             1.2898    -0.5715     0.0964 C.3     
   4 C4             2.1534    -0.1015     1.2687 C.3     
   5 O5            -0.3532    -0.8626    -1.9672 O.2     
   6 O6            -2.1388     0.1850    -1.1940 O.3     
   7 C7             1.5201    -2.8581    -0.8327 C.ar    
   8 C8             1.0909    -2.0627     0.1852 C.ar    
   9 C9             0.4708    -2.6066     1.3081 C.ar    
  10 C10            0.2757    -3.9492     1.4198 C.ar    
  11 C11            0.7050    -4.8021     0.3891 C.ar    
  12 C12            0.5215    -6.1932     0.4688 C.ar    
  13 C13            0.9506    -6.9884    -0.5489 C.ar    
  14 C14            1.5712    -6.4443    -1.6720 C.ar    
  15 C15            1.7663    -5.1021    -1.7837 C.ar    
  16 C16            1.3358    -4.2488    -0.7533 C.ar    
  17 C17            2.4657     1.3639     1.1068 C.2     
  18 N18            3.0289     1.8947     0.0610 N.2     
  19 C19            3.1622     3.2336     0.2443 C.ar    
  20 C20            2.6316     3.5282     1.5118 C.ar    
  21 N21            2.1943     2.3249     2.0304 N.pl3   
  22 C22            3.6865     4.2652    -0.5386 C.ar    
  23 C23            3.6783     5.5572    -0.0616 C.ar    
  24 C24            3.1528     5.8425     1.1915 C.ar    
  25 C25            2.6313     4.8359     1.9760 C.ar    
  26 Cl26           4.3304     6.8387    -1.0344 Cl      
  27 H27            0.0790     1.2074     0.1968 H       
  28 H28           -0.6122    -0.2010     1.0375 H       
  29 H29            1.7869    -0.3265    -0.8422 H       
  30 H30            1.6137    -0.2570     2.2029 H       
  31 H31            3.0826    -0.6712     1.2868 H       
  32 H32           -2.6073    -0.0613    -2.0033 H       
  33 H33            1.9955    -2.4221    -1.6989 H       
  34 H34            0.1402    -1.9532     2.1020 H       
  35 H35           -0.2061    -4.3566     2.2963 H       
  36 H36            0.0429    -6.6290     1.3334 H       
  37 H37            0.8084    -8.0571    -0.4851 H       
  38 H38            1.9027    -7.0978    -2.4654 H       
  39 H39            2.2493    -4.6948    -2.6596 H       
  40 H40            1.7735     2.1901     2.8939 H       
  41 H41            4.0972     4.0502    -1.5140 H       
  42 H42            3.1526     6.8598     1.5541 H       
  43 H43            2.2238     5.0646     2.9497 H       
@<TRIPOS>BOND
   1    1    2 1
   2    1    5 2
   3    1    6 1
   4    2    3 1
   5    2   27 1
   6    2   28 1
   7    3    4 1
   8    3    8 1
   9    3   29 1
  10    4   17 1
  11    4   30 1
  12    4   31 1
  13    6   32 1
  14    7    8 ar
  15    7   16 ar
  16    7   33 1
  17    8    9 ar
  18    9   10 ar
  19    9   34 1
  20   10   11 ar
  21   10   35 1
  22   11   12 ar
  23   11   16 ar
  24   12   13 ar
  25   12   36 1
  26   13   14 ar
  27   13   37 1
  28   14   15 ar
  29   14   38 1
  30   15   16 ar
  31   15   39 1
  32   17   18 2
  33   17   21 1
  34   18   19 1
  35   19   20 ar
  36   19   22 ar
  37   20   21 1
  38   20   25 ar
  39   21   40 1
  40   22   23 ar
  41   22   41 1
  42   23   24 ar
  43   23   26 1
  44   24   25 ar
  45   24   42 1
  46   25   43 1

#	End of record

