#	Name: ASD03240793
#	Creating user name:	WinNT
#	Creation time:	15. 06. 2019 20:35

#	Modifying user name:	WinNT
#	Modification time:	15. 06. 2019 20:35

#	Program:	/corina/corina34_cracker 3.40 0067  02.08.2006

@<TRIPOS>MOLECULE
ASD03240793
  78   85    0    0    0
SMALL
NO_CHARGES


@<TRIPOS>ATOM
   1 N1             0.1468     1.8881     0.0348 N.3     
   2 C2            -0.0713     0.4409     0.1552 C.3     
   3 C3             0.6004    -0.0731     1.4306 C.3     
   4 C4             2.0995     0.2328     1.3710 C.3     
   5 C5             2.2981     1.7410     1.1969 C.3     
   6 C6             1.5772     2.2025    -0.0717 C.3     
   7 C7             2.7567    -0.2174     2.6503 C.2     
   8 O8             2.0924    -0.7324     3.5246 O.2     
   9 N9             4.0825    -0.0476     2.8228 N.am    
  10 O10            5.4009    -2.7520     8.0065 O.3     
  11 C11            6.2767    -1.6126     7.7871 C.3     
  12 C12            5.8663    -1.0069     6.4682 C.ar    
  13 C13            4.8090    -1.7870     5.9901 C.ar    
  14 C14            4.5512    -2.8571     6.9713 C.2     
  15 C15            4.2142    -1.4638     4.7705 C.ar    
  16 C16            4.6765    -0.3753     4.0470 C.ar    
  17 C17            5.7285     0.3910     4.5340 C.ar    
  18 C18            6.3191     0.0716     5.7441 C.ar    
  19 O19            3.6944    -3.7108     6.8594 O.2     
  20 C20           -0.5997     2.4400    -1.1036 C.3     
  21 C21           -0.5532     3.9454    -1.0525 C.ar    
  22 C22            0.4695     4.6251    -1.6899 C.ar    
  23 C23            0.5174     6.0034    -1.6471 C.ar    
  24 C24           -0.4682     6.7115    -0.9593 C.ar    
  25 C25           -1.4967     6.0205    -0.3187 C.ar    
  26 C26           -1.5365     4.6424    -0.3732 C.ar    
  27 C27            2.1335    12.1216    -0.7057 C.2     
  28 N28            1.0284    12.8879    -0.7117 N.2     
  29 C29           -0.1729    12.3728    -0.7627 C.2     
  30 C30           -0.3209    10.9198    -0.8159 C.ar    
  31 C31            0.8428    10.1211    -0.8089 C.ar    
  32 N32            2.0690    10.7553    -0.7528 N.pl3   
  33 C33           -1.5783    10.3100    -0.8721 C.ar    
  34 C34           -1.6269     8.9204    -0.9195 C.ar    
  35 C35           -0.4224     8.1908    -0.9091 C.ar    
  36 N36            0.7508     8.8037    -0.8556 N.ar    
  37 N37            3.3795    10.2629    -0.7315 N.2     
  38 C38            4.2107    11.2757    -0.6741 C.2     
  39 C39            3.4796    12.4567    -0.6507 C.2     
  40 C40           -2.9304     8.2165    -0.9796 C.ar    
  41 C41           -3.9402     8.5355    -0.0732 C.ar    
  42 C42           -5.1516     7.8773    -0.1342 C.ar    
  43 C43           -5.3647     6.9025    -1.0923 C.ar    
  44 C44           -4.3661     6.5815    -1.9941 C.ar    
  45 C45           -3.1528     7.2374    -1.9465 C.ar    
  46 C46            5.7138    11.1746    -0.6343 C.3     
  47 H47           -1.1411     0.2374     0.2009 H       
  48 H48            0.3577    -0.0643    -0.7101 H       
  49 H49            0.1622     0.4216     2.2974 H       
  50 H50            0.4517    -1.1499     1.5116 H       
  51 H51            2.5453    -0.2932     0.5268 H       
  52 H52            1.8867     2.2643     2.0600 H       
  53 H53            3.3624     1.9604     1.1109 H       
  54 H54            1.9986     1.6891    -0.9360 H       
  55 H55            1.7047     3.2784    -0.1909 H       
  56 H56            4.6251     0.3017     2.0985 H       
  57 H57            6.1508    -0.8844     8.5883 H       
  58 H58            7.3146    -1.9422     7.7404 H       
  59 H59            3.3971    -2.0594     4.3911 H       
  60 H60            6.0857     1.2379     3.9670 H       
  61 H61            7.1363     0.6693     6.1202 H       
  62 H62           -0.1507     2.0941    -2.0347 H       
  63 H63           -1.6363     2.1067    -1.0544 H       
  64 H64            1.2321     4.0756    -2.2218 H       
  65 H65            1.3164     6.5328    -2.1447 H       
  66 H66           -2.2624     6.5632     0.2157 H       
  67 H67           -2.3345     4.1064     0.1190 H       
  68 H68           -1.0432    13.0122    -0.7659 H       
  69 H69           -2.4833    10.8994    -0.8779 H       
  70 H70            3.8856    13.4562    -0.6007 H       
  71 H71           -3.7747     9.2959     0.6757 H       
  72 H72           -5.9348     8.1235     0.5675 H       
  73 H73           -6.3142     6.3897    -1.1361 H       
  74 H74           -4.5378     5.8193    -2.7398 H       
  75 H75           -2.3754     6.9891    -2.6540 H       
  76 H76            6.1056    11.1846    -1.6514 H       
  77 H77            6.1202    12.0205    -0.0800 H       
  78 H78            6.0026    10.2456    -0.1428 H       
@<TRIPOS>BOND
   1    1    2 1
   2    1    6 1
   3    1   20 1
   4    2    3 1
   5    2   47 1
   6    2   48 1
   7    3    4 1
   8    3   49 1
   9    3   50 1
  10    4    5 1
  11    4    7 1
  12    4   51 1
  13    5    6 1
  14    5   52 1
  15    5   53 1
  16    6   54 1
  17    6   55 1
  18    7    8 2
  19    7    9 am
  20    9   16 1
  21    9   56 1
  22   10   11 1
  23   10   14 1
  24   11   12 1
  25   11   57 1
  26   11   58 1
  27   12   13 ar
  28   12   18 ar
  29   13   14 1
  30   13   15 ar
  31   14   19 2
  32   15   16 ar
  33   15   59 1
  34   16   17 ar
  35   17   18 ar
  36   17   60 1
  37   18   61 1
  38   20   21 1
  39   20   62 1
  40   20   63 1
  41   21   22 ar
  42   21   26 ar
  43   22   23 ar
  44   22   64 1
  45   23   24 ar
  46   23   65 1
  47   24   25 ar
  48   24   35 1
  49   25   26 ar
  50   25   66 1
  51   26   67 1
  52   27   28 1
  53   27   32 1
  54   27   39 2
  55   28   29 2
  56   29   30 1
  57   29   68 1
  58   30   31 ar
  59   30   33 ar
  60   31   32 1
  61   31   36 ar
  62   32   37 1
  63   33   34 ar
  64   33   69 1
  65   34   35 ar
  66   34   40 1
  67   35   36 ar
  68   37   38 2
  69   38   39 1
  70   38   46 1
  71   39   70 1
  72   40   41 ar
  73   40   45 ar
  74   41   42 ar
  75   41   71 1
  76   42   43 ar
  77   42   72 1
  78   43   44 ar
  79   43   73 1
  80   44   45 ar
  81   44   74 1
  82   45   75 1
  83   46   76 1
  84   46   77 1
  85   46   78 1

#	End of record

