#	Name: ASD01890374
#	Creating user name:	WinNT
#	Creation time:	15. 06. 2019 19:50

#	Modifying user name:	WinNT
#	Modification time:	15. 06. 2019 19:50

#	Program:	/corina/corina34_cracker 3.40 0067  02.08.2006

@<TRIPOS>MOLECULE
ASD01890374
  38   39    0    0    0
SMALL
NO_CHARGES


@<TRIPOS>ATOM
   1 C1             0.1872     1.5840    -0.0657 C.2     
   2 C2             0.1198     0.0786    -0.0744 C.3     
   3 C3             1.5366    -0.4957    -0.0141 C.3     
   4 O4             1.2585     2.1405    -0.0164 O.2     
   5 O5            -0.9427     2.3067    -0.1183 O.3     
   6 C6             1.4924    -2.6280    -1.1924 C.2     
   7 C7             1.4623    -1.8698    -2.4945 C.3     
   8 O8             1.5358    -3.8401    -1.1974 O.2     
   9 N9             1.4712    -1.9592    -0.0225 N.am    
  10 C10            1.3865    -2.6629     1.1845 C.ar    
  11 C11            2.4496    -2.6424     2.0776 C.ar    
  12 C12            2.3634    -3.3372     3.2681 C.ar    
  13 C13            1.2190    -4.0538     3.5710 C.ar    
  14 C14            0.1583    -4.0763     2.6825 C.ar    
  15 C15            0.2370    -3.3782     1.4934 C.ar    
  16 Cl16           1.1140    -4.9266     5.0680 Cl      
  17 C17            1.4945    -2.8439    -3.6439 C.ar    
  18 C18            0.3127    -3.3333    -4.1681 C.ar    
  19 C19            0.3416    -4.2267    -5.2223 C.ar    
  20 C20            1.5536    -4.6312    -5.7529 C.ar    
  21 C21            2.7361    -4.1410    -5.2278 C.ar    
  22 C22            2.7057    -3.2433    -4.1773 C.ar    
  23 Cl23           1.5908    -5.7537    -7.0766 Cl      
  24 H24           -0.4484    -0.2647     0.7902 H       
  25 H25           -0.3701    -0.2580    -0.9881 H       
  26 H26            2.1049    -0.1525    -0.8786 H       
  27 H27            2.0265    -0.1592     0.8996 H       
  28 H28           -0.8491     3.2691    -0.1103 H       
  29 H29            0.5503    -1.2752    -2.5476 H       
  30 H30            2.3291    -1.2115    -2.5517 H       
  31 H31            3.3433    -2.0838     1.8414 H       
  32 H32            3.1899    -3.3215     3.9630 H       
  33 H33           -0.7336    -4.6367     2.9211 H       
  34 H34           -0.5928    -3.3924     0.8023 H       
  35 H35           -0.6334    -3.0178    -3.7536 H       
  36 H36           -0.5817    -4.6093    -5.6315 H       
  37 H37            3.6825    -4.4563    -5.6416 H       
  38 H38            3.6285    -2.8572    -3.7702 H       
@<TRIPOS>BOND
   1    1    2 1
   2    1    4 2
   3    1    5 1
   4    2    3 1
   5    2   24 1
   6    2   25 1
   7    3    9 1
   8    3   26 1
   9    3   27 1
  10    5   28 1
  11    6    7 1
  12    6    8 2
  13    6    9 am
  14    7   17 1
  15    7   29 1
  16    7   30 1
  17    9   10 1
  18   10   11 ar
  19   10   15 ar
  20   11   12 ar
  21   11   31 1
  22   12   13 ar
  23   12   32 1
  24   13   14 ar
  25   13   16 1
  26   14   15 ar
  27   14   33 1
  28   15   34 1
  29   17   18 ar
  30   17   22 ar
  31   18   19 ar
  32   18   35 1
  33   19   20 ar
  34   19   36 1
  35   20   21 ar
  36   20   23 1
  37   21   22 ar
  38   21   37 1
  39   22   38 1

#	End of record

