#	Name: ASD01913412
#	Creating user name:	WinNT
#	Creation time:	15. 06. 2019 20:01

#	Modifying user name:	WinNT
#	Modification time:	15. 06. 2019 20:01

#	Program:	/corina/corina34_cracker 3.40 0067  02.08.2006

@<TRIPOS>MOLECULE
ASD01913412
  38   40    0    0    0
SMALL
NO_CHARGES


@<TRIPOS>ATOM
   1 C1            -2.2194    -0.7498    -2.1872 C.ar    
   2 C2            -1.7323    -0.0560    -1.0820 C.ar    
   3 C3            -1.8026     1.3351    -1.0935 C.ar    
   4 N4            -2.3256     1.9422    -2.1457 N.ar    
   5 C5            -2.7759     1.2492    -3.1724 C.ar    
   6 N6            -2.7274    -0.0676    -3.2000 N.ar    
   7 C7            -1.2371    -2.1333     0.0576 C.ar    
   8 C8            -0.0614    -2.8728     0.0006 C.ar    
   9 C9            -0.1047    -4.2536     0.0528 C.ar    
  10 C10           -1.3150    -4.9071     0.1618 C.ar    
  11 C11           -2.5019    -4.1737     0.2203 C.ar    
  12 C12           -2.4587    -2.7806     0.1677 C.ar    
  13 C13           -3.7998    -4.8714     0.3365 C.2     
  14 N14           -3.8391    -6.2176     0.3863 N.am    
  15 C15           -5.0587    -6.8733     0.4956 C.2     
  16 O16           -4.8318    -4.2309     0.3873 O.2     
  17 N17           -1.1876    -0.7376     0.0099 N.pl3   
  18 S18           -6.5819    -6.1010     0.5759 S.3     
  19 C19           -7.3817    -7.6668     0.6865 C.2     
  20 C20           -6.4427    -8.6144     0.6533 C.2     
  21 N21           -5.2082    -8.1601     0.5458 N.2     
  22 C22           -6.7661   -10.0845     0.7271 C.3     
  23 C23           -0.5650     0.0112     1.1043 C.3     
  24 H24           -2.1788    -1.8286    -2.2185 H       
  25 H25           -1.4359     1.9094    -0.2556 H       
  26 H26           -3.1971     1.7759    -4.0160 H       
  27 H27            0.8889    -2.3670    -0.0851 H       
  28 H28            0.8120    -4.8228     0.0077 H       
  29 H29           -1.3445    -5.9860     0.2015 H       
  30 H30           -3.3732    -2.2080     0.2128 H       
  31 H31           -3.0157    -6.7287     0.3458 H       
  32 H32           -8.4461    -7.8311     0.7674 H       
  33 H33           -6.9162   -10.4744    -0.2796 H       
  34 H34           -5.9410   -10.6145     1.2029 H       
  35 H35           -7.6750   -10.2276     1.3114 H       
  36 H36           -1.3167     0.2455     1.8581 H       
  37 H37            0.2246    -0.5912     1.5536 H       
  38 H38           -0.1395     0.9364     0.7157 H       
@<TRIPOS>BOND
   1    1    2 ar
   2    1    6 ar
   3    1   24 1
   4    2    3 ar
   5    2   17 1
   6    3    4 ar
   7    3   25 1
   8    4    5 ar
   9    5    6 ar
  10    5   26 1
  11    7    8 ar
  12    7   12 ar
  13    7   17 1
  14    8    9 ar
  15    8   27 1
  16    9   10 ar
  17    9   28 1
  18   10   11 ar
  19   10   29 1
  20   11   12 ar
  21   11   13 1
  22   12   30 1
  23   13   14 am
  24   13   16 2
  25   14   15 1
  26   14   31 1
  27   15   18 1
  28   15   21 2
  29   17   23 1
  30   18   19 1
  31   19   20 2
  32   19   32 1
  33   20   21 1
  34   20   22 1
  35   22   33 1
  36   22   34 1
  37   22   35 1
  38   23   36 1
  39   23   37 1
  40   23   38 1

#	End of record

