#	Name: ASD01816890
#	Creating user name:	WinNT
#	Creation time:	15. 06. 2019 19:36

#	Modifying user name:	WinNT
#	Modification time:	15. 06. 2019 19:36

#	Program:	/corina/corina34_cracker 3.40 0067  02.08.2006

@<TRIPOS>MOLECULE
ASD01816890
  53   56    0    0    0
SMALL
NO_CHARGES


@<TRIPOS>ATOM
   1 C1            -0.2169     1.3965    -0.2752 C.ar    
   2 C2            -0.1263     0.0094    -0.1828 C.ar    
   3 C3             1.0846    -0.6138    -0.1642 C.ar    
   4 C4             2.2605     0.1486    -0.2394 C.ar    
   5 C5             2.1743     1.5623    -0.3343 C.ar    
   6 C6             0.9020     2.1706    -0.3502 C.ar    
   7 C7             3.5293    -0.4613    -0.2224 C.ar    
   8 C8             4.6318     0.3395    -0.2984 C.ar    
   9 C9             4.4782     1.7312    -0.3905 C.ar    
  10 N10            3.2855     2.2937    -0.4053 N.ar    
  11 C11            5.6844     2.5890    -0.4720 C.2     
  12 N12            5.5547     3.9275    -0.5609 N.am    
  13 O13            6.7901     2.0854    -0.4587 O.2     
  14 C14            6.7467     4.7753    -0.6415 C.3     
  15 C15            6.4152     6.1766    -0.1193 C.3     
  16 C16            3.6664    -1.9587    -0.1222 C.3     
  17 C17            3.5612    -2.5658    -1.4975 C.ar    
  18 C18            4.6903    -2.7522    -2.2776 C.ar    
  19 C19            2.3318    -2.9560    -2.0085 C.ar    
  20 C20            2.2704    -3.5092    -3.2729 C.ar    
  21 N21            3.3636    -3.6691    -3.9948 N.ar    
  22 C22            4.5546    -3.3143    -3.5391 C.ar    
  23 C23            7.6432     7.0765    -0.2803 C.3     
  24 O24            8.0335     7.1060    -1.6547 O.3     
  25 C25            8.4006     5.8306    -2.1845 C.3     
  26 C26            7.2030     4.8806    -2.0999 C.3     
  27 O27            6.0577     6.0992     1.2622 O.3     
  28 F28            0.7932     3.5142    -0.4397 F       
  29 O29            3.2607    -4.2399    -5.2866 O.3     
  30 O30            5.6533    -3.4966    -4.3155 O.3     
  31 C31            5.4474    -4.0773    -5.6049 C.3     
  32 H32           -1.1896     1.8655    -0.2922 H       
  33 H33           -1.0293    -0.5802    -0.1247 H       
  34 H34            1.1396    -1.6900    -0.0915 H       
  35 H35            5.6197    -0.0967    -0.2874 H       
  36 H36            4.6720     4.3296    -0.5716 H       
  37 H37            7.5445     4.3409    -0.0389 H       
  38 H38            5.5832     6.5903    -0.6891 H       
  39 H39            4.6352    -2.2067     0.3113 H       
  40 H40            2.8727    -2.3546     0.5114 H       
  41 H41            5.6636    -2.4635    -1.9090 H       
  42 H42            1.4326    -2.8289    -1.4241 H       
  43 H43            1.3160    -3.8150    -3.6754 H       
  44 H44            7.3998     8.0862     0.0502 H       
  45 H45            8.4627     6.6844     0.3220 H       
  46 H46            8.7028     5.9428    -3.2257 H       
  47 H47            9.2300     5.4221    -1.6071 H       
  48 H48            7.4938     3.8948    -2.4627 H       
  49 H49            6.3869     5.2681    -2.7098 H       
  50 H50            5.8348     6.9523     1.6591 H       
  51 H51            6.4038    -4.1671    -6.1199 H       
  52 H52            5.0017    -5.0655    -5.4913 H       
  53 H53            4.7795    -3.4422    -6.1869 H       
@<TRIPOS>BOND
   1    1    2 ar
   2    1    6 ar
   3    1   32 1
   4    2    3 ar
   5    2   33 1
   6    3    4 ar
   7    3   34 1
   8    4    5 ar
   9    4    7 ar
  10    5    6 ar
  11    5   10 ar
  12    6   28 1
  13    7    8 ar
  14    7   16 1
  15    8    9 ar
  16    8   35 1
  17    9   10 ar
  18    9   11 1
  19   11   12 am
  20   11   13 2
  21   12   14 1
  22   12   36 1
  23   14   15 1
  24   14   26 1
  25   14   37 1
  26   15   23 1
  27   15   27 1
  28   15   38 1
  29   16   17 1
  30   16   39 1
  31   16   40 1
  32   17   18 ar
  33   17   19 ar
  34   18   22 ar
  35   18   41 1
  36   19   20 ar
  37   19   42 1
  38   20   21 ar
  39   20   43 1
  40   21   22 ar
  41   21   29 1
  42   22   30 1
  43   23   24 1
  44   23   44 1
  45   23   45 1
  46   24   25 1
  47   25   26 1
  48   25   46 1
  49   25   47 1
  50   26   48 1
  51   26   49 1
  52   27   50 1
  53   30   31 1
  54   31   51 1
  55   31   52 1
  56   31   53 1

#	End of record

