#	Name: ASD03430390
#	Creating user name:	WinNT
#	Creation time:	15. 06. 2019 20:41

#	Modifying user name:	WinNT
#	Modification time:	15. 06. 2019 20:41

#	Program:	/corina/corina34_cracker 3.40 0067  02.08.2006

@<TRIPOS>MOLECULE
ASD03430390
  39   42    0    0    0
SMALL
NO_CHARGES


@<TRIPOS>ATOM
   1 N1            -0.4615     1.4120     1.0203 N.am    
   2 C2            -0.9695     0.4605     1.8225 C.2     
   3 C3             0.1470    -0.0442     2.6877 C.2     
   4 C4             1.3280     0.7356     2.2729 C.ar    
   5 C5             2.6593     0.7412     2.6897 C.ar    
   6 C6             3.5582     1.6079     2.0974 C.ar    
   7 C7             3.1354     2.4669     1.0942 C.ar    
   8 C8             1.8181     2.4680     0.6757 C.ar    
   9 C9             0.8989     1.6045     1.2570 C.ar    
  10 O10           -2.1210     0.0794     1.8429 O.2     
  11 O11            0.0907    -0.9044     3.5417 O.2     
  12 F12            4.8489     1.6186     2.4962 F       
  13 C13           -1.2376     2.1488     0.0198 C.3     
  14 C14           -1.7453     1.1912    -1.0272 C.ar    
  15 C15           -2.7834     1.5646    -1.8602 C.ar    
  16 C16           -3.2491     0.6862    -2.8206 C.ar    
  17 C17           -2.6764    -0.5654    -2.9483 C.ar    
  18 C18           -1.6377    -0.9385    -2.1160 C.ar    
  19 C19           -1.1691    -0.0585    -1.1585 C.ar    
  20 C20           -2.4054     2.8266     0.6892 C.ar    
  21 C21           -2.3628     4.1844     0.9447 C.ar    
  22 C22           -3.4340     4.8061     1.5587 C.ar    
  23 C23           -4.5478     4.0700     1.9169 C.ar    
  24 C24           -4.5907     2.7122     1.6606 C.ar    
  25 C25           -3.5214     2.0914     1.0426 C.ar    
  26 H26            2.9858     0.0717     3.4717 H       
  27 H27            3.8426     3.1421     0.6355 H       
  28 H28            1.5025     3.1429    -0.1061 H       
  29 H29           -0.6032     2.8995    -0.4514 H       
  30 H30           -3.2308     2.5425    -1.7604 H       
  31 H31           -4.0607     0.9777    -3.4709 H       
  32 H32           -3.0408    -1.2520    -3.6982 H       
  33 H33           -1.1905    -1.9165    -2.2156 H       
  34 H34           -0.3551    -0.3485    -0.5106 H       
  35 H35           -1.4926     4.7596     0.6648 H       
  36 H36           -3.4004     5.8668     1.7590 H       
  37 H37           -5.3844     4.5555     2.3973 H       
  38 H38           -5.4608     2.1371     1.9408 H       
  39 H39           -3.5564     1.0313     0.8391 H       
@<TRIPOS>BOND
   1    1    2 am
   2    1    9 1
   3    1   13 1
   4    2    3 1
   5    2   10 2
   6    3    4 1
   7    3   11 2
   8    4    5 ar
   9    4    9 ar
  10    5    6 ar
  11    5   26 1
  12    6    7 ar
  13    6   12 1
  14    7    8 ar
  15    7   27 1
  16    8    9 ar
  17    8   28 1
  18   13   14 1
  19   13   20 1
  20   13   29 1
  21   14   15 ar
  22   14   19 ar
  23   15   16 ar
  24   15   30 1
  25   16   17 ar
  26   16   31 1
  27   17   18 ar
  28   17   32 1
  29   18   19 ar
  30   18   33 1
  31   19   34 1
  32   20   21 ar
  33   20   25 ar
  34   21   22 ar
  35   21   35 1
  36   22   23 ar
  37   22   36 1
  38   23   24 ar
  39   23   37 1
  40   24   25 ar
  41   24   38 1
  42   25   39 1

#	End of record

