#	Name: ASD05313314
#	Creating user name:	WinNT
#	Creation time:	15. 06. 2019 20:59

#	Modifying user name:	WinNT
#	Modification time:	15. 06. 2019 20:59

#	Program:	/corina/corina34_cracker 3.40 0067  02.08.2006

@<TRIPOS>MOLECULE
ASD05313314
  48   50    0    0    0
SMALL
NO_CHARGES


@<TRIPOS>ATOM
   1 C1            -0.0552     1.0392     0.5767 C.2     
   2 C2             0.0570    -0.4619     0.4280 C.3     
   3 N3             1.0092     1.8767     0.5522 N.pl3   
   4 N4             1.4384    -0.7520     0.0018 N.am    
   5 C5             2.5337    -0.0298     0.6669 C.3     
   6 C6             2.4029     1.4677     0.3673 C.3     
   7 N7            -1.1398     1.7371     0.7499 N.2     
   8 C8            -0.8247     3.0357     0.8453 C.2     
   9 C9             0.5275     3.1492     0.7256 C.2     
  10 C10            1.3197     4.3973     0.7757 C.ar    
  11 C11            0.9450     5.4966     0.0020 C.ar    
  12 C12            1.6878     6.6579     0.0536 C.ar    
  13 C13            2.8022     6.7341     0.8703 C.ar    
  14 C14            3.1789     5.6480     1.6397 C.ar    
  15 C15            2.4413     4.4824     1.6011 C.ar    
  16 C16           -0.2681     5.4152    -0.8884 C.3     
  17 C17            1.6902    -1.6530    -0.9684 C.2     
  18 O18            2.8262    -1.8114    -1.3708 O.2     
  19 C19            0.5852    -2.4483    -1.5430 C.ar    
  20 C20            0.4796    -2.6056    -2.9274 C.ar    
  21 C21           -0.5560    -3.3503    -3.4569 C.ar    
  22 C22           -1.4867    -3.9387    -2.6199 C.ar    
  23 C23           -1.3876    -3.7861    -1.2481 C.ar    
  24 C24           -0.3548    -3.0506    -0.7050 C.ar    
  25 C25           -0.6725    -3.5218    -4.9496 C.3     
  26 F26           -1.7911    -4.3091    -5.2427 F       
  27 F27           -0.8138    -2.2677    -5.5534 F       
  28 F28            0.4793    -4.1476    -5.4384 F       
  29 Cl29           1.6465    -1.8665    -3.9789 Cl      
  30 H30           -0.1468    -0.9463     1.3830 H       
  31 H31           -0.6464    -0.8144    -0.3263 H       
  32 H32            2.4766    -0.1924     1.7432 H       
  33 H33            3.4904    -0.3941     0.2925 H       
  34 H34            2.7055     1.6609    -0.6618 H       
  35 H35            3.0411     2.0321     1.0472 H       
  36 H36           -1.5199     3.8488     0.9934 H       
  37 H37            1.3992     7.5092    -0.5449 H       
  38 H38            3.3807     7.6454     0.9069 H       
  39 H39            4.0497     5.7138     2.2751 H       
  40 H40            2.7340     3.6365     2.2054 H       
  41 H41           -1.1611     5.6463    -0.3078 H       
  42 H42           -0.1692     6.1318    -1.7037 H       
  43 H43           -0.3514     4.4084    -1.2977 H       
  44 H44           -2.2949    -4.5198    -3.0390 H       
  45 H45           -2.1184    -4.2478    -0.6007 H       
  46 H46           -0.2762    -2.9369     0.3661 H       
  47 Cl47           9.0497    12.6454     7.2751 Cl      
  48 H48            9.0497    14.0154     7.2751 H       
@<TRIPOS>BOND
   1    1    2 1
   2    1    3 1
   3    1    7 2
   4    2    4 1
   5    2   30 1
   6    2   31 1
   7    3    6 1
   8    3    9 1
   9    4    5 1
  10    4   17 am
  11    5    6 1
  12    5   32 1
  13    5   33 1
  14    6   34 1
  15    6   35 1
  16    7    8 1
  17    8    9 2
  18    8   36 1
  19    9   10 1
  20   10   11 ar
  21   10   15 ar
  22   11   12 ar
  23   11   16 1
  24   12   13 ar
  25   12   37 1
  26   13   14 ar
  27   13   38 1
  28   14   15 ar
  29   14   39 1
  30   15   40 1
  31   16   41 1
  32   16   42 1
  33   16   43 1
  34   17   18 2
  35   17   19 1
  36   19   20 ar
  37   19   24 ar
  38   20   21 ar
  39   20   29 1
  40   21   22 ar
  41   21   25 1
  42   22   23 ar
  43   22   44 1
  44   23   24 ar
  45   23   45 1
  46   24   46 1
  47   25   26 1
  48   25   27 1
  49   25   28 1
  50   47   48 1

#	End of record

