#	Name: ASD01150096
#	Creating user name:	WinNT
#	Creation time:	15. 06. 2019 19:03

#	Modifying user name:	WinNT
#	Modification time:	15. 06. 2019 19:03

#	Program:	/corina/corina34_cracker 3.40 0067  02.08.2006

@<TRIPOS>MOLECULE
ASD01150096
  37   38    0    0    0
SMALL
NO_CHARGES


@<TRIPOS>ATOM
   1 C1            -0.0545     1.4153    -0.0019 C.2     
   2 N2             0.0325     0.0574    -0.0188 N.am    
   3 C3            -1.0635    -0.7155    -0.0008 C.2     
   4 N4            -2.3077    -0.2135     0.0346 N.am    
   5 C5            -2.5192     1.1190     0.0542 C.2     
   6 C6            -1.3445     2.0178     0.0416 C.2     
   7 C7             1.3535    -0.5747    -0.0579 C.3     
   8 C8             1.8487    -0.8104     1.3705 C.3     
   9 C9             3.2283    -1.4706     1.3296 C.3     
  10 N10           -1.4865     3.3292     0.0596 N.2     
  11 O11           -2.5986     3.8222    -0.0019 O.2     
  12 N12            1.0592     2.1758    -0.0205 N.pl3   
  13 O13           -0.9240    -1.9226    -0.0176 O.2     
  14 O14           -3.6480     1.5698     0.0858 O.2     
  15 C15           -3.4535    -1.1261     0.0518 C.3     
  16 C16           -3.8125    -1.4549     1.4780 C.ar    
  17 C17           -4.7225    -0.6691     2.1602 C.ar    
  18 C18           -5.0521    -0.9702     3.4683 C.ar    
  19 C19           -4.4711    -2.0583     4.0948 C.ar    
  20 C20           -3.5604    -2.8444     3.4116 C.ar    
  21 C21           -3.2358    -2.5456     2.1017 C.ar    
  22 Cl22          -4.8842    -2.4368     5.7380 Cl      
  23 H23            1.2845    -1.5288    -0.5806 H       
  24 H24            2.0527     0.0769    -0.5820 H       
  25 H25            1.9177     0.1436     1.8931 H       
  26 H26            1.1495    -1.4620     1.8945 H       
  27 H27            3.9275    -0.8190     0.8055 H       
  28 H28            3.5810    -1.6385     2.3472 H       
  29 H29            3.1592    -2.4246     0.8069 H       
  30 H30            1.9328     1.7579     0.0357 H       
  31 H31            0.9865     3.1405    -0.0900 H       
  32 H32           -4.3041    -0.6505    -0.4366 H       
  33 H33           -3.1959    -2.0428    -0.4787 H       
  34 H34           -5.1758     0.1804     1.6711 H       
  35 H35           -5.7629    -0.3561     4.0012 H       
  36 H36           -3.1065    -3.6939     3.9002 H       
  37 H37           -2.5249    -3.1591     1.5682 H       
@<TRIPOS>BOND
   1    1    2 1
   2    1   12 1
   3    1    6 2
   4    2    3 am
   5    2    7 1
   6    3    4 am
   7    3   13 2
   8    4    5 am
   9    4   15 1
  10    5    6 1
  11    5   14 2
  12    6   10 1
  13    7    8 1
  14    7   23 1
  15    7   24 1
  16    8    9 1
  17    8   25 1
  18    8   26 1
  19    9   27 1
  20    9   28 1
  21    9   29 1
  22   10   11 2
  23   12   30 1
  24   12   31 1
  25   15   16 1
  26   15   32 1
  27   15   33 1
  28   16   17 ar
  29   16   21 ar
  30   17   18 ar
  31   17   34 1
  32   18   19 ar
  33   18   35 1
  34   19   20 ar
  35   19   22 1
  36   20   21 ar
  37   20   36 1
  38   21   37 1

#	End of record

