#	Name: ASD01120068
#	Creating user name:	WinNT
#	Creation time:	15. 06. 2019 18:58

#	Modifying user name:	WinNT
#	Modification time:	15. 06. 2019 18:58

#	Program:	/corina/corina34_cracker 3.40 0067  02.08.2006

@<TRIPOS>MOLECULE
ASD01120068
  62   65    0    0    0
SMALL
NO_CHARGES


@<TRIPOS>ATOM
   1 C1            -0.0156     1.4018    -0.0393 C.ar    
   2 C2             0.0046     0.0004    -0.0615 C.ar    
   3 C3            -1.1691    -0.7203    -0.0520 C.ar    
   4 C4            -2.3942    -0.0432    -0.0199 C.ar    
   5 C5            -2.4067     1.3735     0.0024 C.ar    
   6 C6            -1.1995     2.0824    -0.0026 C.ar    
   7 N7            -3.5656    -0.6986    -0.0100 N.ar    
   8 C8            -4.6977    -0.0367     0.0198 C.ar    
   9 N9            -4.7582     1.2853     0.0415 N.ar    
  10 C10           -3.6602     2.0298     0.0342 C.ar    
  11 N11           -3.7382     3.4079     0.0575 N.pl3   
  12 C12           -4.9822     4.0392    -0.0323 C.ar    
  13 C13           -5.2106     5.2227     0.6534 C.ar    
  14 C14           -6.4515     5.8481     0.5605 C.ar    
  15 C15           -7.4568     5.2810    -0.2211 C.ar    
  16 C16           -7.2215     4.1023    -0.9008 C.ar    
  17 C17           -5.9891     3.4838    -0.8135 C.ar    
  18 C18           -6.7028     7.1141     1.2917 C.2     
  19 O19            1.1564     2.0914    -0.0487 O.3     
  20 O20            1.1947    -0.6541    -0.0930 O.3     
  21 C21            1.0701     3.5176    -0.0250 C.3     
  22 C22            2.4790     4.1141    -0.0400 C.3     
  23 C23            1.1494    -2.0822    -0.1145 C.3     
  24 C24            2.5747    -2.6372    -0.1487 C.3     
  25 C25           -7.8810     7.7680     1.2429 C.2     
  26 S26           -7.7424     9.2079     2.2486 S.3     
  27 C27           -6.1289     8.7982     2.6355 C.2     
  28 N28           -5.7910     7.6993     2.0549 N.2     
  29 C29           -5.2293     9.6065     3.5347 C.3     
  30 C30           -5.9872    -0.8164     0.0293 C.3     
  31 N31           -6.3827    -1.0918     1.4171 N.3     
  32 C32           -6.7202     0.1504     2.1247 C.3     
  33 C33           -7.4985    -2.0460     1.4670 C.3     
  34 H34           -1.1446    -1.7999    -0.0696 H       
  35 H35           -1.2042     3.1622     0.0143 H       
  36 H36           -2.9298     3.9382     0.1361 H       
  37 H37           -4.4286     5.6580     1.2579 H       
  38 H38           -8.4202     5.7636    -0.2947 H       
  39 H39           -8.0019     3.6648    -1.5057 H       
  40 H40           -5.8100     2.5622    -1.3474 H       
  41 H41            0.5201     3.8629    -0.9004 H       
  42 H42            0.5507     3.8352     0.8791 H       
  43 H43            3.0291     3.7687     0.8354 H       
  44 H44            2.9984     3.7965    -0.9441 H       
  45 H45            2.4132     5.2019    -0.0219 H       
  46 H46            0.6404    -2.4430     0.7793 H       
  47 H47            0.6084    -2.4153    -1.0002 H       
  48 H48            3.0838    -2.2764    -1.0425 H       
  49 H49            3.1157    -2.3041     0.7370 H       
  50 H50            2.5402    -3.7265    -0.1651 H       
  51 H51           -8.7546     7.4633     0.6857 H       
  52 H52           -5.7678    10.4834     3.8941 H       
  53 H53           -4.9209     8.9963     4.3836 H       
  54 H54           -4.3485     9.9244     2.9767 H       
  55 H55           -6.7672    -0.2347    -0.4621 H       
  56 H56           -5.8466    -1.7577    -0.5020 H       
  57 H57           -7.5485     0.6444     1.6168 H       
  58 H58           -7.0094    -0.0823     3.1496 H       
  59 H59           -5.8532     0.8110     2.1329 H       
  60 H60           -7.1974    -2.9822     0.9970 H       
  61 H61           -7.7712    -2.2321     2.5058 H       
  62 H62           -8.3550    -1.6315     0.9352 H       
@<TRIPOS>BOND
   1    1    2 ar
   2    1   19 1
   3    1    6 ar
   4    2    3 ar
   5    2   20 1
   6    3    4 ar
   7    3   34 1
   8    4    5 ar
   9    4    7 ar
  10    5    6 ar
  11    5   10 ar
  12    6   35 1
  13    7    8 ar
  14    8    9 ar
  15    8   30 1
  16    9   10 ar
  17   10   11 1
  18   11   12 1
  19   11   36 1
  20   12   13 ar
  21   12   17 ar
  22   13   14 ar
  23   13   37 1
  24   14   15 ar
  25   14   18 1
  26   15   16 ar
  27   15   38 1
  28   16   17 ar
  29   16   39 1
  30   17   40 1
  31   18   25 2
  32   18   28 1
  33   19   21 1
  34   20   23 1
  35   21   22 1
  36   21   41 1
  37   21   42 1
  38   22   43 1
  39   22   44 1
  40   22   45 1
  41   23   24 1
  42   23   46 1
  43   23   47 1
  44   24   48 1
  45   24   49 1
  46   24   50 1
  47   25   26 1
  48   25   51 1
  49   26   27 1
  50   27   28 2
  51   27   29 1
  52   29   52 1
  53   29   53 1
  54   29   54 1
  55   30   31 1
  56   30   55 1
  57   30   56 1
  58   31   32 1
  59   31   33 1
  60   32   57 1
  61   32   58 1
  62   32   59 1
  63   33   60 1
  64   33   61 1
  65   33   62 1

#	End of record

