#	Name: ASD08150997
#	Creating user name:	WinNT
#	Creation time:	15. 06. 2019 21:16

#	Modifying user name:	WinNT
#	Modification time:	15. 06. 2019 21:16

#	Program:	/corina/corina34_cracker 3.40 0067  02.08.2006

@<TRIPOS>MOLECULE
ASD08150997
  35   37    0    0    0
SMALL
NO_CHARGES


@<TRIPOS>ATOM
   1 C1            -0.0618     1.8682     0.0341 C.3     
   2 C2            -0.5139     1.5931    -1.4015 C.3     
   3 S3             5.8143     3.1517     0.3767 S.3     
   4 C4             5.5783     2.8140     2.0327 C.2     
   5 N5             4.3631     2.4946     2.2773 N.2     
   6 C6             3.4994     2.4739     1.2473 C.ar    
   7 C7             4.1170     2.8215     0.0419 C.ar    
   8 C8             2.1151     2.1603     1.2322 C.ar    
   9 C9             1.4076     2.2027     0.0427 C.ar    
  10 C10            2.0403     2.5498    -1.1390 C.ar    
  11 C11            3.3836     2.8565    -1.1422 C.ar    
  12 C12            6.6638     2.8831     3.0758 C.3     
  13 C13            1.4266     1.7870     2.4903 C.ar    
  14 C14            1.2479     2.7342     3.4976 C.ar    
  15 C15            0.6051     2.3799     4.6685 C.ar    
  16 C16            0.1393     1.0861     4.8411 C.ar    
  17 C17            0.3152     0.1439     3.8444 C.ar    
  18 C18            0.9503     0.4888     2.6685 C.ar    
  19 F19            0.4310     3.2957     5.6464 F       
  20 N20           -0.8246     2.9989     0.5796 N.3     
  21 H21           -0.2365     0.9831     0.6460 H       
  22 H22            0.1232     0.8264    -1.8424 H       
  23 H23           -1.5478     1.2480    -1.3970 H       
  24 H24           -0.4391     2.5090    -1.9877 H       
  25 H25            1.4792     2.5794    -2.0613 H       
  26 H26            3.8706     3.1262    -2.0677 H       
  27 H27            7.6016     3.1783     2.6053 H       
  28 H28            6.3917     3.6161     3.8353 H       
  29 H29            6.7831     1.9048     3.5414 H       
  30 H30            1.6112     3.7423     3.3632 H       
  31 H31           -0.3626     0.8127     5.7575 H       
  32 H32           -0.0492    -0.8630     3.9846 H       
  33 H33            1.0824    -0.2473     1.8893 H       
  34 H34           -0.5905     3.1596     1.5478 H       
  35 H35           -0.6793     3.8321     0.0293 H       
@<TRIPOS>BOND
   1    1    2 1
   2    1    9 1
   3    1   20 1
   4    1   21 1
   5    2   22 1
   6    2   23 1
   7    2   24 1
   8    3    4 1
   9    3    7 1
  10    4    5 2
  11    4   12 1
  12    5    6 1
  13    6    7 ar
  14    6    8 ar
  15    7   11 ar
  16    8    9 ar
  17    8   13 1
  18    9   10 ar
  19   10   11 ar
  20   10   25 1
  21   11   26 1
  22   12   27 1
  23   12   28 1
  24   12   29 1
  25   13   14 ar
  26   13   18 ar
  27   14   15 ar
  28   14   30 1
  29   15   16 ar
  30   15   19 1
  31   16   17 ar
  32   16   31 1
  33   17   18 ar
  34   17   32 1
  35   18   33 1
  36   20   34 1
  37   20   35 1

#	End of record

