#	Name: ASD07930079
#	Creating user name:	WinNT
#	Creation time:	15. 06. 2019 21:11

#	Modifying user name:	WinNT
#	Modification time:	15. 06. 2019 21:11

#	Program:	/corina/corina34_cracker 3.40 0067  02.08.2006

@<TRIPOS>MOLECULE
ASD07930079
  43   46    0    0    0
SMALL
NO_CHARGES


@<TRIPOS>ATOM
   1 S1            -0.0218     1.7568     0.0117 S.3     
   2 C2             0.0021    -0.0041     0.0020 C.2     
   3 N3             1.0039    -0.6777    -0.4129 N.2     
   4 C4             2.2686    -0.2447    -0.9571 C.3     
   5 C5             2.4022     1.2744    -1.1331 C.3     
   6 C6             1.7645     2.0590    -0.0037 C.3     
   7 O7             1.9952     0.3585    -3.2710 O.3     
   8 C8             2.3528    -0.7412    -2.4245 C.3     
   9 C9             1.6712     1.5094    -2.4705 C.3     
  10 N10           -1.1039    -0.6814     0.4608 N.pl3   
  11 C11            4.2046    -2.1052     1.7077 C.ar    
  12 C12            3.1491    -1.5907     0.9568 C.ar    
  13 C13            3.4090    -0.8012    -0.1442 C.ar    
  14 C14            4.7172    -0.5196    -0.5041 C.ar    
  15 C15            5.7693    -1.0289     0.2393 C.ar    
  16 C16            5.5185    -1.8194     1.3422 C.ar    
  17 C17            3.9299    -2.9497     2.8962 C.ar    
  18 C18            4.5744    -4.1785     3.0463 C.ar    
  19 C19            4.3146    -4.9612     4.1555 C.ar    
  20 C20            3.4181    -4.5288     5.1155 C.ar    
  21 C21            2.7753    -3.3103     4.9714 C.ar    
  22 C22            3.0322    -2.5165     3.8690 C.ar    
  23 F23            1.9002    -2.8941     5.9128 F       
  24 F24            4.9672     0.2536    -1.5834 F       
  25 F25            5.4501    -4.6023     2.1090 F       
  26 C26            2.1831     2.7861    -3.1406 C.3     
  27 H27            3.4538     1.5459    -1.2250 H       
  28 H28            1.9515     3.1229    -0.1499 H       
  29 H29            2.1946     1.7422     0.9464 H       
  30 H30            3.3693    -1.0652    -2.6480 H       
  31 H31            1.6576    -1.5668    -2.5766 H       
  32 H32            0.5948     1.5692    -2.3096 H       
  33 H33           -1.8759    -0.1890     0.7809 H       
  34 H34           -1.1118    -1.6513     0.4642 H       
  35 H35            2.1292    -1.8100     1.2364 H       
  36 H36            6.7874    -0.8072    -0.0449 H       
  37 H37            6.3393    -2.2158     1.9214 H       
  38 H38            4.8125    -5.9124     4.2725 H       
  39 H39            3.2181    -5.1435     5.9807 H       
  40 H40            2.5344    -1.5642     3.7602 H       
  41 H41            3.2520     2.6925    -3.3320 H       
  42 H42            1.6571     2.9376    -4.0833 H       
  43 H43            2.0046     3.6377    -2.4841 H       
@<TRIPOS>BOND
   1    1    2 1
   2    1    6 1
   3    2    3 2
   4    2   10 1
   5    3    4 1
   6    4    8 1
   7    4   13 1
   8    4    5 1
   9    5    6 1
  10    5    9 1
  11    5   27 1
  12    6   28 1
  13    6   29 1
  14    7    8 1
  15    7    9 1
  16    8   30 1
  17    8   31 1
  18    9   26 1
  19    9   32 1
  20   10   33 1
  21   10   34 1
  22   11   12 ar
  23   11   16 ar
  24   11   17 1
  25   12   13 ar
  26   12   35 1
  27   13   14 ar
  28   14   15 ar
  29   14   24 1
  30   15   16 ar
  31   15   36 1
  32   16   37 1
  33   17   18 ar
  34   17   22 ar
  35   18   19 ar
  36   18   25 1
  37   19   20 ar
  38   19   38 1
  39   20   21 ar
  40   20   39 1
  41   21   22 ar
  42   21   23 1
  43   22   40 1
  44   26   41 1
  45   26   42 1
  46   26   43 1

#	End of record

