#	Name: ASD01910887
#	Creating user name:	WinNT
#	Creation time:	15. 06. 2019 19:56

#	Modifying user name:	WinNT
#	Modification time:	15. 06. 2019 19:56

#	Program:	/corina/corina34_cracker 3.40 0067  02.08.2006

@<TRIPOS>MOLECULE
ASD01910887
  51   54    0    0    0
SMALL
NO_CHARGES


@<TRIPOS>ATOM
   1 C1             0.1746     1.5043    -0.2956 C.ar    
   2 N2             0.1295     0.1172    -0.2170 N.3     
   3 C3             1.4806    -0.4572    -0.2680 C.3     
   4 C4             1.4022    -1.9635     0.0023 C.3     
   5 N5             0.4382    -2.5571    -0.9366 N.am    
   6 C6            -0.8964    -1.9479    -1.0416 C.3     
   7 C7            -0.7275    -0.4422    -1.2708 C.3     
   8 C8             0.7688    -3.6311    -1.6806 C.2     
   9 C9            -0.2516    -4.2875    -2.5259 C.ar    
  10 C10            0.0871    -4.7506    -3.7993 C.ar    
  11 C11           -0.8641    -5.3639    -4.5908 C.ar    
  12 C12           -2.1554    -5.5240    -4.1306 C.ar    
  13 C13           -2.5090    -5.0649    -2.8579 C.ar    
  14 C14           -1.5513    -4.4503    -2.0515 C.ar    
  15 C15           -3.8492    -5.2310    -2.3814 C.1     
  16 O16            1.9058    -4.0602    -1.6569 O.2     
  17 C17           -4.9479    -5.3672    -1.9908 C.1     
  18 C18           -6.2880    -5.5333    -1.5143 C.ar    
  19 C19           -6.6523    -5.0785    -0.2446 C.ar    
  20 N20           -7.8849    -5.2316     0.1928 N.ar    
  21 C21           -8.8167    -5.8129    -0.5381 C.ar    
  22 C22           -8.5364    -6.2910    -1.8060 C.ar    
  23 C23           -7.2584    -6.1498    -2.3160 C.ar    
  24 N24            0.7769     2.0840    -1.3223 N.ar    
  25 C25            0.8416     3.3973    -1.4351 C.ar    
  26 C26            0.2794     4.2185    -0.4788 C.ar    
  27 C27           -0.3619     3.6501     0.6142 C.ar    
  28 C28           -0.4188     2.2711     0.7023 C.ar    
  29 C29           -1.1038     1.6080     1.8694 C.3     
  30 F30           -1.6977     2.5836     2.6773 F       
  31 F31           -2.0870     0.7321     1.3968 F       
  32 F32           -0.1627     0.8926     2.6176 F       
  33 H33            1.9113    -0.2866    -1.2547 H       
  34 H34            2.1058     0.0162     0.4890 H       
  35 H35            2.3835    -2.4138    -0.1469 H       
  36 H36            1.0694    -2.1349     1.0260 H       
  37 H37           -1.4348    -2.3880    -1.8810 H       
  38 H38           -1.4502    -2.1179    -0.1182 H       
  39 H39           -1.7036     0.0419    -1.2411 H       
  40 H40           -0.2661    -0.2719    -2.2435 H       
  41 H41            1.0955    -4.6284    -4.1662 H       
  42 H42           -0.5963    -5.7196    -5.5748 H       
  43 H43           -2.8943    -6.0046    -4.7548 H       
  44 H44           -1.8184    -4.0936    -1.0677 H       
  45 H45           -5.9170    -4.5976     0.3834 H       
  46 H46           -9.8151    -5.9178    -0.1399 H       
  47 H47           -9.3087    -6.7654    -2.3931 H       
  48 H48           -7.0123    -6.5138    -3.3025 H       
  49 H49            1.3413     3.8351    -2.2866 H       
  50 H50            0.3380     5.2922    -0.5791 H       
  51 H51           -0.8094     4.2710     1.3761 H       
@<TRIPOS>BOND
   1    1    2 1
   2    1   24 ar
   3    1   28 ar
   4    2    3 1
   5    2    7 1
   6    3    4 1
   7    3   33 1
   8    3   34 1
   9    4    5 1
  10    4   35 1
  11    4   36 1
  12    5    6 1
  13    5    8 am
  14    6    7 1
  15    6   37 1
  16    6   38 1
  17    7   39 1
  18    7   40 1
  19    8    9 1
  20    8   16 2
  21    9   10 ar
  22    9   14 ar
  23   10   11 ar
  24   10   41 1
  25   11   12 ar
  26   11   42 1
  27   12   13 ar
  28   12   43 1
  29   13   14 ar
  30   13   15 1
  31   14   44 1
  32   15   17 3
  33   17   18 1
  34   18   19 ar
  35   18   23 ar
  36   19   20 ar
  37   19   45 1
  38   20   21 ar
  39   21   22 ar
  40   21   46 1
  41   22   23 ar
  42   22   47 1
  43   23   48 1
  44   24   25 ar
  45   25   26 ar
  46   25   49 1
  47   26   27 ar
  48   26   50 1
  49   27   28 ar
  50   27   51 1
  51   28   29 1
  52   29   30 1
  53   29   31 1
  54   29   32 1

#	End of record

