#	Name: ASD01914712
#	Creating user name:	WinNT
#	Creation time:	15. 06. 2019 20:04

#	Modifying user name:	WinNT
#	Modification time:	15. 06. 2019 20:04

#	Program:	/corina/corina34_cracker 3.40 0067  02.08.2006

@<TRIPOS>MOLECULE
ASD01914712
  55   59    0    0    0
SMALL
NO_CHARGES


@<TRIPOS>ATOM
   1 C1            -0.0168     1.3896     0.0097 C.ar    
   2 C2             0.0021    -0.0041     0.0020 C.ar    
   3 C3             1.2210    -0.6608    -0.0132 C.ar    
   4 C4             2.3830     0.1001    -0.0202 C.ar    
   5 C5             2.2882     1.4856    -0.0119 C.ar    
   6 N6             1.1163     2.0811     0.0026 N.ar    
   7 C7            -1.3128     2.1054     0.0197 C.2     
   8 O8            -2.3535     1.4779     0.0212 O.2     
   9 N9            -1.3383     3.4529     0.0271 N.am    
  10 C10           -2.6206     4.1612     0.0371 C.3     
  11 C11           -2.3696     5.6705     0.0441 C.3     
  12 C12           -3.7088     6.4102     0.0544 C.3     
  13 C13           -4.4981     6.0186     1.3053 C.3     
  14 C14           -4.7491     4.5094     1.2983 C.3     
  15 C15           -5.5502     4.1314     0.0507 C.3     
  16 C16           -4.7609     4.5230    -1.2001 C.3     
  17 C17           -3.4217     3.7832    -1.2105 C.3     
  18 C18           -4.5099     6.0322    -1.1931 C.3     
  19 C19           -3.4099     3.7697     1.2879 C.3     
  20 N20           -3.4684     7.8553     0.0611 N.am    
  21 C21           -4.5092     8.7115     0.0707 C.2     
  22 O22           -5.6470     8.2849     0.0738 O.2     
  23 C23           -4.2661    10.1731     0.0775 C.ar    
  24 C24           -5.3462    11.0530     0.0874 C.ar    
  25 C25           -5.1030    12.4173     0.0941 C.ar    
  26 C26           -3.7874    12.8545     0.0907 C.ar    
  27 C27           -2.7621    11.9226     0.0808 C.ar    
  28 N28           -3.0212    10.6331     0.0797 N.ar    
  29 C29           -1.3304    12.3929     0.0771 C.3     
  30 F30            3.5927    -0.5013    -0.0346 F       
  31 H31           -0.9214    -0.5641     0.0082 H       
  32 H32            1.2671    -1.7398    -0.0191 H       
  33 H33            3.1888     2.0815    -0.0170 H       
  34 H34           -0.5076     3.9537     0.0259 H       
  35 H35           -1.7989     5.9397     0.9328 H       
  36 H36           -1.8073     5.9494    -0.8471 H       
  37 H37           -3.9274     6.2879     2.1941 H       
  38 H38           -5.4522     6.5456     1.3127 H       
  39 H39           -5.3114     4.2304     2.1894 H       
  40 H40           -5.7290     3.0562     0.0457 H       
  41 H41           -6.5043     4.6584     0.0581 H       
  42 H42           -5.3316     4.2537    -2.0889 H       
  43 H43           -2.8594     4.0622    -2.1016 H       
  44 H44           -3.6005     2.7080    -1.2155 H       
  45 H45           -5.4640     6.5592    -1.1857 H       
  46 H46           -3.9476     6.3112    -2.0843 H       
  47 H47           -3.5887     2.6944     1.2829 H       
  48 H48           -2.8392     4.0389     2.1767 H       
  49 H49           -2.5602     8.1959     0.0587 H       
  50 H50           -6.3587    10.6771     0.0894 H       
  51 H51           -5.9197    13.1239     0.1015 H       
  52 H52           -3.5639    13.9111     0.0954 H       
  53 H53           -0.9806    12.5004     1.1038 H       
  54 H54           -0.7097    11.6637    -0.4437 H       
  55 H55           -1.2652    13.3548    -0.4315 H       
@<TRIPOS>BOND
   1    1    2 ar
   2    1    6 ar
   3    1    7 1
   4    2    3 ar
   5    2   31 1
   6    3    4 ar
   7    3   32 1
   8    4    5 ar
   9    4   30 1
  10    5    6 ar
  11    5   33 1
  12    7    8 2
  13    7    9 am
  14    9   10 1
  15    9   34 1
  16   10   11 1
  17   10   17 1
  18   10   19 1
  19   11   12 1
  20   11   35 1
  21   11   36 1
  22   12   13 1
  23   12   18 1
  24   12   20 1
  25   13   14 1
  26   13   37 1
  27   13   38 1
  28   14   15 1
  29   14   19 1
  30   14   39 1
  31   15   16 1
  32   15   40 1
  33   15   41 1
  34   16   17 1
  35   16   18 1
  36   16   42 1
  37   17   43 1
  38   17   44 1
  39   18   45 1
  40   18   46 1
  41   19   47 1
  42   19   48 1
  43   20   21 am
  44   20   49 1
  45   21   22 2
  46   21   23 1
  47   23   24 ar
  48   23   28 ar
  49   24   25 ar
  50   24   50 1
  51   25   26 ar
  52   25   51 1
  53   26   27 ar
  54   26   52 1
  55   27   28 ar
  56   27   29 1
  57   29   53 1
  58   29   54 1
  59   29   55 1

#	End of record

