#	Name: ASD02500122
#	Creating user name:	WinNT
#	Creation time:	15. 06. 2019 20:22

#	Modifying user name:	WinNT
#	Modification time:	15. 06. 2019 20:22

#	Program:	/corina/corina34_cracker 3.40 0067  02.08.2006

@<TRIPOS>MOLECULE
ASD02500122
  59   63    0    0    0
SMALL
NO_CHARGES


@<TRIPOS>ATOM
   1 N1            -3.4317     5.5022     0.3046 N.ar    
   2 C2            -4.5648     6.1382     0.1316 C.ar    
   3 C3            -5.6780     5.8834     0.9299 C.ar    
   4 C4            -5.6048     4.9492     1.9235 C.ar    
   5 C5            -4.3865     4.2678     2.1060 C.ar    
   6 C6            -4.2358     3.2949     3.1068 C.ar    
   7 C7            -3.0408     2.6581     3.2518 C.ar    
   8 C8            -1.9647     2.9596     2.4200 C.ar    
   9 C9            -2.0759     3.8972     1.4397 C.ar    
  10 C10           -3.2932     4.5761     1.2588 C.ar    
  11 S11           -0.6986     4.2594     0.4021 S.o2    
  12 O12           -0.5792     5.6751     0.3733 O.2     
  13 O13            0.3535     3.3990     0.8168 O.2     
  14 N14           -1.1060     3.7932    -1.1338 N.am    
  15 C15           -1.3336     2.4507    -1.4156 C.ar    
  16 C16           -2.4370     2.0785    -2.1785 C.ar    
  17 C17           -2.6651     0.7507    -2.4591 C.ar    
  18 C18           -1.7873    -0.2247    -1.9771 C.ar    
  19 C19           -0.6803     0.1523    -1.2112 C.ar    
  20 C20           -0.4546     1.4822    -0.9389 C.ar    
  21 C21           -2.0291    -1.6491    -2.2756 C.2     
  22 O22           -1.1003    -2.3729    -2.5787 O.2     
  23 N23           -3.2795    -2.1480    -2.2123 N.am    
  24 C24           -3.5239    -3.5823    -2.4197 C.3     
  25 C25           -4.2807    -4.1313    -1.2040 C.3     
  26 N26           -5.4241    -3.2510    -0.9258 N.am    
  27 C27           -5.1798    -1.8167    -0.7183 C.3     
  28 C28           -4.4223    -1.2686    -1.9285 C.3     
  29 C29           -6.6745    -3.7500    -0.8625 C.2     
  30 C30           -7.8008    -2.8739    -0.4810 C.ar    
  31 C31           -7.7493    -2.1208     0.6990 C.ar    
  32 C32           -8.8290    -1.3158     1.0110 C.ar    
  33 C33           -9.9181    -1.2792     0.1552 C.ar    
  34 N34           -9.9402    -2.0001    -0.9507 N.ar    
  35 C35           -8.9329    -2.7780    -1.2941 C.ar    
  36 O36           -6.8754    -4.9211    -1.1193 O.2     
  37 Cl37         -11.2758    -0.2696     0.5437 Cl      
  38 Cl38          -9.0170    -3.6967    -2.7647 Cl      
  39 H39           -4.6373     6.8797    -0.6503 H       
  40 H40           -6.5977     6.4244     0.7634 H       
  41 H41           -6.4577     4.7393     2.5518 H       
  42 H42           -5.0626     3.0531     3.7582 H       
  43 H43           -2.9258     1.9098     4.0220 H       
  44 H44           -1.0270     2.4412     2.5554 H       
  45 H45           -1.1858     4.4566    -1.8370 H       
  46 H46           -3.1150     2.8325    -2.5504 H       
  47 H47           -3.5214     0.4625    -3.0507 H       
  48 H48           -0.0006    -0.5990    -0.8371 H       
  49 H49            0.4032     1.7745    -0.3513 H       
  50 H50           -4.1234    -3.7249    -3.3188 H       
  51 H51           -2.5727    -4.1040    -2.5247 H       
  52 H52           -4.6382    -5.1382    -1.4198 H       
  53 H53           -3.6172    -4.1535    -0.3395 H       
  54 H54           -6.1310    -1.2950    -0.6133 H       
  55 H55           -4.5803    -1.6741     0.1808 H       
  56 H56           -4.0642    -0.2627    -1.7091 H       
  57 H57           -5.0872    -1.2427    -2.7918 H       
  58 H58           -6.8879    -2.1681     1.3488 H       
  59 H59           -8.8238    -0.7217     1.9129 H       
@<TRIPOS>BOND
   1    1    2 ar
   2    1   10 ar
   3    2    3 ar
   4    2   39 1
   5    3    4 ar
   6    3   40 1
   7    4    5 ar
   8    4   41 1
   9    5    6 ar
  10    5   10 ar
  11    6    7 ar
  12    6   42 1
  13    7    8 ar
  14    7   43 1
  15    8    9 ar
  16    8   44 1
  17    9   10 ar
  18    9   11 1
  19   11   12 2
  20   11   13 2
  21   11   14 am
  22   14   15 1
  23   14   45 1
  24   15   16 ar
  25   15   20 ar
  26   16   17 ar
  27   16   46 1
  28   17   18 ar
  29   17   47 1
  30   18   19 ar
  31   18   21 1
  32   19   20 ar
  33   19   48 1
  34   20   49 1
  35   21   22 2
  36   21   23 am
  37   23   24 1
  38   23   28 1
  39   24   25 1
  40   24   50 1
  41   24   51 1
  42   25   26 1
  43   25   52 1
  44   25   53 1
  45   26   27 1
  46   26   29 am
  47   27   28 1
  48   27   54 1
  49   27   55 1
  50   28   56 1
  51   28   57 1
  52   29   30 1
  53   29   36 2
  54   30   31 ar
  55   30   35 ar
  56   31   32 ar
  57   31   58 1
  58   32   33 ar
  59   32   59 1
  60   33   34 ar
  61   33   37 1
  62   34   35 ar
  63   35   38 1

#	End of record

