#	Name: ASD05380031
#	Creating user name:	WinNT
#	Creation time:	15. 06. 2019 20:59

#	Modifying user name:	WinNT
#	Modification time:	15. 06. 2019 20:59

#	Program:	/corina/corina34_cracker 3.40 0067  02.08.2006

@<TRIPOS>MOLECULE
ASD05380031
  53   58    0    0    0
SMALL
NO_CHARGES


@<TRIPOS>ATOM
   1 C1             0.4230     0.9583    -0.0489 C.ar    
   2 C2             0.2844    -0.3620    -0.5327 C.ar    
   3 C3             1.6769     1.5650    -0.0254 C.ar    
   4 C4             2.7768     0.8682    -0.4766 C.ar    
   5 C5             2.6442    -0.4292    -0.9531 C.ar    
   6 C6             1.4140    -1.0472    -0.9839 C.ar    
   7 C7             1.8292     2.9732     0.4893 C.3     
   8 N8            -0.9462    -0.9325    -0.5457 N.2     
   9 C9            -1.9964    -0.2953    -0.1252 C.2     
  10 N10           -1.9562     0.9766     0.3564 N.am    
  11 C11           -0.7844     1.6503     0.4250 C.2     
  12 C12           -3.1372     1.5922     0.7900 C.ar    
  13 C13           -3.8640     1.0428     1.8380 C.ar    
  14 C14           -3.5807     2.7564     0.1766 C.ar    
  15 C15           -4.7454     3.3613     0.6067 C.ar    
  16 C16           -5.4695     2.8091     1.6474 C.ar    
  17 C17           -5.0279     1.6525     2.2635 C.ar    
  18 C18           -3.3276    -1.0001    -0.1734 C.3     
  19 N19           -4.0833    -0.5638    -1.3619 N.3     
  20 O20           -0.7336     2.7885     0.8537 O.2     
  21 N21           -2.1581     0.2262    -2.4720 N.ar    
  22 C22           -3.4013     0.4262    -2.0474 C.ar    
  23 C23           -1.4998     1.1651    -3.1273 C.ar    
  24 N24           -2.0270     2.3406    -3.3967 N.ar    
  25 C25           -3.2654     2.6319    -3.0117 C.ar    
  26 C26           -4.0076     1.6664    -2.3112 C.ar    
  27 N27           -4.0843     3.7264    -3.1293 N.pl3   
  28 C28           -5.2655     3.4202    -2.5217 C.2     
  29 N29           -5.2184     2.2112    -2.0424 N.2     
  30 C30           -4.3208    -1.7394    -2.2264 C.3     
  31 C31           -4.2439    -2.9557    -1.2702 C.3     
  32 C32           -3.1111    -2.5225    -0.3027 C.3     
  33 H33            3.7504     1.3354    -0.4598 H       
  34 H34            3.5168    -0.9604    -1.3035 H       
  35 H35            1.3233    -2.0570    -1.3560 H       
  36 H36            1.9123     2.9558     1.5760 H       
  37 H37            2.7273     3.4205     0.0634 H       
  38 H38            0.9582     3.5616     0.2009 H       
  39 H39           -3.5197     0.1395     2.3195 H       
  40 H40           -3.0153     3.1885    -0.6358 H       
  41 H41           -5.0909     4.2667     0.1301 H       
  42 H42           -6.3796     3.2844     1.9825 H       
  43 H43           -5.5958     1.2234     3.0758 H       
  44 H44           -3.8968    -0.7793     0.7295 H       
  45 H45           -0.4909     0.9607    -3.4541 H       
  46 H46           -3.8631     4.5646    -3.5646 H       
  47 H47           -6.1148     4.0833    -2.4484 H       
  48 H48           -5.3075    -1.6796    -2.6857 H       
  49 H49           -3.5484    -1.8095    -2.9924 H       
  50 H50           -5.1837    -3.0916    -0.7350 H       
  51 H51           -3.9701    -3.8613    -1.8115 H       
  52 H52           -2.1332    -2.7376    -0.7335 H       
  53 H53           -3.2230    -3.0112     0.6651 H       
@<TRIPOS>BOND
   1    1    2 ar
   2    1    3 ar
   3    1   11 1
   4    2    8 1
   5    2    6 ar
   6    3    4 ar
   7    3    7 1
   8    4    5 ar
   9    4   33 1
  10    5    6 ar
  11    5   34 1
  12    6   35 1
  13    7   36 1
  14    7   37 1
  15    7   38 1
  16    8    9 2
  17    9   10 1
  18    9   18 1
  19   10   11 am
  20   10   12 1
  21   11   20 2
  22   12   13 ar
  23   12   14 ar
  24   13   17 ar
  25   13   39 1
  26   14   15 ar
  27   14   40 1
  28   15   16 ar
  29   15   41 1
  30   16   17 ar
  31   16   42 1
  32   17   43 1
  33   18   19 1
  34   18   32 1
  35   18   44 1
  36   19   30 1
  37   19   22 1
  38   21   22 ar
  39   21   23 ar
  40   22   26 ar
  41   23   24 ar
  42   23   45 1
  43   24   25 ar
  44   25   26 ar
  45   25   27 1
  46   26   29 1
  47   27   28 1
  48   27   46 1
  49   28   29 2
  50   28   47 1
  51   30   31 1
  52   30   48 1
  53   30   49 1
  54   31   32 1
  55   31   50 1
  56   31   51 1
  57   32   52 1
  58   32   53 1

#	End of record

