#	Name: ASD08590001
#	Creating user name:	WinNT
#	Creation time:	15. 06. 2019 21:19

#	Modifying user name:	WinNT
#	Modification time:	15. 06. 2019 21:19

#	Program:	/corina/corina34_cracker 3.40 0067  02.08.2006

@<TRIPOS>MOLECULE
ASD08590001
  44   46    0    0    0
SMALL
NO_CHARGES


@<TRIPOS>ATOM
   1 N1            -0.0162     1.3435     0.0094 N.am    
   2 C2             0.0017    -0.0038    -0.0205 C.2     
   3 C3            -1.4517    -0.4335     0.0017 C.3     
   4 N4            -2.1890     0.8410     0.0457 N.am    
   5 C5            -1.2658     1.8195     0.0521 C.2     
   6 C6            -3.5733     1.0018     0.0787 C.ar    
   7 C7            -4.1219     2.2786     0.1188 C.ar    
   8 C8            -4.4022    -0.1166     0.0657 C.ar    
   9 C9            -5.7692     0.0359     0.0972 C.ar    
  10 C10           -6.3277     1.3173     0.1429 C.ar    
  11 C11           -5.4915     2.4414     0.1511 C.ar    
  12 C12           -7.7907     1.4847     0.1763 C.2     
  13 O13           -8.2741     2.5990     0.2160 O.2     
  14 O14           -8.5933     0.4021     0.1627 O.3     
  15 F15           -6.0250     3.6818     0.1957 F       
  16 O16            0.9773    -0.7224    -0.0582 O.2     
  17 C17           -1.8017    -1.2143    -1.2667 C.3     
  18 C18           -1.7469    -1.2695     1.2487 C.3     
  19 C19            1.1301     2.1449     0.0028 C.ar    
  20 C20            2.3874     1.5576     0.0927 C.ar    
  21 C21            1.0099     3.5261    -0.0995 C.ar    
  22 C22            2.1364     4.3186    -0.1068 C.ar    
  23 C23            3.4014     3.7326    -0.0113 C.ar    
  24 C24            3.5184     2.3432     0.0860 C.ar    
  25 O25           -1.5368     3.0037     0.0854 O.2     
  26 C26            4.5750     4.5530    -0.0190 C.1     
  27 N27            5.5061     5.2038    -0.0251 N.1     
  28 C28            4.8802     1.7061     0.1892 C.3     
  29 F29            4.7398     0.3168     0.2750 F       
  30 F30            5.6335     2.0296    -0.9444 F       
  31 F31            5.5315     2.1805     1.3329 F       
  32 H32           -3.4754     3.1437     0.1251 H       
  33 H33           -3.9713    -1.1063     0.0303 H       
  34 H34           -6.4104    -0.8330     0.0862 H       
  35 H35           -9.5467     0.5621     0.1859 H       
  36 H36           -1.1900    -2.1150    -1.3193 H       
  37 H37           -2.8555    -1.4916    -1.2435 H       
  38 H38           -1.6087    -0.5925    -2.1409 H       
  39 H39           -1.5154    -0.6865     2.1401 H       
  40 H40           -2.8010    -1.5465     1.2593 H       
  41 H41           -1.1344    -2.1710     1.2351 H       
  42 H42            2.4770     0.4839     0.1682 H       
  43 H43            0.0319     3.9782    -0.1736 H       
  44 H44            2.0422     5.3915    -0.1866 H       
@<TRIPOS>BOND
   1    1    2 am
   2    1   19 1
   3    1    5 am
   4    2    3 1
   5    2   16 2
   6    3    4 1
   7    3   17 1
   8    3   18 1
   9    4    5 am
  10    4    6 1
  11    5   25 2
  12    6    7 ar
  13    6    8 ar
  14    7   11 ar
  15    7   32 1
  16    8    9 ar
  17    8   33 1
  18    9   10 ar
  19    9   34 1
  20   10   11 ar
  21   10   12 1
  22   11   15 1
  23   12   13 2
  24   12   14 1
  25   14   35 1
  26   17   36 1
  27   17   37 1
  28   17   38 1
  29   18   39 1
  30   18   40 1
  31   18   41 1
  32   19   20 ar
  33   19   21 ar
  34   20   24 ar
  35   20   42 1
  36   21   22 ar
  37   21   43 1
  38   22   23 ar
  39   22   44 1
  40   23   24 ar
  41   23   26 1
  42   24   28 1
  43   26   27 3
  44   28   29 1
  45   28   30 1
  46   28   31 1

#	End of record

