#	Name: ASD02560393
#	Creating user name:	WinNT
#	Creation time:	15. 06. 2019 20:25

#	Modifying user name:	WinNT
#	Modification time:	15. 06. 2019 20:25

#	Program:	/corina/corina34_cracker 3.40 0067  02.08.2006

@<TRIPOS>MOLECULE
ASD02560393
  45   48    0    0    0
SMALL
NO_CHARGES


@<TRIPOS>ATOM
   1 C1             0.1343     1.3777     1.0860 C.2     
   2 C2             0.1584    -0.0113     1.0923 C.2     
   3 C3             1.3191    -0.6738     0.7617 C.2     
   4 N4             2.4418     0.0189     0.4298 N.pl3   
   5 C5             2.4484     1.3865     0.4148 C.2     
   6 C6             1.2903     2.0820     0.7438 C.2     
   7 C7             3.7076    -0.4067     0.0670 C.2     
   8 C8             4.4870     0.8390    -0.1708 C.2     
   9 N9             3.6749     1.8420     0.0550 N.2     
  10 C10            5.9002     0.9270    -0.5811 C.ar    
  11 N11            4.1360    -1.6603    -0.0452 N.3     
  12 C12            3.0225    -2.6104     0.0795 C.3     
  13 C13            3.3768    -3.9096    -0.6468 C.3     
  14 C14            2.7677    -2.9062     1.5588 C.3     
  15 C15            1.6079    -3.8957     1.6887 C.3     
  16 C16            1.9622    -5.1949     0.9624 C.3     
  17 C17            2.2170    -4.8990    -0.5169 C.3     
  18 C18            6.8264    -0.0175    -0.1227 C.ar    
  19 C19            6.3222     1.9524    -1.4361 C.ar    
  20 C20            7.6450     2.0277    -1.8149 C.ar    
  21 C21            8.5561     1.0926    -1.3524 C.ar    
  22 C22            8.1455     0.0719    -0.5109 C.ar    
  23 N23            9.9749     1.1808    -1.7648 N.pl3   
  24 O24           10.3680     2.1465    -2.5694 O.2     
  25 O25           10.8443     0.2936    -1.3271 O.2     
  26 H26           -0.7718     1.9080     1.3393 H       
  27 H27           -0.7287    -0.5684     1.3554 H       
  28 H28            1.3385    -1.7536     0.7664 H       
  29 H29            1.2849     3.1619     0.7347 H       
  30 H30            4.6321    -1.7966    -0.9131 H       
  31 H31            2.1254    -2.1789    -0.3645 H       
  32 H32            3.5583    -3.6988    -1.7007 H       
  33 H33            4.2739    -4.3410    -0.2027 H       
  34 H34            3.6648    -3.3376     2.0029 H       
  35 H35            2.5153    -1.9806     2.0762 H       
  36 H36            1.4264    -4.1064     2.7426 H       
  37 H37            0.7108    -3.4642     1.2447 H       
  38 H38            2.8593    -5.6263     1.4064 H       
  39 H39            1.1360    -5.8998     1.0549 H       
  40 H40            1.3199    -4.4676    -0.9609 H       
  41 H41            2.4695    -5.8246    -1.0343 H       
  42 H42            6.5079    -0.8138     0.5337 H       
  43 H43            5.6129     2.6820    -1.7979 H       
  44 H44            7.9720     2.8178    -2.4746 H       
  45 H45            8.8621    -0.6533    -0.1546 H       
@<TRIPOS>BOND
   1    1    2 1
   2    1    6 2
   3    1   26 1
   4    2    3 2
   5    2   27 1
   6    3    4 1
   7    3   28 1
   8    4    5 1
   9    4    7 1
  10    5    6 1
  11    5    9 2
  12    6   29 1
  13    7    8 2
  14    7   11 1
  15    8    9 1
  16    8   10 1
  17   10   19 ar
  18   10   18 ar
  19   11   12 1
  20   11   30 1
  21   12   13 1
  22   12   14 1
  23   12   31 1
  24   13   17 1
  25   13   32 1
  26   13   33 1
  27   14   15 1
  28   14   34 1
  29   14   35 1
  30   15   16 1
  31   15   36 1
  32   15   37 1
  33   16   17 1
  34   16   38 1
  35   16   39 1
  36   17   40 1
  37   17   41 1
  38   18   22 ar
  39   18   42 1
  40   19   20 ar
  41   19   43 1
  42   20   21 ar
  43   20   44 1
  44   21   22 ar
  45   21   23 1
  46   22   45 1
  47   23   24 2
  48   23   25 2

#	End of record

