#	Name: ASD01882762
#	Creating user name:	WinNT
#	Creation time:	15. 06. 2019 19:45

#	Modifying user name:	WinNT
#	Modification time:	15. 06. 2019 19:45

#	Program:	/corina/corina34_cracker 3.40 0067  02.08.2006

@<TRIPOS>MOLECULE
ASD01882762
  36   37    0    0    0
SMALL
NO_CHARGES


@<TRIPOS>ATOM
   1 O1            -0.0173     1.4248     0.0099 O.3     
   2 C2             0.0021    -0.0041     0.0020 C.3     
   3 C3             1.2831     0.8325    -0.0057 C.3     
   4 C4            -0.3680    -0.7292     1.2974 C.3     
   5 O5            -1.5561    -1.4961     1.0913 O.3     
   6 C6            -2.0238    -2.2062     2.1515 C.ar    
   7 C7            -3.1729    -2.9729     2.0218 C.ar    
   8 C8            -3.6463    -3.6936     3.1008 C.ar    
   9 C9            -2.9761    -3.6512     4.3097 C.ar    
  10 C10           -1.8312    -2.8877     4.4416 C.ar    
  11 C11           -1.3500    -2.1701     3.3634 C.ar    
  12 C12           -3.9042    -3.0188     0.7049 C.3     
  13 C13           -3.4951    -4.4381     5.4855 C.3     
  14 C14           -3.5244    -5.9261     5.1303 C.3     
  15 C15           -2.5778    -4.2194     6.6904 C.3     
  16 C16           -4.9098    -3.9679     5.8295 C.3     
  17 H17           -0.2792    -0.5108    -0.9211 H       
  18 H18            1.8523     0.8812    -0.9340 H       
  19 H19            1.8699     0.8713     0.9120 H       
  20 H20            0.4467    -1.3924     1.5881 H       
  21 H21           -0.5402     0.0024     2.0869 H       
  22 H22           -4.5407    -4.2906     3.0004 H       
  23 H23           -1.3099    -2.8559     5.3869 H       
  24 H24           -0.4528    -1.5776     3.4656 H       
  25 H25           -3.5108    -3.8351     0.0991 H       
  26 H26           -4.9672    -3.1797     0.8851 H       
  27 H27           -3.7637    -2.0750     0.1782 H       
  28 H28           -2.5165    -6.2610     4.8853 H       
  29 H29           -3.8998    -6.4953     5.9808 H       
  30 H30           -4.1779    -6.0819     4.2719 H       
  31 H31           -2.5569    -3.1594     6.9434 H       
  32 H32           -2.9532    -4.7886     7.5408 H       
  33 H33           -1.5700    -4.5544     6.4453 H       
  34 H34           -5.5632    -4.1237     4.9711 H       
  35 H35           -5.2851    -4.5371     6.6799 H       
  36 H36           -4.8889    -2.9079     6.0825 H       
@<TRIPOS>BOND
   1    1    2 1
   2    1    3 1
   3    2    3 1
   4    2    4 1
   5    2   17 1
   6    3   18 1
   7    3   19 1
   8    4    5 1
   9    4   20 1
  10    4   21 1
  11    5    6 1
  12    6    7 ar
  13    6   11 ar
  14    7    8 ar
  15    7   12 1
  16    8    9 ar
  17    8   22 1
  18    9   10 ar
  19    9   13 1
  20   10   11 ar
  21   10   23 1
  22   11   24 1
  23   12   25 1
  24   12   26 1
  25   12   27 1
  26   13   14 1
  27   13   16 1
  28   13   15 1
  29   14   28 1
  30   14   29 1
  31   14   30 1
  32   15   31 1
  33   15   32 1
  34   15   33 1
  35   16   34 1
  36   16   35 1
  37   16   36 1

#	End of record

