#	Name: ASD01148823
#	Creating user name:	WinNT
#	Creation time:	15. 06. 2019 19:03

#	Modifying user name:	WinNT
#	Modification time:	15. 06. 2019 19:03

#	Program:	/corina/corina34_cracker 3.40 0067  02.08.2006

@<TRIPOS>MOLECULE
ASD01148823
  49   49    0    0    0
SMALL
NO_CHARGES


@<TRIPOS>ATOM
   1 C1            -0.0184     1.5028     0.0103 C.2     
   2 C2             0.0021    -0.0041     0.0020 C.3     
   3 C3            -0.7132    -0.5094    -1.2244 C.2     
   4 C4            -2.2111    -0.6738    -1.2090 C.3     
   5 O5             1.0197     2.1211     0.0037 O.2     
   6 O6            -1.1898     2.1580     0.0194 O.3     
   7 C7             1.4513    -0.4944    -0.0145 C.3     
   8 C8             1.4746    -1.9968     0.1011 C.2     
   9 C9             2.7595    -2.7143     0.1084 C.ar    
  10 C10            2.7853    -4.1085     0.2155 C.ar    
  11 C11            3.9932    -4.7736     0.2211 C.ar    
  12 C12            5.1779    -4.0650     0.1212 C.ar    
  13 C13            5.1607    -2.6852     0.0154 C.ar    
  14 C14            3.9607    -2.0060     0.0025 C.ar    
  15 C15            6.4936    -4.7999     0.1282 C.3     
  16 C16            6.8843    -5.1599    -1.3066 C.3     
  17 C17            8.2200    -5.9060    -1.2995 C.3     
  18 C18            8.6107    -6.2661    -2.7343 C.3     
  19 C19            9.9465    -7.0121    -2.7272 C.3     
  20 O20            0.4348    -2.6144     0.1880 O.2     
  21 O21           -0.0860    -0.7827    -2.2195 O.2     
  22 C22           -1.1335     3.6089     0.0270 C.3     
  23 C23           -2.5551     4.1744     0.0369 C.3     
  24 H24           -0.4983    -0.3791     0.8948 H       
  25 H25           -2.6816     0.2523    -1.5394 H       
  26 H26           -2.4946    -1.4848    -1.8798 H       
  27 H27           -2.5406    -0.9076    -0.1966 H       
  28 H28            1.9257    -0.1944    -0.9488 H       
  29 H29            1.9924    -0.0570     0.8246 H       
  30 H30            1.8617    -4.6627     0.2939 H       
  31 H31            4.0149    -5.8502     0.3041 H       
  32 H32            6.0894    -2.1393    -0.0615 H       
  33 H33            3.9487    -0.9296    -0.0850 H       
  34 H34            7.2629    -4.1634     0.5654 H       
  35 H35            6.3976    -5.7113     0.7182 H       
  36 H36            6.1149    -5.7964    -1.7438 H       
  37 H37            6.9803    -4.2485    -1.8966 H       
  38 H38            8.9894    -5.2695    -0.8623 H       
  39 H39            8.1240    -6.8174    -0.7095 H       
  40 H40            7.8414    -6.9025    -3.1715 H       
  41 H41            8.7067    -5.3546    -3.3243 H       
  42 H42           10.7158    -6.3756    -2.2900 H       
  43 H43            9.8504    -7.9236    -2.1372 H       
  44 H44           10.2248    -7.2686    -3.7494 H       
  45 H45           -0.6017     3.9472     0.9164 H       
  46 H46           -0.6102     3.9569    -0.8636 H       
  47 H47           -3.0869     3.8361    -0.8525 H       
  48 H48           -3.0784     3.8265     0.9275 H       
  49 H49           -2.5128     5.2636     0.0426 H       
@<TRIPOS>BOND
   1    1    2 1
   2    1    5 2
   3    1    6 1
   4    2    3 1
   5    2    7 1
   6    2   24 1
   7    3    4 1
   8    3   21 2
   9    4   25 1
  10    4   26 1
  11    4   27 1
  12    6   22 1
  13    7    8 1
  14    7   28 1
  15    7   29 1
  16    8    9 1
  17    8   20 2
  18    9   10 ar
  19    9   14 ar
  20   10   11 ar
  21   10   30 1
  22   11   12 ar
  23   11   31 1
  24   12   13 ar
  25   12   15 1
  26   13   14 ar
  27   13   32 1
  28   14   33 1
  29   15   16 1
  30   15   34 1
  31   15   35 1
  32   16   17 1
  33   16   36 1
  34   16   37 1
  35   17   18 1
  36   17   38 1
  37   17   39 1
  38   18   19 1
  39   18   40 1
  40   18   41 1
  41   19   42 1
  42   19   43 1
  43   19   44 1
  44   22   23 1
  45   22   45 1
  46   22   46 1
  47   23   47 1
  48   23   48 1
  49   23   49 1

#	End of record

