#	Name: ASD09740029
#	Creating user name:	WinNT
#	Creation time:	15. 06. 2019 21:22

#	Modifying user name:	WinNT
#	Modification time:	15. 06. 2019 21:22

#	Program:	/corina/corina34_cracker 3.40 0067  02.08.2006

@<TRIPOS>MOLECULE
ASD09740029
  56   59    0    0    0
SMALL
NO_CHARGES


@<TRIPOS>ATOM
   1 N1             0.1983     1.2496    -0.0645 N.2     
   2 O2             0.2606     0.0387    -0.0871 O.3     
   3 C3             1.4000     1.7672    -0.0663 C.2     
   4 N4             2.2794     0.7443    -0.0931 N.2     
   5 C5             1.5444    -0.3527    -0.1062 C.2     
   6 C6             2.0400    -1.7436    -0.1354 C.ar    
   7 C7             1.7342     3.2134    -0.0436 C.ar    
   8 C8             3.4132    -1.9970    -0.1520 C.ar    
   9 C9             1.1363    -2.8086    -0.1406 C.ar    
  10 C10            1.6050    -4.1083    -0.1680 C.ar    
  11 C11            2.9765    -4.3541    -0.1903 C.ar    
  12 C12            3.8743    -3.2959    -0.1797 C.ar    
  13 C13            3.0656     3.6207    -0.0490 C.ar    
  14 C14            3.3712     4.9663    -0.0279 C.ar    
  15 C15            2.3581     5.9062    -0.0014 C.ar    
  16 C16            1.0307     5.5086     0.0043 C.ar    
  17 C17            0.7143     4.1652    -0.0225 C.ar    
  18 C18           -0.2389     6.3329     0.0318 C.3     
  19 C19           -1.3572     5.3672    -0.4145 C.3     
  20 C20           -0.7892     3.9918    -0.0094 C.3     
  21 N21           -0.5001     6.8213     1.3924 N.3     
  22 C22            0.6748     7.5141     1.9377 C.3     
  23 C23           -1.6843     7.6902     1.4216 C.3     
  24 O24            0.7277    -5.1476    -0.1728 O.3     
  25 C25           -1.4888    -6.1106    -0.1580 C.3     
  26 C26           -0.6636    -4.8223    -0.1485 C.3     
  27 O27            3.4357    -5.6325    -0.2167 O.3     
  28 C28            5.1773    -7.3073    -0.2667 C.3     
  29 C29            4.8532    -5.8123    -0.2386 C.3     
  30 H30            4.1141    -1.1753    -0.1434 H       
  31 H31            0.0736    -2.6167    -0.1230 H       
  32 H32            4.9365    -3.4903    -0.1970 H       
  33 H33            3.8568     2.8859    -0.0694 H       
  34 H34            4.4030     5.2852    -0.0317 H       
  35 H35            2.6028     6.9580     0.0153 H       
  36 H36           -0.1619     7.1693    -0.6628 H       
  37 H37           -2.2854     5.5771     0.1169 H       
  38 H38           -1.5065     5.4193    -1.4930 H       
  39 H39           -1.0891     3.2314    -0.7305 H       
  40 H40           -1.1297     3.7215     0.9902 H       
  41 H41            0.9223     8.3647     1.3026 H       
  42 H42            0.4541     7.8654     2.9457 H       
  43 H43            1.5199     6.8264     1.9695 H       
  44 H44           -2.5412     7.1502     1.0188 H       
  45 H45           -1.8921     7.9867     2.4496 H       
  46 H46           -1.4981     8.5784     0.8178 H       
  47 H47           -1.2400    -6.7079     0.7192 H       
  48 H48           -2.5500    -5.8625    -0.1395 H       
  49 H49           -1.2643    -6.6792    -1.0604 H       
  50 H50           -0.8880    -4.2536     0.7539 H       
  51 H51           -0.9124    -4.2249    -1.0256 H       
  52 H52            4.7640    -7.7854     0.6215 H       
  53 H53            4.7402    -7.7571    -1.1581 H       
  54 H54            6.2585    -7.4444    -0.2833 H       
  55 H55            5.2665    -5.3342    -1.1267 H       
  56 H56            5.2903    -5.3624     0.6529 H       
@<TRIPOS>BOND
   1    1    2 1
   2    1    3 2
   3    2    5 1
   4    3    4 1
   5    3    7 1
   6    4    5 2
   7    5    6 1
   8    6    8 ar
   9    6    9 ar
  10    7   13 ar
  11    7   17 ar
  12    8   12 ar
  13    8   30 1
  14    9   10 ar
  15    9   31 1
  16   10   11 ar
  17   10   24 1
  18   11   12 ar
  19   11   27 1
  20   12   32 1
  21   13   14 ar
  22   13   33 1
  23   14   15 ar
  24   14   34 1
  25   15   16 ar
  26   15   35 1
  27   16   17 ar
  28   16   18 1
  29   17   20 1
  30   18   19 1
  31   18   21 1
  32   18   36 1
  33   19   20 1
  34   19   37 1
  35   19   38 1
  36   20   39 1
  37   20   40 1
  38   21   22 1
  39   21   23 1
  40   22   41 1
  41   22   42 1
  42   22   43 1
  43   23   44 1
  44   23   45 1
  45   23   46 1
  46   24   26 1
  47   25   26 1
  48   25   47 1
  49   25   48 1
  50   25   49 1
  51   26   50 1
  52   26   51 1
  53   27   29 1
  54   28   29 1
  55   28   52 1
  56   28   53 1
  57   28   54 1
  58   29   55 1
  59   29   56 1

#	End of record

