#	Name: ASD01881333
#	Creating user name:	WinNT
#	Creation time:	15. 06. 2019 19:42

#	Modifying user name:	WinNT
#	Modification time:	15. 06. 2019 19:42

#	Program:	/corina/corina34_cracker 3.40 0067  02.08.2006

@<TRIPOS>MOLECULE
ASD01881333
  56   60    0    0    0
SMALL
NO_CHARGES


@<TRIPOS>ATOM
   1 C1            -0.1178     1.2745    -0.3103 C.2     
   2 C2            -0.0649    -0.1263    -0.2614 C.2     
   3 C3            -1.2717    -0.8567    -0.2634 C.2     
   4 C4            -2.4617    -0.2293    -0.3117 C.2     
   5 N5            -2.5591     1.1311    -0.3602 N.pl3   
   6 C6            -1.4339     1.9152    -0.3552 C.2     
   7 C7            -3.6340     1.9802    -0.4134 C.2     
   8 C8            -3.1465     3.2384    -0.4452 C.2     
   9 N9            -1.8111     3.1799    -0.4083 N.2     
  10 C10            1.2356    -0.8264    -0.2092 C.ar    
  11 C11            1.5867    -1.5699     0.9177 C.ar    
  12 C12            2.8017    -2.2255     0.9693 C.ar    
  13 C13            3.6753    -2.1515    -0.1060 C.ar    
  14 C14            3.3257    -1.4046    -1.2336 C.ar    
  15 C15            2.1172    -0.7518    -1.2906 C.ar    
  16 C16           -5.0876     1.5832    -0.4332 C.3     
  17 C17            3.1448    -3.0026     2.2152 C.3     
  18 C18            4.3061    -3.9562     1.9249 C.3     
  19 O19            5.3192    -3.2216     1.2260 O.3     
  20 N20            4.9027    -2.8091    -0.1114 N.3     
  21 C21            5.9370    -1.9882    -0.7551 C.3     
  22 C22            7.2432    -2.7812    -0.8316 C.3     
  23 C23            6.1604    -0.7152     0.0636 C.3     
  24 C24            7.2376     0.1398    -0.6068 C.3     
  25 C25            8.5438    -0.6532    -0.6833 C.3     
  26 C26            8.3204    -1.9262    -1.5020 C.3     
  27 O27            9.5499     0.1454    -1.3094 O.3     
  28 C28           -5.5798     1.5216    -1.8805 C.3     
  29 F29           -4.8288     0.5773    -2.5887 F       
  30 F30           -6.9292     1.1530    -1.8989 F       
  31 F31           -5.4314     2.7781    -2.4775 F       
  32 C32            1.0818     2.0566    -0.3103 C.1     
  33 N33            2.0334     2.6771    -0.3103 N.1     
  34 H34           -1.2405    -1.9356    -0.2260 H       
  35 H35           -3.3659    -0.8198    -0.3124 H       
  36 H36           -3.7366     4.1419    -0.4893 H       
  37 H37            0.9059    -1.6329     1.7538 H       
  38 H38            4.0080    -1.3430    -2.0684 H       
  39 H39            1.8533    -0.1764    -2.1655 H       
  40 H40           -5.2032     0.6042     0.0319 H       
  41 H41           -5.6727     2.3190     0.1185 H       
  42 H42            3.4330    -2.3105     3.0065 H       
  43 H43            2.2754    -3.5768     2.5355 H       
  44 H44            4.7099    -4.3407     2.8615 H       
  45 H45            3.9577    -4.7832     1.3062 H       
  46 H46            5.6146    -1.7211    -1.7615 H       
  47 H47            7.5655    -3.0484     0.1748 H       
  48 H48            7.0840    -3.6882    -1.4149 H       
  49 H49            5.2298    -0.1502     0.1181 H       
  50 H50            6.4827    -0.9823     1.0700 H       
  51 H51            6.9153     0.4070    -1.6132 H       
  52 H52            7.3968     1.0468    -0.0235 H       
  53 H53            8.8662    -0.9203     0.3231 H       
  54 H54            9.2510    -2.4912    -1.5565 H       
  55 H55            7.9981    -1.6591    -2.5084 H       
  56 H56           10.4069    -0.2950    -1.3918 H       
@<TRIPOS>BOND
   1    1    2 2
   2    1   32 1
   3    1    6 1
   4    2    3 1
   5    2   10 1
   6    3    4 2
   7    3   34 1
   8    4    5 1
   9    4   35 1
  10    5    6 1
  11    5    7 1
  12    6    9 2
  13    7    8 2
  14    7   16 1
  15    8    9 1
  16    8   36 1
  17   10   11 ar
  18   10   15 ar
  19   11   12 ar
  20   11   37 1
  21   12   13 ar
  22   12   17 1
  23   13   14 ar
  24   13   20 1
  25   14   15 ar
  26   14   38 1
  27   15   39 1
  28   16   28 1
  29   16   40 1
  30   16   41 1
  31   17   18 1
  32   17   42 1
  33   17   43 1
  34   18   19 1
  35   18   44 1
  36   18   45 1
  37   19   20 1
  38   20   21 1
  39   21   22 1
  40   21   23 1
  41   21   46 1
  42   22   26 1
  43   22   47 1
  44   22   48 1
  45   23   24 1
  46   23   49 1
  47   23   50 1
  48   24   25 1
  49   24   51 1
  50   24   52 1
  51   25   26 1
  52   25   27 1
  53   25   53 1
  54   26   54 1
  55   26   55 1
  56   27   56 1
  57   28   29 1
  58   28   30 1
  59   28   31 1
  60   32   33 3

#	End of record

