#	Name: ASD01885461
#	Creating user name:	WinNT
#	Creation time:	15. 06. 2019 19:49

#	Modifying user name:	WinNT
#	Modification time:	15. 06. 2019 19:49

#	Program:	/corina/corina34_cracker 3.40 0067  02.08.2006

@<TRIPOS>MOLECULE
ASD01885461
  49   52    0    0    0
SMALL
NO_CHARGES


@<TRIPOS>ATOM
   1 C1             0.1975     1.2192     0.1466 C.ar    
   2 C2             0.3125    -0.1707     0.1691 C.ar    
   3 N3            -0.7475    -1.0158     0.2364 N.2     
   4 C4            -1.8533    -0.9012    -0.4040 C.2     
   5 C5            -2.1211     0.2638    -1.3204 C.3     
   6 C6            -2.1112     1.5244    -0.4931 C.2     
   7 N7            -1.0171     1.8918     0.1728 N.am    
   8 C8             1.3511     2.0005     0.0889 C.ar    
   9 C9             2.6031     1.4110     0.0484 C.ar    
  10 C10            2.7186     0.0245     0.0653 C.ar    
  11 C11            1.5903    -0.7569     0.1249 C.ar    
  12 C12           -2.8879    -1.9364    -0.2392 C.ar    
  13 O13           -3.1089     2.2117    -0.4349 O.2     
  14 C14           -2.6202    -3.0810     0.5188 C.ar    
  15 C15           -3.5893    -4.0518     0.6738 C.ar    
  16 C16           -4.8282    -3.9010     0.0830 C.ar    
  17 C17           -5.1103    -2.7626    -0.6773 C.ar    
  18 C18           -4.1401    -1.7753    -0.8341 C.ar    
  19 C19           -6.3960    -2.6087    -1.2889 C.1     
  20 N20           -7.4159    -2.4867    -1.7740 N.1     
  21 N21            3.7505     2.2082    -0.0097 N.am    
  22 C22            4.8769     1.8147     0.6170 C.2     
  23 O23            4.8685     0.8192     1.3136 O.2     
  24 O24            6.0116     2.5249     0.4713 O.3     
  25 C25            7.1862     2.0425     1.1755 C.3     
  26 C26            8.3507     2.9571     0.8954 C.ar    
  27 C27            8.5895     4.0434     1.7163 C.ar    
  28 C28            9.6576     4.8824     1.4593 C.ar    
  29 C29           10.4873     4.6348     0.3817 C.ar    
  30 C30           10.2491     3.5480    -0.4387 C.ar    
  31 C31            9.1835     2.7066    -0.1792 C.ar    
  32 H32           -1.3443     0.3182    -2.0830 H       
  33 H33           -3.0951     0.1426    -1.7945 H       
  34 H34           -1.0735     2.6903     0.7207 H       
  35 H35            1.2669     3.0771     0.0753 H       
  36 H36            3.6944    -0.4369     0.0318 H       
  37 H37            1.6854    -1.8326     0.1376 H       
  38 H38           -1.6533    -3.2058     0.9834 H       
  39 H39           -3.3773    -4.9339     1.2598 H       
  40 H40           -5.5812    -4.6650     0.2085 H       
  41 H41           -4.3528    -0.8936    -1.4205 H       
  42 H42            3.7357     3.0443    -0.5012 H       
  43 H43            6.9864     2.0264     2.2469 H       
  44 H44            7.4255     1.0350     0.8353 H       
  45 H45            7.9413     4.2368     2.5582 H       
  46 H46            9.8437     5.7315     2.1003 H       
  47 H47           11.3214     5.2907     0.1805 H       
  48 H48           10.8971     3.3548    -1.2808 H       
  49 H49            8.9974     1.8575    -0.8201 H       
@<TRIPOS>BOND
   1    1    2 ar
   2    1    8 ar
   3    1    7 1
   4    2    3 1
   5    2   11 ar
   6    3    4 2
   7    4    5 1
   8    4   12 1
   9    5    6 1
  10    5   32 1
  11    5   33 1
  12    6    7 am
  13    6   13 2
  14    7   34 1
  15    8    9 ar
  16    8   35 1
  17    9   10 ar
  18    9   21 1
  19   10   11 ar
  20   10   36 1
  21   11   37 1
  22   12   14 ar
  23   12   18 ar
  24   14   15 ar
  25   14   38 1
  26   15   16 ar
  27   15   39 1
  28   16   17 ar
  29   16   40 1
  30   17   18 ar
  31   17   19 1
  32   18   41 1
  33   19   20 3
  34   21   22 am
  35   21   42 1
  36   22   23 2
  37   22   24 1
  38   24   25 1
  39   25   26 1
  40   25   43 1
  41   25   44 1
  42   26   27 ar
  43   26   31 ar
  44   27   28 ar
  45   27   45 1
  46   28   29 ar
  47   28   46 1
  48   29   30 ar
  49   29   47 1
  50   30   31 ar
  51   30   48 1
  52   31   49 1

#	End of record

