#	Name: ASD01810146
#	Creating user name:	WinNT
#	Creation time:	15. 06. 2019 19:23

#	Modifying user name:	WinNT
#	Modification time:	15. 06. 2019 19:23

#	Program:	/corina/corina34_cracker 3.40 0067  02.08.2006

@<TRIPOS>MOLECULE
ASD01810146
  34   36    0    0    0
SMALL
NO_CHARGES


@<TRIPOS>ATOM
   1 C1             0.7375     2.0150     0.0803 C.ar    
   2 C2             0.4876     0.6506     0.1066 C.ar    
   3 C3             1.5238    -0.2561     0.0561 C.ar    
   4 C4             2.8390     0.1944    -0.0223 C.ar    
   5 C5             3.0895     1.5770    -0.0488 C.ar    
   6 C6             2.0308     2.4831     0.0030 C.ar    
   7 N7             3.8842    -0.7024    -0.0729 N.pl3   
   8 C8             5.1654    -0.3202    -0.1483 C.2     
   9 C9             5.5358     1.0091    -0.1807 C.2     
  10 C10            4.4871     2.0407    -0.1320 C.2     
  11 O11            4.7620     3.2275    -0.1582 O.2     
  12 C12            6.9535     1.3880    -0.2628 C.2     
  13 O13            7.3026     2.6897    -0.2938 O.3     
  14 O14            7.8113     0.5276    -0.3029 O.2     
  15 C15            3.5807    -2.1353    -0.0424 C.3     
  16 C16            3.7107    -2.6464     1.3693 C.ar    
  17 C17            2.5869    -2.7669     2.1685 C.ar    
  18 C18            2.7076    -3.2366     3.4655 C.ar    
  19 C19            3.9493    -3.5850     3.9622 C.ar    
  20 C20            5.0721    -3.4647     3.1653 C.ar    
  21 C21            4.9531    -3.0010     1.8659 C.ar    
  22 F22            6.0507    -2.8840     1.0870 F       
  23 F23            1.3730    -2.4260     1.6834 F       
  24 H24           -0.0857     2.7132     0.1161 H       
  25 H25           -0.5305     0.2952     0.1677 H       
  26 H26            1.3161    -1.3157     0.0776 H       
  27 H27            2.2236     3.5456    -0.0178 H       
  28 H28            5.9347    -1.0774    -0.1847 H       
  29 H29            8.2471     2.8898    -0.3480 H       
  30 H30            2.5626    -2.2986    -0.3957 H       
  31 H31            4.2791    -2.6684    -0.6876 H       
  32 H32            1.8310    -3.3303     4.0893 H       
  33 H33            4.0425    -3.9512     4.9739 H       
  34 H34            6.0421    -3.7366     3.5547 H       
@<TRIPOS>BOND
   1    1    2 ar
   2    1    6 ar
   3    1   24 1
   4    2    3 ar
   5    2   25 1
   6    3    4 ar
   7    3   26 1
   8    4    5 ar
   9    4    7 1
  10    5    6 ar
  11    5   10 1
  12    6   27 1
  13    7    8 1
  14    7   15 1
  15    8    9 2
  16    8   28 1
  17    9   10 1
  18    9   12 1
  19   10   11 2
  20   12   13 1
  21   12   14 2
  22   13   29 1
  23   15   16 1
  24   15   30 1
  25   15   31 1
  26   16   17 ar
  27   16   21 ar
  28   17   18 ar
  29   17   23 1
  30   18   19 ar
  31   18   32 1
  32   19   20 ar
  33   19   33 1
  34   20   21 ar
  35   20   34 1
  36   21   22 1

#	End of record

