#	Name: ASD01810698
#	Creating user name:	WinNT
#	Creation time:	15. 06. 2019 19:25

#	Modifying user name:	WinNT
#	Modification time:	15. 06. 2019 19:25

#	Program:	/corina/corina34_cracker 3.40 0067  02.08.2006

@<TRIPOS>MOLECULE
ASD01810698
  44   47    0    0    0
SMALL
NO_CHARGES


@<TRIPOS>ATOM
   1 C1            -0.0818     0.8585     0.5838 C.3     
   2 C2             0.0078    -0.6492     0.4918 C.2     
   3 N3             0.6816    -1.1157     1.5504 N.am    
   4 C4             1.0980    -0.1713     2.4030 C.2     
   5 C5             0.6650     1.1858     1.8929 C.3     
   6 C6             1.2131     1.6727     0.5500 C.3     
   7 O7            -0.4573    -1.3272    -0.3990 O.2     
   8 O8             1.7225    -0.3717     3.4226 O.2     
   9 C9             2.4474     0.9927     0.0159 C.ar    
  10 C10            2.4301     0.4202    -1.2425 C.ar    
  11 C11            3.5602    -0.2037    -1.7344 C.ar    
  12 C12            4.7131    -0.2555    -0.9645 C.ar    
  13 C13            4.7279     0.3197     0.2978 C.ar    
  14 C14            3.5969     0.9474     0.7829 C.ar    
  15 O15            5.8260    -0.8691    -1.4460 O.3     
  16 C16            7.0102    -0.7821    -0.6509 C.3     
  17 C17            0.9419    -2.5423     1.7586 C.3     
  18 C18            2.1824    -2.9422     1.0022 C.ar    
  19 C19            3.4071    -2.9576     1.6439 C.ar    
  20 C20            4.5458    -3.3238     0.9527 C.ar    
  21 C21            4.4597    -3.6764    -0.3863 C.ar    
  22 C22            3.2298    -3.6601    -1.0278 C.ar    
  23 C23            2.0932    -3.2986    -0.3307 C.ar    
  24 O24            5.5785    -4.0366    -1.0685 O.3     
  25 C25            5.4007    -4.4955    -2.4101 C.3     
  26 H26           -1.0237     1.3295     0.3022 H       
  27 H27            0.2808     1.9024     2.6189 H       
  28 H28            1.1316     2.7372     0.3303 H       
  29 H29            1.5322     0.4605    -1.8413 H       
  30 H30            3.5461    -0.6510    -2.7173 H       
  31 H31            5.6242     0.2806     0.8991 H       
  32 H32            3.6093     1.3995     1.7636 H       
  33 H33            7.8428    -1.2362    -1.1881 H       
  34 H34            7.2360     0.2650    -0.4488 H       
  35 H35            6.8550    -1.3086     0.2908 H       
  36 H36            1.0870    -2.7338     2.8218 H       
  37 H37            0.0931    -3.1230     1.3974 H       
  38 H38            3.4736    -2.6827     2.6862 H       
  39 H39            5.5022    -3.3354     1.4543 H       
  40 H40            3.1602    -3.9341    -2.0702 H       
  41 H41            1.1347    -3.2904    -0.8284 H       
  42 H42            4.7607    -5.3778    -2.4105 H       
  43 H43            4.9357    -3.7090    -3.0045 H       
  44 H44            6.3702    -4.7498    -2.8386 H       
@<TRIPOS>BOND
   1    1    2 1
   2    1    6 1
   3    1    5 1
   4    1   26 1
   5    2    3 am
   6    2    7 2
   7    3    4 am
   8    3   17 1
   9    4    5 1
  10    4    8 2
  11    5    6 1
  12    5   27 1
  13    6    9 1
  14    6   28 1
  15    9   10 ar
  16    9   14 ar
  17   10   11 ar
  18   10   29 1
  19   11   12 ar
  20   11   30 1
  21   12   13 ar
  22   12   15 1
  23   13   14 ar
  24   13   31 1
  25   14   32 1
  26   15   16 1
  27   16   33 1
  28   16   34 1
  29   16   35 1
  30   17   18 1
  31   17   36 1
  32   17   37 1
  33   18   19 ar
  34   18   23 ar
  35   19   20 ar
  36   19   38 1
  37   20   21 ar
  38   20   39 1
  39   21   22 ar
  40   21   24 1
  41   22   23 ar
  42   22   40 1
  43   23   41 1
  44   24   25 1
  45   25   42 1
  46   25   43 1
  47   25   44 1

#	End of record

