#	Name: ASD01903246
#	Creating user name:	WinNT
#	Creation time:	15. 06. 2019 19:54

#	Modifying user name:	WinNT
#	Modification time:	15. 06. 2019 19:54

#	Program:	/corina/corina34_cracker 3.40 0067  02.08.2006

@<TRIPOS>MOLECULE
ASD01903246
  30   32    0    0    0
SMALL
NO_CHARGES


@<TRIPOS>ATOM
   1 S1            -0.0211     1.7049     0.0114 S.3     
   2 C2             0.0021    -0.0041     0.0020 C.2     
   3 N3             1.2222    -0.4388    -0.0120 N.2     
   4 C4             2.1846     0.4750    -0.0162 C.2     
   5 C5             1.7398     1.7440    -0.0052 C.2     
   6 N6            -1.1265    -0.8116     0.0089 N.pl3   
   7 C7            -2.3885    -0.2387     0.0239 C.ar    
   8 C8             3.6281     0.1262    -0.0319 C.2     
   9 C9             4.1723    -1.1782    -0.0446 C.2     
  10 N10            5.4789    -1.0714    -0.0568 N.2     
  11 N11            5.8131     0.2882    -0.0524 N.pl3   
  12 C12            4.6695     1.0058    -0.0426 C.2     
  13 N13           -3.4553    -1.0243     0.0303 N.ar    
  14 C14           -4.6737    -0.5099     0.0447 C.ar    
  15 C15           -4.8260     0.8678     0.0531 C.ar    
  16 C16           -3.6886     1.6601     0.0460 C.ar    
  17 N17           -2.4992     1.0815     0.0371 N.ar    
  18 N18            3.4448    -2.3729    -0.0435 N.pl3   
  19 C19            4.1474    -3.6583    -0.0577 C.3     
  20 H20            2.3548     2.6318    -0.0066 H       
  21 H21           -1.0321    -1.7770     0.0031 H       
  22 H22            6.7121     0.6522    -0.0592 H       
  23 H23            4.5935     2.0831    -0.0372 H       
  24 H24           -5.5395    -1.1555     0.0495 H       
  25 H25           -5.8093     1.3142     0.0645 H       
  26 H26           -3.7725     2.7368     0.0523 H       
  27 H27            2.4751    -2.3502    -0.0333 H       
  28 H28            3.4199    -4.4700    -0.0546 H       
  29 H29            4.7632    -3.7259    -0.9545 H       
  30 H30            4.7817    -3.7355     0.8253 H       
@<TRIPOS>BOND
   1    1    2 1
   2    1    5 1
   3    2    3 2
   4    2    6 1
   5    3    4 1
   6    4    5 2
   7    4    8 1
   8    5   20 1
   9    6    7 1
  10    6   21 1
  11    7   13 ar
  12    7   17 ar
  13    8    9 1
  14    8   12 2
  15    9   10 2
  16    9   18 1
  17   10   11 1
  18   11   12 1
  19   11   22 1
  20   12   23 1
  21   13   14 ar
  22   14   15 ar
  23   14   24 1
  24   15   16 ar
  25   15   25 1
  26   16   17 ar
  27   16   26 1
  28   18   19 1
  29   18   27 1
  30   19   28 1
  31   19   29 1
  32   19   30 1

#	End of record

