#	Name: ASD03092920
#	Creating user name:	WinNT
#	Creation time:	15. 06. 2019 20:33

#	Modifying user name:	WinNT
#	Modification time:	15. 06. 2019 20:33

#	Program:	/corina/corina34_cracker 3.40 0067  02.08.2006

@<TRIPOS>MOLECULE
ASD03092920
  56   59    0    0    0
SMALL
NO_CHARGES


@<TRIPOS>ATOM
   1 C1            -0.4881     1.4522     0.0424 C.3     
   2 C2            -0.2052    -0.0278     0.0157 C.2     
   3 C3            -0.0912    -0.8397    -1.1414 C.2     
   4 C4            -0.2253    -0.4023    -2.5300 C.2     
   5 O5            -1.3250    -0.3223    -3.0377 O.2     
   6 C6             1.0018    -0.0508    -3.3311 C.3     
   7 C7             0.5987     0.2501    -4.7760 C.3     
   8 C8             0.2048     1.7177    -5.0128 C.3     
   9 C9             0.9571     1.6217    -6.3506 C.3     
  10 C10            1.7945     0.5025    -5.7094 C.3     
  11 C11            0.1746    -2.1380    -0.6988 C.2     
  12 C12            0.3717    -3.3246    -1.5526 C.ar    
  13 C13           -0.4874    -3.5660    -2.6277 C.ar    
  14 C14           -0.2979    -4.6771    -3.4229 C.ar    
  15 C15            0.7398    -5.5528    -3.1587 C.ar    
  16 C16            1.5969    -5.3208    -2.0941 C.ar    
  17 F17            2.6080    -6.1807    -1.8425 F       
  18 C18            1.4219    -4.2090    -1.2933 C.ar    
  19 S19            0.9730    -6.9698    -4.1796 S.o2    
  20 N20            2.4255    -6.7833    -4.9528 N.am    
  21 O21            1.1253    -8.0765    -3.3013 O.2     
  22 O22           -0.0282    -6.9084    -5.1861 O.2     
  23 N23            0.2192    -2.1117     0.6618 N.pl3   
  24 C24            0.4730    -3.2672     1.5259 C.3     
  25 C25           -0.0068    -0.8273     1.0948 C.2     
  26 C26           -0.0330    -0.3882     2.5064 C.ar    
  27 C27           -0.7136    -1.1437     3.4626 C.ar    
  28 C28           -0.7341    -0.7292     4.7780 C.ar    
  29 C29           -0.0814     0.4338     5.1507 C.ar    
  30 Cl30          -0.1112     0.9487     6.8083 Cl      
  31 C31            0.5955     1.1874     4.2065 C.ar    
  32 C32            0.6275     0.7803     2.8890 C.ar    
  33 H33            0.4519     2.0008     0.1022 H       
  34 H34           -1.0179     1.7372    -0.8666 H       
  35 H35           -1.1029     1.6890     0.9107 H       
  36 H36            1.4799     0.8272    -2.8969 H       
  37 H37            1.6984    -0.8890    -3.3153 H       
  38 H38           -0.1211    -0.4660    -5.1725 H       
  39 H39           -0.8688     1.8689    -5.1254 H       
  40 H40            0.6591     2.4113    -4.3052 H       
  41 H41            0.3345     1.2817    -7.1782 H       
  42 H42            1.5337     2.5145    -6.5923 H       
  43 H43            2.6833     0.8639    -5.1922 H       
  44 H44            2.0043    -0.3272    -6.3844 H       
  45 H45           -1.2987    -2.8841    -2.8355 H       
  46 H46           -0.9618    -4.8640    -4.2540 H       
  47 H47            2.0922    -4.0263    -0.4664 H       
  48 H48            2.9478    -7.5629    -5.1986 H       
  49 H49            2.7540    -5.8944    -5.1600 H       
  50 H50            1.5444    -3.3598     1.7034 H       
  51 H51           -0.0423    -3.1301     2.4766 H       
  52 H52            0.1056    -4.1714     1.0406 H       
  53 H53           -1.2234    -2.0507     3.1730 H       
  54 H54           -1.2607    -1.3127     5.5187 H       
  55 H55            1.1028     2.0935     4.5031 H       
  56 H56            1.1595     1.3665     2.1543 H       
@<TRIPOS>BOND
   1    1    2 1
   2    1   33 1
   3    1   34 1
   4    1   35 1
   5    2   25 2
   6    2    3 1
   7    3    4 1
   8    3   11 2
   9    4    5 2
  10    4    6 1
  11    6    7 1
  12    6   36 1
  13    6   37 1
  14    7   10 1
  15    7    8 1
  16    7   38 1
  17    8    9 1
  18    8   39 1
  19    8   40 1
  20    9   10 1
  21    9   41 1
  22    9   42 1
  23   10   43 1
  24   10   44 1
  25   11   12 1
  26   11   23 1
  27   12   18 ar
  28   12   13 ar
  29   13   14 ar
  30   13   45 1
  31   14   15 ar
  32   14   46 1
  33   15   16 ar
  34   15   19 1
  35   16   17 1
  36   16   18 ar
  37   18   47 1
  38   19   20 am
  39   19   21 2
  40   19   22 2
  41   20   48 1
  42   20   49 1
  43   23   24 1
  44   23   25 1
  45   24   50 1
  46   24   51 1
  47   24   52 1
  48   25   26 1
  49   26   32 ar
  50   26   27 ar
  51   27   28 ar
  52   27   53 1
  53   28   29 ar
  54   28   54 1
  55   29   30 1
  56   29   31 ar
  57   31   32 ar
  58   31   55 1
  59   32   56 1

#	End of record

