#	Name: ASD02039296
#	Creating user name:	WinNT
#	Creation time:	15. 06. 2019 20:18

#	Modifying user name:	WinNT
#	Modification time:	15. 06. 2019 20:18

#	Program:	/corina/corina34_cracker 3.40 0067  02.08.2006

@<TRIPOS>MOLECULE
ASD02039296
  50   52    0    0    0
SMALL
NO_CHARGES


@<TRIPOS>ATOM
   1 C1            -0.2336     0.9439     0.5401 C.ar    
   2 C2            -0.1121    -0.4322     0.4687 C.ar    
   3 C3            -1.2404    -1.2324     0.4437 C.ar    
   4 C4            -2.4972    -0.6602     0.4895 C.ar    
   5 C5            -2.6256     0.7297     0.5617 C.ar    
   6 C6            -1.4826     1.5286     0.5922 C.ar    
   7 C7            -3.9671     1.3501     0.6112 C.2     
   8 C8             1.0016     1.8068     0.5672 C.3     
   9 N9             1.4622     2.0435    -0.8032 N.am    
  10 C10            0.8696     3.1212    -1.5992 C.3     
  11 C11            2.4311     1.2699    -1.3316 C.2     
  12 C12            2.9525     0.1205    -0.5716 C.2     
  13 C13            3.8403    -0.8105    -1.0256 C.2     
  14 C14            1.9347     4.1773    -1.9010 C.3     
  15 N15            2.6414    -0.2018     0.7099 N.2     
  16 C16            3.2926    -1.2786     1.0431 C.2     
  17 N17            4.0469    -1.6835    -0.0117 N.pl3   
  18 O18            2.8751     1.5207    -2.4358 O.2     
  19 C19            4.9256    -2.8552    -0.0462 C.3     
  20 F20           -3.5988    -1.4419     0.4642 F       
  21 C21            0.3323     2.5489    -2.9125 C.3     
  22 C22           -4.3604     2.3288     1.4543 C.2     
  23 S23           -5.3351     0.9496    -0.4246 S.3     
  24 C24           -6.2937     2.1192     0.3726 C.2     
  25 N25           -5.6088     2.7092     1.2943 N.2     
  26 C26           -3.4474     2.9326     2.4902 C.3     
  27 C27           -7.7328     2.4218     0.0432 C.3     
  28 H28            0.8681    -0.8841     0.4319 H       
  29 H29           -1.1387    -2.3061     0.3879 H       
  30 H30           -1.5750     2.6032     0.6479 H       
  31 H31            0.7686     2.7599     1.0420 H       
  32 H32            1.7854     1.3016     1.1318 H       
  33 H33            0.0526     3.5783    -1.0409 H       
  34 H34            4.2917    -0.8447    -2.0061 H       
  35 H35            2.6825     3.7572    -2.5737 H       
  36 H36            1.4663     5.0413    -2.3724 H       
  37 H37            2.4141     4.4856    -0.9720 H       
  38 H38            3.2435    -1.7692     2.0040 H       
  39 H39            4.3622    -3.7219    -0.3919 H       
  40 H40            5.7561    -2.6667    -0.7266 H       
  41 H41            5.3125    -3.0488     0.9543 H       
  42 H42           -0.3485     1.7250    -2.6983 H       
  43 H43           -0.2005     3.3282    -3.4574 H       
  44 H44            1.1631     2.1858    -3.5175 H       
  45 H45           -2.8541     3.7250     2.0339 H       
  46 H46           -4.0438     3.3471     3.3029 H       
  47 H47           -2.7838     2.1621     2.8828 H       
  48 H48           -8.3841     1.7839     0.6407 H       
  49 H49           -7.9444     3.4675     0.2661 H       
  50 H50           -7.9107     2.2327    -1.0155 H       
@<TRIPOS>BOND
   1    1    2 ar
   2    1    8 1
   3    1    6 ar
   4    2    3 ar
   5    2   28 1
   6    3    4 ar
   7    3   29 1
   8    4    5 ar
   9    4   20 1
  10    5    6 ar
  11    5    7 1
  12    6   30 1
  13    7   22 2
  14    7   23 1
  15    8    9 1
  16    8   31 1
  17    8   32 1
  18    9   10 1
  19    9   11 am
  20   10   21 1
  21   10   14 1
  22   10   33 1
  23   11   12 1
  24   11   18 2
  25   12   13 2
  26   12   15 1
  27   13   17 1
  28   13   34 1
  29   14   35 1
  30   14   36 1
  31   14   37 1
  32   15   16 2
  33   16   17 1
  34   16   38 1
  35   17   19 1
  36   19   39 1
  37   19   40 1
  38   19   41 1
  39   21   42 1
  40   21   43 1
  41   21   44 1
  42   22   26 1
  43   22   25 1
  44   23   24 1
  45   24   25 2
  46   24   27 1
  47   26   45 1
  48   26   46 1
  49   26   47 1
  50   27   48 1
  51   27   49 1
  52   27   50 1

#	End of record

