#	Name: ASD01880435
#	Creating user name:	WinNT
#	Creation time:	15. 06. 2019 19:40

#	Modifying user name:	WinNT
#	Modification time:	15. 06. 2019 19:40

#	Program:	/corina/corina34_cracker 3.40 0067  02.08.2006

@<TRIPOS>MOLECULE
ASD01880435
  47   51    0    0    0
SMALL
NO_CHARGES


@<TRIPOS>ATOM
   1 C1            -0.0169     1.3927     0.0097 C.ar    
   2 C2             0.0021    -0.0041     0.0020 C.ar    
   3 C3             1.2135    -0.6907    -0.0127 C.ar    
   4 C4             2.4022     0.0193    -0.0202 C.ar    
   5 C5             2.3727     1.4246    -0.0129 C.ar    
   6 C6             1.1522     2.0999     0.0023 C.ar    
   7 N7             3.6286    -0.6377    -0.0344 N.pl3   
   8 C8             4.7929     0.0687    -0.0413 C.2     
   9 N9             4.8015     1.4561    -0.0346 N.am    
  10 C10            3.6502     2.1585    -0.0207 C.2     
  11 N11            3.9493    -2.0026    -0.0435 N.2     
  12 C12            5.2606    -2.1201    -0.0555 C.2     
  13 C13            5.8179    -0.8302    -0.0545 C.2     
  14 C14            6.0812     2.1693    -0.0422 C.3     
  15 O15            3.6662     3.3751    -0.0150 O.2     
  16 C16           -1.2742    -0.7594     0.0101 C.ar    
  17 C17            6.0195    -3.3954    -0.0685 C.ar    
  18 C18            5.3413    -4.6114    -0.0691 C.ar    
  19 C19            6.0553    -5.7986    -0.0817 C.ar    
  20 C20            7.4430    -5.7738    -0.0932 C.ar    
  21 C21            8.1168    -4.5666    -0.0926 C.ar    
  22 C22            7.4131    -3.3792    -0.0859 C.ar    
  23 C23           -2.4985    -0.0851     0.0253 C.ar    
  24 C24           -3.6615    -0.8361     0.0318 C.ar    
  25 C25           -3.5757    -2.2162     0.0231 C.ar    
  26 N26           -2.4053    -2.8249     0.0088 N.ar    
  27 C27           -1.2725    -2.1532    -0.0033 C.ar    
  28 O28            5.3970    -6.9875    -0.0824 O.3     
  29 C29            6.1965    -8.1718    -0.0957 C.3     
  30 H30           -0.9612     1.9167     0.0170 H       
  31 H31            1.2257    -1.7707    -0.0179 H       
  32 H32            1.1314     3.1797     0.0076 H       
  33 H33            6.8715    -0.5929    -0.0626 H       
  34 H34            6.3897     2.3512    -1.0717 H       
  35 H35            5.9698     3.1211     0.4773 H       
  36 H36            6.8362     1.5663     0.4622 H       
  37 H37            4.2614    -4.6291    -0.0594 H       
  38 H38            7.9980    -6.7003    -0.1024 H       
  39 H39            9.1967    -4.5526    -0.1013 H       
  40 H40            7.9423    -2.4378    -0.0854 H       
  41 H41           -2.5362     0.9942     0.0322 H       
  42 H42           -4.6255    -0.3493     0.0439 H       
  43 H43           -4.4810    -2.8051     0.0286 H       
  44 H44           -0.3338    -2.6871    -0.0149 H       
  45 H45            6.8179    -8.1806    -0.9912 H       
  46 H46            6.8334    -8.1902     0.7886 H       
  47 H47            5.5481    -9.0480    -0.0948 H       
@<TRIPOS>BOND
   1    1    2 ar
   2    1    6 ar
   3    1   30 1
   4    2    3 ar
   5    2   16 1
   6    3    4 ar
   7    3   31 1
   8    4    5 ar
   9    4    7 1
  10    5    6 ar
  11    5   10 1
  12    6   32 1
  13    7    8 1
  14    7   11 1
  15    8    9 1
  16    8   13 2
  17    9   10 am
  18    9   14 1
  19   10   15 2
  20   11   12 2
  21   12   13 1
  22   12   17 1
  23   13   33 1
  24   14   34 1
  25   14   35 1
  26   14   36 1
  27   16   23 ar
  28   16   27 ar
  29   17   18 ar
  30   17   22 ar
  31   18   19 ar
  32   18   37 1
  33   19   20 ar
  34   19   28 1
  35   20   21 ar
  36   20   38 1
  37   21   22 ar
  38   21   39 1
  39   22   40 1
  40   23   24 ar
  41   23   41 1
  42   24   25 ar
  43   24   42 1
  44   25   26 ar
  45   25   43 1
  46   26   27 ar
  47   27   44 1
  48   28   29 1
  49   29   45 1
  50   29   46 1
  51   29   47 1

#	End of record

