#	Name: ASD05430145
#	Creating user name:	WinNT
#	Creation time:	15. 06. 2019 20:59

#	Modifying user name:	WinNT
#	Modification time:	15. 06. 2019 20:59

#	Program:	/corina/corina34_cracker 3.40 0067  02.08.2006

@<TRIPOS>MOLECULE
ASD05430145
  67   72    0    0    0
SMALL
NO_CHARGES


@<TRIPOS>ATOM
   1 C1            -0.0103     1.3691    -0.1475 C.ar    
   2 C2             0.0204    -0.0143    -0.3188 C.ar    
   3 C3             1.2361    -0.6817    -0.3921 C.ar    
   4 C4             2.4181     0.0201    -0.2956 C.ar    
   5 C5             2.3953     1.4081    -0.1238 C.ar    
   6 C6             1.1712     2.0799    -0.0503 C.ar    
   7 O7             4.8904     0.1321     0.2113 O.3     
   8 C8             4.8303     1.4988     0.0680 C.2     
   9 C9             3.6564     2.1594    -0.0200 C.2     
  10 C10            5.8716    -0.5125    -0.5994 C.3     
  11 C11            7.2663     0.0450    -0.3244 C.3     
  12 N12            7.2368     1.5033    -0.4574 N.pl3   
  13 C13            6.1263     2.1967     0.0171 C.2     
  14 C14            8.0182     2.2838    -2.6050 C.ar    
  15 C15            9.0468     2.1252    -3.5150 C.ar    
  16 C16            8.7826     2.1644    -4.8709 C.ar    
  17 C17            7.4872     2.3627    -5.3179 C.ar    
  18 C18            6.4579     2.5215    -4.4055 C.ar    
  19 C19            6.7244     2.4819    -3.0501 C.ar    
  20 N20           -1.1794    -0.7337    -0.4167 N.pl3   
  21 C21           -1.5036    -1.6498    -1.3834 C.2     
  22 C22           -2.7419    -2.0960    -1.0985 C.2     
  23 N23           -3.1666    -1.4729     0.0106 N.2     
  24 C24           -2.2372    -0.6586     0.4318 C.2     
  25 C25           -3.5168    -3.1182    -1.8896 C.3     
  26 N26            6.2911     3.4086     0.4601 N.2     
  27 C27           -1.1589     3.4370     0.0945 C.3     
  28 O28           -1.2022     2.0196    -0.0818 O.3     
  29 C29            8.3066     2.2346    -1.1267 C.3     
  30 C30            8.4331     3.6579    -0.5974 C.3     
  31 O31            7.6267     3.8866     0.5498 O.3     
  32 F32            7.2279     2.4017    -6.6432 F       
  33 C33            9.8957     3.9227    -0.2347 C.3     
  34 O34           10.0504     5.2893     0.1531 O.3     
  35 C35            5.8502    -2.0324    -0.3561 C.3     
  36 C36            5.4869    -2.6237    -1.7378 C.3     
  37 O37            5.8895    -1.6145    -2.6900 O.3     
  38 C38            5.5202    -0.3524    -2.0894 C.3     
  39 H39            1.2552    -1.7533    -0.5248 H       
  40 H40            3.3621    -0.5016    -0.3523 H       
  41 H41            1.1490     3.1515     0.0819 H       
  42 H42            3.6428     3.2393    -0.0142 H       
  43 H43            7.5724    -0.2223     0.6870 H       
  44 H44            7.9731    -0.3719    -1.0418 H       
  45 H45           10.0571     1.9709    -3.1661 H       
  46 H46            9.5863     2.0408    -5.5816 H       
  47 H47            5.4471     2.6762    -4.7530 H       
  48 H48            5.9217     2.6057    -2.3383 H       
  49 H49           -0.8849    -1.9547    -2.2145 H       
  50 H50           -2.3017    -0.0256     1.3044 H       
  51 H51           -3.3009    -4.1150    -1.5052 H       
  52 H52           -4.5840    -2.9164    -1.7972 H       
  53 H53           -3.2260    -3.0624    -2.9386 H       
  54 H54           -2.1750     3.8299     0.1305 H       
  55 H55           -0.6454     3.6716     1.0269 H       
  56 H56           -0.6232     3.8907    -0.7394 H       
  57 H57            9.2491     1.7109    -0.9669 H       
  58 H58            8.1351     4.3535    -1.3819 H       
  59 H59           10.1880     3.2751     0.5919 H       
  60 H60           10.5273     3.7165    -1.0988 H       
  61 H61           10.9549     5.5289     0.3972 H       
  62 H62            6.8316    -2.3825    -0.0362 H       
  63 H63            5.0913    -2.2910     0.3822 H       
  64 H64            6.0365    -3.5490    -1.9107 H       
  65 H65            4.4135    -2.8011    -1.8040 H       
  66 H66            4.4520    -0.1721    -2.2106 H       
  67 H67            6.0962     0.4612    -2.5304 H       
@<TRIPOS>BOND
   1    1    2 ar
   2    1    6 ar
   3    1   28 1
   4    2    3 ar
   5    2   20 1
   6    3    4 ar
   7    3   39 1
   8    4    5 ar
   9    4   40 1
  10    5    6 ar
  11    5    9 1
  12    6   41 1
  13    7    8 1
  14    7   10 1
  15    8    9 2
  16    8   13 1
  17    9   42 1
  18   10   11 1
  19   10   35 1
  20   10   38 1
  21   11   12 1
  22   11   43 1
  23   11   44 1
  24   12   13 1
  25   12   29 1
  26   13   26 2
  27   14   15 ar
  28   14   19 ar
  29   14   29 1
  30   15   16 ar
  31   15   45 1
  32   16   17 ar
  33   16   46 1
  34   17   18 ar
  35   17   32 1
  36   18   19 ar
  37   18   47 1
  38   19   48 1
  39   20   21 1
  40   20   24 1
  41   21   22 2
  42   21   49 1
  43   22   23 1
  44   22   25 1
  45   23   24 2
  46   24   50 1
  47   25   51 1
  48   25   52 1
  49   25   53 1
  50   26   31 1
  51   27   28 1
  52   27   54 1
  53   27   55 1
  54   27   56 1
  55   29   30 1
  56   29   57 1
  57   30   31 1
  58   30   33 1
  59   30   58 1
  60   33   34 1
  61   33   59 1
  62   33   60 1
  63   34   61 1
  64   35   36 1
  65   35   62 1
  66   35   63 1
  67   36   37 1
  68   36   64 1
  69   36   65 1
  70   37   38 1
  71   38   66 1
  72   38   67 1

#	End of record

