#	Name: ASD02039436
#	Creating user name:	WinNT
#	Creation time:	15. 06. 2019 20:18

#	Modifying user name:	WinNT
#	Modification time:	15. 06. 2019 20:18

#	Program:	/corina/corina34_cracker 3.40 0067  02.08.2006

@<TRIPOS>MOLECULE
ASD02039436
  48   51    0    0    0
SMALL
NO_CHARGES


@<TRIPOS>ATOM
   1 C1             0.1497     1.1864     0.0762 C.ar    
   2 C2             0.4313    -0.1670     0.1951 C.ar    
   3 C3             1.2613     2.2021     0.0151 C.3     
   4 N4             1.7337     2.3265    -1.3660 N.am    
   5 C5             1.2465     3.3006    -2.1598 C.2     
   6 C6             0.1674     4.1772    -1.6723 C.2     
   7 C7            -0.4869     5.1300    -2.3970 C.2     
   8 N8            -0.3610     4.1800    -0.4218 N.2     
   9 C9            -1.2924     5.0874    -0.3604 C.2     
  10 N10           -1.3967     5.6967    -1.5701 N.pl3   
  11 O11            1.6977     3.4561    -3.2785 O.2     
  12 C12           -2.3265     6.7742    -1.9173 C.3     
  13 C13            2.7358     1.3919    -1.8844 C.3     
  14 C14           -0.6110    -1.0744     0.2487 C.ar    
  15 C15           -2.1746     0.6135     0.0631 C.ar    
  16 C16           -1.1752     1.5822     0.0092 C.ar    
  17 C17           -3.5992     1.0214    -0.0075 C.ar    
  18 C18           -3.9351     2.3678    -0.1330 C.ar    
  19 N19           -1.8633    -0.6703     0.1879 N.ar    
  20 C20           -4.6052     0.0588     0.0458 C.ar    
  21 C21           -5.9314     0.4436    -0.0208 C.ar    
  22 C22           -6.2608     1.7835    -0.1407 C.ar    
  23 C23           -5.2640     2.7434    -0.1989 C.ar    
  24 C24            2.3155     0.7009    -3.1923 C.3     
  25 C25            3.7689     0.8796    -3.6617 C.3     
  26 C26            3.8519     2.0723    -2.6945 C.3     
  27 F27           -5.5909     4.0490    -0.3160 F       
  28 F28           -6.9076    -0.4889     0.0308 F       
  29 H29            1.4546    -0.5086     0.2449 H       
  30 H30            0.8909     3.1672     0.3607 H       
  31 H31            2.0840     1.8791     0.6529 H       
  32 H32           -0.3123     5.3838    -3.4321 H       
  33 H33           -1.8881     5.3166     0.5107 H       
  34 H34           -1.8591     7.7374    -1.7127 H       
  35 H35           -2.5781     6.7101    -2.9759 H       
  36 H36           -3.2341     6.6770    -1.3216 H       
  37 H37            3.1041     0.7021    -1.1250 H       
  38 H38           -0.3953    -2.1286     0.3412 H       
  39 H39           -1.4301     2.6268    -0.0921 H       
  40 H40           -3.1584     3.1170    -0.1784 H       
  41 H41           -4.3492    -0.9863     0.1386 H       
  42 H42           -7.2978     2.0804    -0.1929 H       
  43 H43            2.0238    -0.3411    -3.0615 H       
  44 H44            1.5946     1.2732    -3.7763 H       
  45 H45            4.4210     0.0499    -3.3888 H       
  46 H46            3.8574     1.1613    -4.7110 H       
  47 H47            3.5510     3.0194    -3.1424 H       
  48 H48            4.8006     2.1372    -2.1618 H       
@<TRIPOS>BOND
   1    1    2 ar
   2    1    3 1
   3    1   16 ar
   4    2   14 ar
   5    2   29 1
   6    3    4 1
   7    3   30 1
   8    3   31 1
   9    4    5 am
  10    4   13 1
  11    5    6 1
  12    5   11 2
  13    6    7 2
  14    6    8 1
  15    7   10 1
  16    7   32 1
  17    8    9 2
  18    9   10 1
  19    9   33 1
  20   10   12 1
  21   12   34 1
  22   12   35 1
  23   12   36 1
  24   13   24 1
  25   13   26 1
  26   13   37 1
  27   14   19 ar
  28   14   38 1
  29   15   16 ar
  30   15   17 1
  31   15   19 ar
  32   16   39 1
  33   17   20 ar
  34   17   18 ar
  35   18   23 ar
  36   18   40 1
  37   20   21 ar
  38   20   41 1
  39   21   22 ar
  40   21   28 1
  41   22   23 ar
  42   22   42 1
  43   23   27 1
  44   24   25 1
  45   24   43 1
  46   24   44 1
  47   25   26 1
  48   25   45 1
  49   25   46 1
  50   26   47 1
  51   26   48 1

#	End of record

