#	Name: ASD01912076
#	Creating user name:	WinNT
#	Creation time:	15. 06. 2019 19:59

#	Modifying user name:	WinNT
#	Modification time:	15. 06. 2019 19:59

#	Program:	/corina/corina34_cracker 3.40 0067  02.08.2006

@<TRIPOS>MOLECULE
ASD01912076
  46   48    0    0    0
SMALL
NO_CHARGES


@<TRIPOS>ATOM
   1 C1            -0.0235     1.4643    -0.0328 C.3     
   2 N2             0.0021    -0.0041     0.0020 N.3     
   3 C3             0.6332    -0.5548    -1.2048 C.3     
   4 C4             2.0970    -0.1051    -1.2622 C.3     
   5 N5             2.1400     1.3609    -1.1517 N.am    
   6 C6             1.4134     1.9968    -0.0422 C.3     
   7 C7             2.8274     2.1020    -2.0432 C.2     
   8 C8             2.8582     3.6029    -1.9111 C.3     
   9 O9             3.6455     4.1579    -2.9666 O.3     
  10 C10            3.7396     5.5835    -2.9336 C.3     
  11 C11            4.5879     6.0576    -4.0853 C.ar    
  12 C12            3.9991     6.3555    -5.3001 C.ar    
  13 C13           -1.2782    -0.5212     0.1755 C.ar    
  14 C14           -1.8807    -1.2472    -0.8427 C.ar    
  15 O15            3.4213     1.5609    -2.9518 O.2     
  16 C16            4.7759     6.7908    -6.3569 C.ar    
  17 C17            6.1445     6.9287    -6.1987 C.ar    
  18 C18            6.7332     6.6301    -4.9815 C.ar    
  19 C19            5.9536     6.2000    -3.9246 C.ar    
  20 C20           -3.1510    -1.7598    -0.6695 C.ar    
  21 C21           -3.8345    -1.5544     0.5198 C.ar    
  22 C22           -3.2510    -0.8349     1.5429 C.ar    
  23 C23           -1.9638    -0.3157     1.3830 C.ar    
  24 F24           -5.0772    -2.0605     0.6773 F       
  25 F25            6.9050     7.3538    -7.2312 F       
  26 C26           -1.3520     0.4313     2.4404 C.1     
  27 N27           -0.8666     1.0240     3.2793 N.1     
  28 H28           -0.5409     1.7979    -0.9323 H       
  29 H29           -0.5448     1.8400     0.8477 H       
  30 H30            0.5881    -1.6434    -1.1743 H       
  31 H31            0.1066    -0.1931    -2.0880 H       
  32 H32            2.6498    -0.5510    -0.4354 H       
  33 H33            2.5380    -0.4139    -2.2100 H       
  34 H34            1.4025     3.0775    -0.1833 H       
  35 H35            1.9005     1.7529     0.9019 H       
  36 H36            1.8424     3.9938    -1.9712 H       
  37 H37            3.2956     3.8741    -0.9503 H       
  38 H38            2.7422     6.0154    -3.0149 H       
  39 H39            4.1953     5.8958    -1.9939 H       
  40 H40            2.9316     6.2475    -5.4234 H       
  41 H41           -1.3552    -1.4112    -1.7718 H       
  42 H42            4.3157     7.0231    -7.3060 H       
  43 H43            7.8006     6.7373    -4.8570 H       
  44 H44            6.4125     5.9670    -2.9751 H       
  45 H45           -3.6153    -2.3237    -1.4650 H       
  46 H46           -3.7868    -0.6771     2.4672 H       
@<TRIPOS>BOND
   1    1    2 1
   2    1    6 1
   3    1   28 1
   4    1   29 1
   5    2    3 1
   6    2   13 1
   7    3    4 1
   8    3   30 1
   9    3   31 1
  10    4    5 1
  11    4   32 1
  12    4   33 1
  13    5    6 1
  14    5    7 am
  15    6   34 1
  16    6   35 1
  17    7    8 1
  18    7   15 2
  19    8    9 1
  20    8   36 1
  21    8   37 1
  22    9   10 1
  23   10   11 1
  24   10   38 1
  25   10   39 1
  26   11   12 ar
  27   11   19 ar
  28   12   16 ar
  29   12   40 1
  30   13   14 ar
  31   13   23 ar
  32   14   20 ar
  33   14   41 1
  34   16   17 ar
  35   16   42 1
  36   17   18 ar
  37   17   25 1
  38   18   19 ar
  39   18   43 1
  40   19   44 1
  41   20   21 ar
  42   20   45 1
  43   21   22 ar
  44   21   24 1
  45   22   23 ar
  46   22   46 1
  47   23   26 1
  48   26   27 3

#	End of record

