#	Name: ASD01880270
#	Creating user name:	WinNT
#	Creation time:	15. 06. 2019 19:40

#	Modifying user name:	WinNT
#	Modification time:	15. 06. 2019 19:40

#	Program:	/corina/corina34_cracker 3.40 0067  02.08.2006

@<TRIPOS>MOLECULE
ASD01880270
  41   43    0    0    0
SMALL
NO_CHARGES


@<TRIPOS>ATOM
   1 C1            -0.0180     1.4798     0.0102 C.ar    
   2 C2             0.0021    -0.0041     0.0020 C.2     
   3 C3            -0.4771    -0.7020     1.0725 C.2     
   4 N4            -0.4626    -2.0582     1.0736 N.am    
   5 C5             0.0235    -2.7446     0.0227 C.2     
   6 C6             0.5262    -2.0618    -1.0989 C.2     
   7 C7             0.5116    -0.7001    -1.1154 C.2     
   8 O8             0.0284    -3.9649     0.0438 O.2     
   9 C9            -0.9824    -2.7857     2.2341 C.3     
  10 C10           -2.4538    -3.0495     2.0438 C.ar    
  11 C11            1.1784     2.1943     0.0026 C.ar    
  12 C12            1.1565     3.5734     0.0097 C.ar    
  13 C13           -0.0556     4.2496     0.0249 C.ar    
  14 C14           -1.2490     3.5407     0.0330 C.ar    
  15 C15           -1.2335     2.1615     0.0196 C.ar    
  16 O16           -0.0740     5.6085     0.0324 O.3     
  17 C17           -1.3559     6.2399     0.0480 C.3     
  18 C18           -2.8839    -4.2099     1.4191 C.ar    
  19 C19           -4.2474    -4.4108     1.2662 C.ar    
  20 C20           -5.1260    -3.4544     1.7382 C.ar    
  21 N21           -4.6810    -2.3616     2.3274 N.ar    
  22 C22           -3.3920    -2.1401     2.4950 C.ar    
  23 C23           -6.6099    -3.6622     1.5774 C.3     
  24 F24           -7.1097    -4.3397     2.6948 F       
  25 F25           -7.2449    -2.4209     1.4623 F       
  26 F26           -6.8528    -4.4189     0.4261 F       
  27 H27           -0.8708    -0.1700     1.9259 H       
  28 H28            0.9165    -2.6125    -1.9419 H       
  29 H29            0.8933    -0.1595    -1.9689 H       
  30 H30           -0.4535    -3.7334     2.3356 H       
  31 H31           -0.8337    -2.1885     3.1337 H       
  32 H32            2.1218     1.6687    -0.0085 H       
  33 H33            2.0834     4.1277     0.0039 H       
  34 H34           -2.1906     4.0695     0.0451 H       
  35 H35           -2.1623     1.6104     0.0259 H       
  36 H36           -1.9004     5.9347     0.9416 H       
  37 H37           -1.2278     7.3223     0.0525 H       
  38 H38           -1.9174     5.9442    -0.8383 H       
  39 H39           -2.1738    -4.9400     1.0597 H       
  40 H40           -4.6180    -5.3033     0.7840 H       
  41 H41           -3.0651    -1.2334     2.9822 H       
@<TRIPOS>BOND
   1    1    2 1
   2    1   11 ar
   3    1   15 ar
   4    2    3 2
   5    2    7 1
   6    3    4 1
   7    3   27 1
   8    4    5 am
   9    4    9 1
  10    5    6 1
  11    5    8 2
  12    6    7 2
  13    6   28 1
  14    7   29 1
  15    9   10 1
  16    9   30 1
  17    9   31 1
  18   10   18 ar
  19   10   22 ar
  20   11   12 ar
  21   11   32 1
  22   12   13 ar
  23   12   33 1
  24   13   14 ar
  25   13   16 1
  26   14   15 ar
  27   14   34 1
  28   15   35 1
  29   16   17 1
  30   17   36 1
  31   17   37 1
  32   17   38 1
  33   18   19 ar
  34   18   39 1
  35   19   20 ar
  36   19   40 1
  37   20   21 ar
  38   20   23 1
  39   21   22 ar
  40   22   41 1
  41   23   24 1
  42   23   25 1
  43   23   26 1

#	End of record

