#	Name: ASD01882819
#	Creating user name:	WinNT
#	Creation time:	15. 06. 2019 19:45

#	Modifying user name:	WinNT
#	Modification time:	15. 06. 2019 19:45

#	Program:	/corina/corina34_cracker 3.40 0067  02.08.2006

@<TRIPOS>MOLECULE
ASD01882819
  37   40    0    0    0
SMALL
NO_CHARGES


@<TRIPOS>ATOM
   1 C1            -0.0159     1.3220     0.0093 C.2     
   2 N2             0.0021    -0.0041     0.0020 N.2     
   3 C3             1.1523    -0.6857    -0.0126 C.2     
   4 C4             2.3835     0.0173    -0.0206 C.2     
   5 C5             2.3523     1.3664    -0.0131 C.2     
   6 N6             1.1484     2.0132     0.0019 N.pl3   
   7 O7            -1.0993     2.1290     0.0184 O.3     
   8 C8             0.8540     3.4562     0.0125 C.3     
   9 C9            -0.6831     3.5211     0.0242 C.3     
  10 O10            1.1423    -1.9071    -0.0187 O.2     
  11 C11           -1.1944     4.2379    -1.2270 C.3     
  12 O12           -2.6209     4.3119    -1.1842 O.3     
  13 C13           -3.2388     4.9236    -2.2293 C.ar    
  14 C14           -4.6219     5.0299    -2.2513 C.ar    
  15 C15           -5.2499     5.6512    -3.3125 C.ar    
  16 C16           -4.4972     6.1693    -4.3575 C.ar    
  17 C17           -3.1134     6.0627    -4.3350 C.ar    
  18 C18           -2.4858     5.4463    -3.2706 C.ar    
  19 C19           -6.4727     6.9767    -5.5927 C.2     
  20 N20           -6.6808     7.6039    -6.7184 N.2     
  21 C21           -5.5047     7.8483    -7.3148 C.2     
  22 C22           -4.5260     7.3553    -6.5320 C.2     
  23 N23           -5.1353     6.8005    -5.4367 N.pl3   
  24 H24            3.3237    -0.5140    -0.0321 H       
  25 H25            3.2727     1.9314    -0.0185 H       
  26 H26            1.2651     3.9237     0.9072 H       
  27 H27            1.2480     3.9334    -0.8848 H       
  28 H28           -1.0396     4.0220     0.9243 H       
  29 H29           -0.7793     5.2451    -1.2639 H       
  30 H30           -0.8857     3.6850    -2.1142 H       
  31 H31           -5.2075     4.6265    -1.4385 H       
  32 H32           -6.3266     5.7336    -3.3298 H       
  33 H33           -2.5274     6.4657    -5.1478 H       
  34 H34           -1.4089     5.3672    -3.2510 H       
  35 H35           -7.2360     6.6558    -4.8993 H       
  36 H36           -5.3664     8.3529    -8.2596 H       
  37 H37           -3.4648     7.3898    -6.7297 H       
@<TRIPOS>BOND
   1    1    2 2
   2    1    6 1
   3    1    7 1
   4    2    3 1
   5    3    4 1
   6    3   10 2
   7    4    5 2
   8    4   24 1
   9    5    6 1
  10    5   25 1
  11    6    8 1
  12    7    9 1
  13    8    9 1
  14    8   26 1
  15    8   27 1
  16    9   11 1
  17    9   28 1
  18   11   12 1
  19   11   29 1
  20   11   30 1
  21   12   13 1
  22   13   14 ar
  23   13   18 ar
  24   14   15 ar
  25   14   31 1
  26   15   16 ar
  27   15   32 1
  28   16   17 ar
  29   16   23 1
  30   17   18 ar
  31   17   33 1
  32   18   34 1
  33   19   20 2
  34   19   23 1
  35   19   35 1
  36   20   21 1
  37   21   22 2
  38   21   36 1
  39   22   23 1
  40   22   37 1

#	End of record

