#	Name: ASD06170132
#	Creating user name:	WinNT
#	Creation time:	15. 06. 2019 21:05

#	Modifying user name:	WinNT
#	Modification time:	15. 06. 2019 21:05

#	Program:	/corina/corina34_cracker 3.40 0067  02.08.2006

@<TRIPOS>MOLECULE
ASD06170132
  62   67    0    0    0
SMALL
NO_CHARGES


@<TRIPOS>ATOM
   1 C1            -0.0471     1.3612     0.4097 C.2     
   2 C2            -0.0543    -0.0139     0.6607 C.2     
   3 C3             1.1359    -0.6740     0.8001 C.2     
   4 C4             2.3320     0.0430     0.6880 C.2     
   5 C5             2.3074     1.3757     0.4443 C.2     
   6 N6             1.1346     2.0343     0.3055 N.pl3   
   7 N7             0.8544     3.3840     0.0547 N.am    
   8 C8            -0.4792     3.5573     0.0019 C.2     
   9 C9            -1.0920     2.2995     0.2160 C.2     
  10 C10           -2.4793     2.0309     0.2349 C.2     
  11 O11           -2.8775     0.8966     0.4331 O.2     
  12 N12           -3.3618     3.0295     0.0338 N.am    
  13 O13           -1.0573     4.6108    -0.1992 O.2     
  14 C14           -4.7235     2.7463    -0.0697 C.ar    
  15 C15           -5.1365     1.4492    -0.3532 C.ar    
  16 C16           -6.4893     1.1793    -0.4532 C.ar    
  17 C17           -7.3902     2.2247    -0.2646 C.ar    
  18 C18           -6.9058     3.4924     0.0150 C.ar    
  19 N19           -5.6084     3.7139     0.1083 N.ar    
  20 O20           -8.7288     2.0040    -0.3544 O.3     
  21 N21          -10.4887    -0.3070     2.5733 N.ar    
  22 C22           -9.2211     0.0208     2.6641 C.ar    
  23 C23           -8.5944     0.7972     1.6979 C.ar    
  24 C24           -9.3142     1.2445     0.6037 C.ar    
  25 C25          -10.6785     0.8855     0.5161 C.ar    
  26 C26          -11.4720     1.3010    -0.5631 C.ar    
  27 C27          -12.7825     0.9385    -0.6193 C.ar    
  28 C28          -13.3515     0.1547     0.3886 C.ar    
  29 C29          -12.5991    -0.2684     1.4609 C.ar    
  30 C30          -11.2443     0.0907     1.5428 C.ar    
  31 O31          -14.6621    -0.1932     0.3092 O.3     
  32 C32          -15.3904     0.2766    -0.8270 C.3     
  33 C33            1.8549     4.4396    -0.1215 C.3     
  34 C34            2.1304     4.6305    -1.5907 C.ar    
  35 C35            1.3840     5.5355    -2.3220 C.ar    
  36 C36            1.6367     5.7106    -3.6697 C.ar    
  37 C37            2.6360     4.9810    -4.2861 C.ar    
  38 C38            3.3830     4.0766    -3.5546 C.ar    
  39 C39            3.1332     3.9047    -2.2059 C.ar    
  40 H40           -0.9887    -0.5490     0.7440 H       
  41 H41            1.1519    -1.7363     0.9947 H       
  42 H42            3.2777    -0.4671     0.7965 H       
  43 H43            3.2369     1.9191     0.3598 H       
  44 H44           -3.0499     3.9451    -0.0390 H       
  45 H45           -4.4101     0.6624    -0.4939 H       
  46 H46           -6.8389     0.1813    -0.6727 H       
  47 H47           -7.5984     4.3078     0.1624 H       
  48 H48           -8.6496    -0.3224     3.5139 H       
  49 H49           -7.5497     1.0511     1.8002 H       
  50 H50          -11.0441     1.9074    -1.3477 H       
  51 H51          -13.3901     1.2605    -1.4521 H       
  52 H52          -13.0482    -0.8737     2.2344 H       
  53 H53          -14.9299    -0.1068    -1.7376 H       
  54 H54          -16.4216    -0.0715    -0.7670 H       
  55 H55          -15.3751     1.3663    -0.8432 H       
  56 H56            1.4786     5.3710     0.3017 H       
  57 H57            2.7762     4.1555     0.3871 H       
  58 H58            0.6033     6.1056    -1.8405 H       
  59 H59            1.0531     6.4171    -4.2412 H       
  60 H60            2.8330     5.1172    -5.3392 H       
  61 H61            4.1635     3.5063    -4.0362 H       
  62 H62            3.7192     3.2008    -1.6336 H       
@<TRIPOS>BOND
   1    1    2 1
   2    1    6 1
   3    1    9 2
   4    2    3 2
   5    2   40 1
   6    3    4 1
   7    3   41 1
   8    4    5 2
   9    4   42 1
  10    5    6 1
  11    5   43 1
  12    6    7 1
  13    7    8 am
  14    7   33 1
  15    8    9 1
  16    8   13 2
  17    9   10 1
  18   10   11 2
  19   10   12 am
  20   12   14 1
  21   12   44 1
  22   14   15 ar
  23   14   19 ar
  24   15   16 ar
  25   15   45 1
  26   16   17 ar
  27   16   46 1
  28   17   18 ar
  29   17   20 1
  30   18   19 ar
  31   18   47 1
  32   20   24 1
  33   21   22 ar
  34   21   30 ar
  35   22   23 ar
  36   22   48 1
  37   23   24 ar
  38   23   49 1
  39   24   25 ar
  40   25   26 ar
  41   25   30 ar
  42   26   27 ar
  43   26   50 1
  44   27   28 ar
  45   27   51 1
  46   28   29 ar
  47   28   31 1
  48   29   30 ar
  49   29   52 1
  50   31   32 1
  51   32   53 1
  52   32   54 1
  53   32   55 1
  54   33   34 1
  55   33   56 1
  56   33   57 1
  57   34   35 ar
  58   34   39 ar
  59   35   36 ar
  60   35   58 1
  61   36   37 ar
  62   36   59 1
  63   37   38 ar
  64   37   60 1
  65   38   39 ar
  66   38   61 1
  67   39   62 1

#	End of record

