#	Name: ASD01810760
#	Creating user name:	WinNT
#	Creation time:	15. 06. 2019 19:25

#	Modifying user name:	WinNT
#	Modification time:	15. 06. 2019 19:25

#	Program:	/corina/corina34_cracker 3.40 0067  02.08.2006

@<TRIPOS>MOLECULE
ASD01810760
  19   19    0    0    0
SMALL
NO_CHARGES


@<TRIPOS>ATOM
   1 O1            -0.0173     1.4282     0.0099 O.3     
   2 C2             0.0021    -0.0041     0.0020 C.3     
   3 C3             1.4796    -0.4507     0.0295 C.3     
   4 C4             2.1925     0.8037     0.6040 C.3     
   5 C5             1.3259     1.9371    -0.0002 C.3     
   6 C6            -0.6641    -0.5175    -1.2484 C.2     
   7 O7            -1.0572     0.2623    -2.0900 O.2     
   8 N8            -0.8230    -1.8433    -1.4315 N.am    
   9 N9            -1.4268    -2.3087    -2.5650 N.3     
  10 H10           -0.5160    -0.3857     0.8818 H       
  11 H11            1.6133    -1.3088     0.6883 H       
  12 H12            1.8364    -0.6732    -0.9762 H       
  13 H13            2.1505     0.8151     1.6932 H       
  14 H14            3.2222     0.8662     0.2518 H       
  15 H15            1.6416     2.1514    -1.0212 H       
  16 H16            1.3950     2.8347     0.6143 H       
  17 H17           -0.5086    -2.4670    -0.7585 H       
  18 H18           -0.9546    -1.9719    -3.3906 H       
  19 H19           -1.4745    -3.3166    -2.5616 H       
@<TRIPOS>BOND
   1    1    2 1
   2    1    5 1
   3    2    3 1
   4    2    6 1
   5    2   10 1
   6    3    4 1
   7    3   11 1
   8    3   12 1
   9    4    5 1
  10    4   13 1
  11    4   14 1
  12    5   15 1
  13    5   16 1
  14    6    7 2
  15    6    8 am
  16    8    9 1
  17    8   17 1
  18    9   18 1
  19    9   19 1

#	End of record

