#	Name: ASD08170146
#	Creating user name:	WinNT
#	Creation time:	15. 06. 2019 21:17

#	Modifying user name:	WinNT
#	Modification time:	15. 06. 2019 21:17

#	Program:	/corina/corina34_cracker 3.40 0067  02.08.2006

@<TRIPOS>MOLECULE
ASD08170146
  64   65    0    0    0
SMALL
NO_CHARGES


@<TRIPOS>ATOM
   1 Cl1            0.0000     0.0000     0.0000 Cl      
   2 H2             0.0000     1.3700     0.0000 H       
   3 Cl3            5.0000     6.3700     5.0000 Cl      
   4 H4             5.0000     7.7400     5.0000 H       
   5 C5            12.0393    23.7023    13.0004 C.3     
   6 C6            13.4539    25.7617    12.9979 C.3     
   7 C7            14.8893    26.2913    12.9871 C.3     
   8 C8            14.8689    27.7982    12.9954 C.2     
   9 C9            12.0597    22.1955    12.9921 C.2     
  10 S10           14.8412    28.8461    11.5767 S.3     
  11 C11           14.8317    30.2124    12.6102 C.2     
  12 N12           14.8488    29.8023    13.8425 N.2     
  13 N13           14.8628    28.5563    14.0455 N.2     
  14 S14           12.0603    21.1628    11.5620 S.3     
  15 N15           12.0858    21.4261    14.0337 N.2     
  16 N16           12.0999    20.1824    13.8171 N.2     
  17 C17           12.0893    19.7856    12.5803 C.2     
  18 N18           12.1015    18.4620    12.1536 N.am    
  19 C19           12.1271    17.4626    13.0576 C.2     
  20 O20           12.1394    17.7176    14.2432 O.2     
  21 N21           14.8098    31.5404    12.1979 N.am    
  22 C22           14.8045    32.5300    13.1129 C.2     
  23 C23           14.7807    33.9691    12.6662 C.3     
  24 O24           14.8187    32.2623    14.2958 O.2     
  25 C25           12.1403    16.0284    12.5951 C.3     
  26 C26           12.1686    15.1146    13.7931 C.2     
  27 C27           13.4747    24.2319    12.9895 C.3     
  28 S28           10.9410    15.0538    15.0512 S.3     
  29 C29           14.7792    34.8701    13.8743 C.2     
  30 S30           16.0347    34.9178    15.1051 S.3     
  31 C31           13.1256    14.2241    14.0585 C.2     
  32 C32           12.9371    13.4938    15.2192 C.2     
  33 C33           11.8260    13.7898    15.8953 C.2     
  34 C34           13.8284    35.7574    14.1705 C.2     
  35 C35           14.0427    36.4753    15.3345 C.2     
  36 C36           15.1687    36.1724    15.9823 C.2     
  37 C37           16.0186    34.2594    11.8151 C.3     
  38 O38           15.9611    33.4894    10.6127 O.3     
  39 C39           10.8837    15.7474    11.7688 C.3     
  40 O40           10.9144    16.5302    10.5737 O.3     
  41 H41           11.5121    24.0634    12.1173 H       
  42 H42           11.5291    24.0538    13.8972 H       
  43 H43           12.9438    26.1133    13.8947 H       
  44 H44           12.9268    26.1228    12.1149 H       
  45 H45           15.4165    25.9302    13.8702 H       
  46 H46           15.3995    25.9398    12.0903 H       
  47 H47           12.0917    18.2580    11.2053 H       
  48 H48           14.7984    31.7545    11.2519 H       
  49 H49           13.8829    34.1515    12.0758 H       
  50 H50           13.0247    15.8522    11.9828 H       
  51 H51           14.0019    23.8708    13.8726 H       
  52 H52           13.9849    23.8804    12.0927 H       
  53 H53           13.9824    14.0833    13.4163 H       
  54 H54           13.6357    12.7400    15.5512 H       
  55 H55           11.5164    13.3236    16.8190 H       
  56 H56           12.9574    35.9048    13.5492 H       
  57 H57           13.3517    37.2252    15.6901 H       
  58 H58           15.4989    36.6288    16.9038 H       
  59 H59           16.0477    35.3202    11.5661 H       
  60 H60           16.9151    33.9928    12.3748 H       
  61 H61           16.7159    33.6235    10.0233 H       
  62 H62           10.8486    14.6893    11.5093 H       
  63 H63           10.0000    16.0081    12.3513 H       
  64 H64           10.1466    16.4024    10.0000 H       
@<TRIPOS>BOND
   1    1    2 1
   2    3    4 1
   3    5    9 1
   4    5   27 1
   5    5   41 1
   6    5   42 1
   7    6    7 1
   8    6   27 1
   9    6   43 1
  10    6   44 1
  11    7    8 1
  12    7   45 1
  13    7   46 1
  14    8   10 1
  15    8   13 2
  16    9   14 1
  17    9   15 2
  18   10   11 1
  19   11   12 2
  20   11   21 1
  21   12   13 1
  22   14   17 1
  23   15   16 1
  24   16   17 2
  25   17   18 1
  26   18   19 am
  27   18   47 1
  28   19   20 2
  29   19   25 1
  30   21   22 am
  31   21   48 1
  32   22   23 1
  33   22   24 2
  34   23   29 1
  35   23   37 1
  36   23   49 1
  37   25   26 1
  38   25   39 1
  39   25   50 1
  40   26   28 1
  41   26   31 2
  42   27   51 1
  43   27   52 1
  44   28   33 1
  45   29   30 1
  46   29   34 2
  47   30   36 1
  48   31   32 1
  49   31   53 1
  50   32   33 2
  51   32   54 1
  52   33   55 1
  53   34   35 1
  54   34   56 1
  55   35   36 2
  56   35   57 1
  57   36   58 1
  58   37   38 1
  59   37   59 1
  60   37   60 1
  61   38   61 1
  62   39   40 1
  63   39   62 1
  64   39   63 1
  65   40   64 1

#	End of record

