#	Name: ASD01209344
#	Creating user name:	WinNT
#	Creation time:	15. 06. 2019 19:11

#	Modifying user name:	WinNT
#	Modification time:	15. 06. 2019 19:11

#	Program:	/corina/corina34_cracker 3.40 0067  02.08.2006

@<TRIPOS>MOLECULE
ASD01209344
  33   34    0    0    0
SMALL
NO_CHARGES


@<TRIPOS>ATOM
   1 N1            -0.0162     1.3410     0.0094 N.am    
   2 C2             0.0021    -0.0041     0.0020 C.2     
   3 C3             1.4121    -0.4523    -0.0139 C.2     
   4 C4             2.1715     0.6557    -0.0152 C.2     
   5 C5             1.2449     1.8091    -0.0001 C.2     
   6 O6            -0.9729    -0.7274     0.0078 O.2     
   7 O7             1.5679     2.9794     0.0031 O.2     
   8 C8             3.6774     0.7129    -0.0285 C.3     
   9 C9             1.9019    -1.8774    -0.0254 C.3     
  10 C10           -1.2245     2.1692     0.0198 C.3     
  11 C11           -1.6319     2.4455     1.4442 C.ar    
  12 C12           -1.1411     3.5603     2.0985 C.ar    
  13 C13           -1.5130     3.8157     3.4042 C.ar    
  14 C14           -2.3797     2.9527     4.0589 C.ar    
  15 C15           -2.8708     1.8349     3.4001 C.ar    
  16 C16           -2.5003     1.5869     2.0926 C.ar    
  17 O17           -2.7467     3.2016     5.3435 O.3     
  18 C18           -3.6420     2.2703     5.9545 C.3     
  19 H19            4.0311     0.7318    -1.0593 H       
  20 H20            4.0113     1.6134     0.4869 H       
  21 H21            4.0788    -0.1652     0.4773 H       
  22 H22            1.0482    -2.5551    -0.0208 H       
  23 H23            2.4976    -2.0496    -0.9219 H       
  24 H24            2.5142    -2.0583     0.8580 H       
  25 H25           -1.0235     3.1115    -0.4899 H       
  26 H26           -2.0299     1.6434    -0.4929 H       
  27 H27           -0.4661     4.2316     1.5886 H       
  28 H28           -1.1291     4.6864     3.9150 H       
  29 H29           -3.5456     1.1615     3.9076 H       
  30 H30           -2.8860     0.7194     1.5777 H       
  31 H31           -3.8531     2.5860     6.9762 H       
  32 H32           -4.5714     2.2335     5.3862 H       
  33 H33           -3.1844     1.2811     5.9670 H       
@<TRIPOS>BOND
   1    1    2 am
   2    1    5 am
   3    1   10 1
   4    2    3 1
   5    2    6 2
   6    3    4 2
   7    3    9 1
   8    4    5 1
   9    4    8 1
  10    5    7 2
  11    8   19 1
  12    8   20 1
  13    8   21 1
  14    9   22 1
  15    9   23 1
  16    9   24 1
  17   10   11 1
  18   10   25 1
  19   10   26 1
  20   11   12 ar
  21   11   16 ar
  22   12   13 ar
  23   12   27 1
  24   13   14 ar
  25   13   28 1
  26   14   15 ar
  27   14   17 1
  28   15   16 ar
  29   15   29 1
  30   16   30 1
  31   17   18 1
  32   18   31 1
  33   18   32 1
  34   18   33 1

#	End of record

