#	Name: ASD02500649
#	Creating user name:	WinNT
#	Creation time:	15. 06. 2019 20:23

#	Modifying user name:	WinNT
#	Modification time:	15. 06. 2019 20:23

#	Program:	/corina/corina34_cracker 3.40 0067  02.08.2006

@<TRIPOS>MOLECULE
ASD02500649
  68   72    0    0    0
SMALL
NO_CHARGES


@<TRIPOS>ATOM
   1 N1            -3.5868     5.5440    -0.1511 N.ar    
   2 C2            -4.7068     6.1743    -0.4092 C.ar    
   3 C3            -5.8617     5.9533     0.3382 C.ar    
   4 C4            -5.8448     5.0594     1.3706 C.ar    
   5 C5            -4.6405     4.3839     1.6447 C.ar    
   6 C6            -4.5466     3.4514     2.6900 C.ar    
   7 C7            -3.3635     2.8191     2.9235 C.ar    
   8 C8            -2.2436     3.0855     2.1387 C.ar    
   9 C9            -2.2991     3.9834     1.1174 C.ar    
  10 C10           -3.5026     4.6565     0.8452 C.ar    
  11 S11           -0.8673     4.3018     0.1410 S.o2    
  12 O12           -0.7199     5.7143     0.0936 O.2     
  13 O13            0.1473     3.4301     0.6204 O.2     
  14 N14           -1.2099     3.8153    -1.4044 N.am    
  15 C15           -1.3929     2.4631    -1.6846 C.ar    
  16 C16           -0.9978     1.9476    -2.9207 C.ar    
  17 C17           -1.1788     0.6082    -3.1990 C.ar    
  18 C18           -1.7581    -0.2301    -2.2411 C.ar    
  19 C19           -2.1515     0.2914    -1.0061 C.ar    
  20 C20           -1.9635     1.6280    -0.7310 C.ar    
  21 O21           -0.4350     2.7655    -3.8504 O.3     
  22 C22           -0.0547     2.1706    -5.0928 C.3     
  23 C23           -1.9540    -1.6625    -2.5344 C.2     
  24 O24           -2.3293    -2.0115    -3.6371 O.2     
  25 N25           -1.7169    -2.5844    -1.5802 N.am    
  26 C26           -1.8166    -4.0214    -1.8775 C.3     
  27 C27           -0.5312    -4.7070    -1.4022 C.3     
  28 N28           -0.2991    -4.3797     0.0109 N.3     
  29 C29           -0.0846    -2.9382     0.1957 C.3     
  30 C30           -1.3458    -2.1801    -0.2157 C.3     
  31 C31            0.8264    -5.1530     0.5524 C.3     
  32 C32            0.4576    -6.6376     0.5823 C.3     
  33 C33            1.6486    -7.4664     1.0946 C.3     
  34 C34            1.1711    -8.1777     2.3775 C.3     
  35 C35           -0.3694    -8.2373     2.2279 C.3     
  36 C36           -0.7020    -6.8742     1.5717 C.3     
  37 H37           -4.7349     6.8842    -1.2227 H       
  38 H38           -6.7693     6.4887     0.1017 H       
  39 H39           -6.7307     4.8760     1.9606 H       
  40 H40           -5.4078     3.2371     3.3055 H       
  41 H41           -3.2922     2.1019     3.7278 H       
  42 H42           -1.3163     2.5714     2.3444 H       
  43 H43           -1.2831     4.4720    -2.1146 H       
  44 H44           -0.8740     0.2081    -4.1547 H       
  45 H45           -2.5994    -0.3544    -0.2653 H       
  46 H46           -2.2640     2.0288     0.2258 H       
  47 H47            0.3798     2.9309    -5.7418 H       
  48 H48            0.6795     1.3859    -4.9102 H       
  49 H49           -0.9335     1.7412    -5.5740 H       
  50 H50           -2.6731    -4.4452    -1.3531 H       
  51 H51           -1.9331    -4.1659    -2.9515 H       
  52 H52           -0.6323    -5.7866    -1.5136 H       
  53 H53            0.3103    -4.3565    -1.9998 H       
  54 H54            0.1381    -2.7349     1.2431 H       
  55 H55            0.7507    -2.6123    -0.4241 H       
  56 H56           -1.1511    -1.1079    -0.1916 H       
  57 H57           -2.1561    -2.4235     0.4715 H       
  58 H58            1.7033    -5.0091    -0.0789 H       
  59 H59            1.0474    -4.8131     1.5642 H       
  60 H60            0.1721    -6.9713    -0.4154 H       
  61 H61            1.9405    -8.2028     0.3459 H       
  62 H62            2.4893    -6.8109     1.3219 H       
  63 H63            1.5881    -9.1832     2.4339 H       
  64 H64            1.4466    -7.5994     3.2594 H       
  65 H65           -0.6627    -9.0610     1.5771 H       
  66 H66           -0.8491    -8.3240     3.2028 H       
  67 H67           -0.7290    -6.0854     2.3235 H       
  68 H68           -1.6521    -6.9285     1.0401 H       
@<TRIPOS>BOND
   1    1    2 ar
   2    1   10 ar
   3    2    3 ar
   4    2   37 1
   5    3    4 ar
   6    3   38 1
   7    4    5 ar
   8    4   39 1
   9    5    6 ar
  10    5   10 ar
  11    6    7 ar
  12    6   40 1
  13    7    8 ar
  14    7   41 1
  15    8    9 ar
  16    8   42 1
  17    9   10 ar
  18    9   11 1
  19   11   12 2
  20   11   13 2
  21   11   14 am
  22   14   15 1
  23   14   43 1
  24   15   16 ar
  25   15   20 ar
  26   16   17 ar
  27   16   21 1
  28   17   18 ar
  29   17   44 1
  30   18   19 ar
  31   18   23 1
  32   19   20 ar
  33   19   45 1
  34   20   46 1
  35   21   22 1
  36   22   47 1
  37   22   48 1
  38   22   49 1
  39   23   24 2
  40   23   25 am
  41   25   26 1
  42   25   30 1
  43   26   27 1
  44   26   50 1
  45   26   51 1
  46   27   28 1
  47   27   52 1
  48   27   53 1
  49   28   29 1
  50   28   31 1
  51   29   30 1
  52   29   54 1
  53   29   55 1
  54   30   56 1
  55   30   57 1
  56   31   32 1
  57   31   58 1
  58   31   59 1
  59   32   33 1
  60   32   36 1
  61   32   60 1
  62   33   34 1
  63   33   61 1
  64   33   62 1
  65   34   35 1
  66   34   63 1
  67   34   64 1
  68   35   36 1
  69   35   65 1
  70   35   66 1
  71   36   67 1
  72   36   68 1

#	End of record

