#	Name: ASD03730101
#	Creating user name:	WinNT
#	Creation time:	15. 06. 2019 20:43

#	Modifying user name:	WinNT
#	Modification time:	15. 06. 2019 20:43

#	Program:	/corina/corina34_cracker 3.40 0067  02.08.2006

@<TRIPOS>MOLECULE
ASD03730101
  52   57    0    0    0
SMALL
NO_CHARGES


@<TRIPOS>ATOM
   1 C1            -0.0557     1.4818     0.2614 C.2     
   2 C2            -0.0597    -0.0251     0.2489 C.3     
   3 O3             0.9734     2.0837     0.4843 O.2     
   4 N4            -1.1946     2.1607     0.0195 N.am    
   5 C5            -1.2153     3.5552     0.1328 C.ar    
   6 C6            -0.4996     4.3370    -0.7646 C.ar    
   7 C7            -0.5221     5.7132    -0.6500 C.ar    
   8 C8            -1.2562     6.3127     0.3568 C.ar    
   9 C9            -1.9696     5.5371     1.2522 C.ar    
  10 C10           -1.9562     4.1606     1.1393 C.ar    
  11 O11            5.6300     2.7417     3.6640 O.3     
  12 C12            6.9661     2.6596     4.1943 C.3     
  13 O13            7.0406     1.3251     4.7294 O.3     
  14 C14            6.1535     0.5878     3.9986 C.ar    
  15 C15            5.2857     1.4594     3.3445 C.ar    
  16 C16            6.0145    -0.7788     3.8350 C.ar    
  17 C17            5.0099    -1.2928     3.0206 C.ar    
  18 C18            4.1440    -0.4124     2.3791 C.ar    
  19 C19            4.2838     0.9508     2.5352 C.ar    
  20 O20            4.7137    -2.5884     2.7139 O.3     
  21 C21            3.1663    -1.2582     1.6078 C.3     
  22 C22            3.3701    -2.6596     2.1993 C.3     
  23 N23            1.2902    -0.5194     0.5313 N.am    
  24 C24            1.7514    -0.7822     1.7703 C.2     
  25 C25            3.4281    -1.2305     0.1312 C.ar    
  26 C26            4.5187    -1.5468    -0.6478 C.ar    
  27 C27            4.4500    -1.4137    -2.0231 C.ar    
  28 C28            3.2837    -0.9617    -2.6134 C.ar    
  29 C29            2.1890    -0.6427    -1.8374 C.ar    
  30 C30            2.2491    -0.7740    -0.4522 C.ar    
  31 O31            1.1428    -0.6587     2.8122 O.2     
  32 C32           -2.4108     1.4386    -0.3622 C.3     
  33 H33           -0.7479    -0.3930     1.0099 H       
  34 H34           -0.3787    -0.3795    -0.7313 H       
  35 H35            0.0742     3.8693    -1.5509 H       
  36 H36            0.0346     6.3217    -1.3473 H       
  37 H37           -1.2722     7.3891     0.4443 H       
  38 H38           -2.5417     6.0083     2.0377 H       
  39 H39           -2.5174     3.5556     1.8360 H       
  40 H40            7.7018     2.7961     3.4017 H       
  41 H41            7.1108     3.3973     4.9836 H       
  42 H42            6.6901    -1.4512     4.3426 H       
  43 H43            3.6098     1.6233     2.0254 H       
  44 H44            3.2923    -3.4220     1.4241 H       
  45 H45            2.6575    -2.8483     3.0022 H       
  46 H46            5.4285    -1.8994    -0.1847 H       
  47 H47            5.3048    -1.6626    -2.6344 H       
  48 H48            3.2301    -0.8577    -3.6871 H       
  49 H49            1.2820    -0.2898    -2.3057 H       
  50 H50           -2.9731     1.1752     0.5337 H       
  51 H51           -3.0239     2.0727    -1.0027 H       
  52 H52           -2.1403     0.5308    -0.9014 H       
@<TRIPOS>BOND
   1    1    2 1
   2    1    3 2
   3    1    4 am
   4    2   23 1
   5    2   33 1
   6    2   34 1
   7    4    5 1
   8    4   32 1
   9    5    6 ar
  10    5   10 ar
  11    6    7 ar
  12    6   35 1
  13    7    8 ar
  14    7   36 1
  15    8    9 ar
  16    8   37 1
  17    9   10 ar
  18    9   38 1
  19   10   39 1
  20   11   12 1
  21   11   15 1
  22   12   13 1
  23   12   40 1
  24   12   41 1
  25   13   14 1
  26   14   15 ar
  27   14   16 ar
  28   15   19 ar
  29   16   17 ar
  30   16   42 1
  31   17   18 ar
  32   17   20 1
  33   18   19 ar
  34   18   21 1
  35   19   43 1
  36   20   22 1
  37   21   22 1
  38   21   24 1
  39   21   25 1
  40   22   44 1
  41   22   45 1
  42   23   24 am
  43   23   30 1
  44   24   31 2
  45   25   26 ar
  46   25   30 ar
  47   26   27 ar
  48   26   46 1
  49   27   28 ar
  50   27   47 1
  51   28   29 ar
  52   28   48 1
  53   29   30 ar
  54   29   49 1
  55   32   50 1
  56   32   51 1
  57   32   52 1

#	End of record

