#	Name: ASD01190045
#	Creating user name:	WinNT
#	Creation time:	15. 06. 2019 19:07

#	Modifying user name:	WinNT
#	Modification time:	15. 06. 2019 19:07

#	Program:	/corina/corina34_cracker 3.40 0067  02.08.2006

@<TRIPOS>MOLECULE
ASD01190045
  45   49    0    0    0
SMALL
NO_CHARGES


@<TRIPOS>ATOM
   1 C1            -0.0187     1.5258     0.0104 C.3     
   2 C2             0.5337     0.1160    -0.2094 C.3     
   3 C3            -0.0517     4.7979     0.7418 C.ar    
   4 C4             0.9859     3.8677     0.7474 C.ar    
   5 C5             2.2817     4.2893     1.1119 C.ar    
   6 C6             2.4648     5.6280     1.4522 C.ar    
   7 C7             1.3904     6.4726     1.4196 C.ar    
   8 N8             0.1853     6.0504     1.0734 N.ar    
   9 N9             3.1018     3.1938     1.0350 N.pl3   
  10 C10            1.0968     2.4397     0.4481 C.2     
  11 C11            2.3816     2.0986     0.6381 C.2     
  12 N12           -2.4762     3.4218    -4.6773 N.pl3   
  13 N13           -3.8077     3.3930    -4.2497 N.2     
  14 C14           -3.8743     2.9625    -3.0217 C.2     
  15 C15           -2.5148     2.6774    -2.5739 C.ar    
  16 C16           -1.9641     2.2014    -1.3788 C.ar    
  17 C17           -0.6129     2.0387    -1.2759 C.ar    
  18 C18            0.2201     2.3421    -2.3460 C.ar    
  19 C19           -0.2941     2.8086    -3.5227 C.ar    
  20 C20           -1.6686     2.9842    -3.6571 C.ar    
  21 C21           -2.0379     3.8263    -5.9449 C.ar    
  22 C22           -2.8110     3.5572    -7.0666 C.ar    
  23 C23           -2.3771     3.9568    -8.3153 C.ar    
  24 C24           -1.1718     4.6256    -8.4492 C.ar    
  25 C25           -0.3993     4.8950    -7.3319 C.ar    
  26 C26           -0.8323     4.5021    -6.0808 C.ar    
  27 F27           -0.7489     5.0153    -9.6717 F       
  28 F28            1.0854    -0.3602     0.9847 F       
  29 F29           -0.5018    -0.7325    -0.6158 F       
  30 F30            1.5226     0.1516    -1.1984 F       
  31 O31           -1.0288     1.4894     1.0206 O.3     
  32 H32           -1.0490     4.4929     0.4610 H       
  33 H33            3.4405     5.9927     1.7377 H       
  34 H34            1.5289     7.5109     1.6828 H       
  35 H35            4.0516     3.1941     1.2322 H       
  36 H36            2.7871     1.1075     0.4979 H       
  37 H37           -4.7751     2.8390    -2.4388 H       
  38 H38           -2.6048     1.9642    -0.5423 H       
  39 H39            1.2870     2.2078    -2.2461 H       
  40 H40            0.3643     3.0410    -4.3466 H       
  41 H41           -3.7508     3.0353    -6.9626 H       
  42 H42           -2.9779     3.7473    -9.1879 H       
  43 H43            0.5405     5.4163    -7.4386 H       
  44 H44           -0.2319     4.7167    -5.2091 H       
  45 H45           -1.4243     2.3507     1.2125 H       
@<TRIPOS>BOND
   1    1    2 1
   2    1   10 1
   3    1   17 1
   4    1   31 1
   5    2   28 1
   6    2   29 1
   7    2   30 1
   8    3    4 ar
   9    3    8 ar
  10    3   32 1
  11    4    5 ar
  12    4   10 1
  13    5    6 ar
  14    5    9 1
  15    6    7 ar
  16    6   33 1
  17    7    8 ar
  18    7   34 1
  19    9   11 1
  20    9   35 1
  21   10   11 2
  22   11   36 1
  23   12   13 1
  24   12   20 1
  25   12   21 1
  26   13   14 2
  27   14   15 1
  28   14   37 1
  29   15   16 ar
  30   15   20 ar
  31   16   17 ar
  32   16   38 1
  33   17   18 ar
  34   18   19 ar
  35   18   39 1
  36   19   20 ar
  37   19   40 1
  38   21   22 ar
  39   21   26 ar
  40   22   23 ar
  41   22   41 1
  42   23   24 ar
  43   23   42 1
  44   24   25 ar
  45   24   27 1
  46   25   26 ar
  47   25   43 1
  48   26   44 1
  49   31   45 1

#	End of record

