#	Name: ASD08170343
#	Creating user name:	WinNT
#	Creation time:	15. 06. 2019 21:17

#	Modifying user name:	WinNT
#	Modification time:	15. 06. 2019 21:17

#	Program:	/corina/corina34_cracker 3.40 0067  02.08.2006

@<TRIPOS>MOLECULE
ASD08170343
  57   60    0    0    0
SMALL
NO_CHARGES


@<TRIPOS>ATOM
   1 N1            -0.0156     1.2977     0.0092 N.2     
   2 C2             0.0021    -0.0041     0.0020 C.2     
   3 S3             1.6908    -0.5171    -0.0169 S.3     
   4 C4             2.1707     1.1812    -0.0123 C.2     
   5 N5             1.0934     1.8979     0.0018 N.2     
   6 C6             7.9349     3.2709     4.7968 C.2     
   7 S7             7.6687     4.6845     5.8192 S.3     
   8 C8             8.3473     3.7861     7.1784 C.2     
   9 N9             8.6771     2.6034     6.7454 N.2     
  10 N10            8.4600     2.3435     5.5307 N.2     
  11 C11            9.2028     3.9603    10.8038 C.ar    
  12 C12            9.7575     3.1379    11.7858 C.ar    
  13 C13            8.8096     5.2594    11.1302 C.ar    
  14 C14            8.9711     5.7228    12.4196 C.ar    
  15 C15            9.5218     4.9036    13.3888 C.ar    
  16 C16            9.9137     3.6136    13.0725 C.ar    
  17 C17           -3.5300    -1.1997     0.0301 C.ar    
  18 C18           -4.8155    -0.6561     0.0453 C.ar    
  19 C19           -5.9146    -1.4917     0.0512 C.ar    
  20 C20           -5.7430    -2.8658     0.0426 C.ar    
  21 C21           -4.4711    -3.4098     0.0276 C.ar    
  22 C22           -3.3648    -2.5858     0.0157 C.ar    
  23 Cl23          10.6038     2.5932    14.2957 Cl      
  24 Cl24          -7.5147    -0.8186     0.0700 Cl      
  25 N25           -1.1087    -0.8393     0.0085 N.am    
  26 C26           -2.3487    -0.3114     0.0232 C.2     
  27 O27           -2.4955     0.8953     0.0306 O.2     
  28 N28            8.5022     4.2565     8.4769 N.am    
  29 C29            9.0381     3.4600     9.4228 C.2     
  30 O30            9.3860     2.3300     9.1402 O.2     
  31 C31            3.5841     1.7039    -0.0226 C.3     
  32 C32            4.0757     1.8732     1.4164 C.3     
  33 S33            5.7770     2.5024     1.4041 S.3     
  34 C34            6.1760     2.6346     3.1687 C.3     
  35 C35            7.6034     3.1610     3.3308 C.3     
  36 N36            9.6929     5.4080    14.7698 N.pl3   
  37 O37            9.3491     6.5421    15.0508 O.2     
  38 O38           10.1774     4.6889    15.6251 O.2     
  39 N39           -6.9253    -3.7562     0.0500 N.pl3   
  40 O40           -6.7773    -4.9651     0.0425 O.2     
  41 O41           -8.0463    -3.2800     0.0636 O.2     
  42 H42           10.0633     2.1317    11.5398 H       
  43 H43            8.3802     5.9006    10.3747 H       
  44 H44            8.6672     6.7278    12.6728 H       
  45 H45           -4.9501     0.4155     0.0527 H       
  46 H46           -4.3441    -4.4823     0.0213 H       
  47 H47           -2.3726    -3.0122     0.0036 H       
  48 H48           -0.9915    -1.8022     0.0026 H       
  49 H49            8.2246     5.1582     8.7024 H       
  50 H50            4.2287     0.9980    -0.5461 H       
  51 H51            3.6115     2.6674    -0.5316 H       
  52 H52            3.4310     2.5792     1.9399 H       
  53 H53            4.0483     0.9098     1.9254 H       
  54 H54            5.4787     3.3216     3.6484 H       
  55 H55            6.0960     1.6521     3.6339 H       
  56 H56            7.6834     4.1435     2.8656 H       
  57 H57            8.3006     2.4741     2.8511 H       
@<TRIPOS>BOND
   1    1    2 2
   2    1    5 1
   3    2    3 1
   4    2   25 1
   5    3    4 1
   6    4    5 2
   7    4   31 1
   8    6    7 1
   9    6   35 1
  10    6   10 2
  11    7    8 1
  12    8    9 2
  13    8   28 1
  14    9   10 1
  15   11   12 ar
  16   11   13 ar
  17   11   29 1
  18   12   16 ar
  19   12   42 1
  20   13   14 ar
  21   13   43 1
  22   14   15 ar
  23   14   44 1
  24   15   16 ar
  25   15   36 1
  26   16   23 1
  27   17   18 ar
  28   17   26 1
  29   17   22 ar
  30   18   19 ar
  31   18   45 1
  32   19   20 ar
  33   19   24 1
  34   20   21 ar
  35   20   39 1
  36   21   22 ar
  37   21   46 1
  38   22   47 1
  39   25   26 am
  40   25   48 1
  41   26   27 2
  42   28   29 am
  43   28   49 1
  44   29   30 2
  45   31   32 1
  46   31   50 1
  47   31   51 1
  48   32   33 1
  49   32   52 1
  50   32   53 1
  51   33   34 1
  52   34   35 1
  53   34   54 1
  54   34   55 1
  55   35   56 1
  56   35   57 1
  57   36   37 2
  58   36   38 2
  59   39   40 2
  60   39   41 2

#	End of record

