#	Name: ASD01913011
#	Creating user name:	WinNT
#	Creation time:	15. 06. 2019 20:00

#	Modifying user name:	WinNT
#	Modification time:	15. 06. 2019 20:00

#	Program:	/corina/corina34_cracker 3.40 0067  02.08.2006

@<TRIPOS>MOLECULE
ASD01913011
  44   47    0    0    0
SMALL
NO_CHARGES


@<TRIPOS>ATOM
   1 C1            -0.0792     1.6473     1.0664 C.3     
   2 C2            -0.0908     0.2617     0.4131 C.3     
   3 N3            -1.4836    -0.1861     0.2786 N.am    
   4 C4            -2.4452     0.6916    -0.4023 C.3     
   5 C5            -2.4073     2.0724     0.2601 C.3     
   6 C6            -0.9689     2.5951     0.2588 C.3     
   7 C7            -1.8718    -1.3795     0.7700 C.2     
   8 C8            -3.2921    -1.7799     0.7017 C.ar    
   9 O9            -1.0530    -2.1266     1.2695 O.2     
  10 C10           -3.9867    -1.6952    -0.5068 C.ar    
  11 C11           -5.3117    -2.0704    -0.5651 C.ar    
  12 C12           -5.9550    -2.5314     0.5735 C.ar    
  13 C13           -5.2702    -2.6171     1.7761 C.ar    
  14 C14           -3.9434    -2.2498     1.8442 C.ar    
  15 C15            1.3304     2.1798     1.0916 C.2     
  16 O16            2.1126     2.4060     0.0316 O.3     
  17 N17            3.1880     2.8351     0.3930 N.2     
  18 C18            3.2184     2.9311     1.6969 C.2     
  19 N19            2.0170     2.5131     2.1560 N.2     
  20 C20            4.3560     3.4136     2.5183 C.ar    
  21 C21            5.5387     3.8203     1.9037 C.ar    
  22 C22            6.5938     4.2686     2.6712 C.ar    
  23 C23            6.4789     4.3143     4.0514 C.ar    
  24 C24            5.3047     3.9108     4.6666 C.ar    
  25 C25            4.2427     3.4666     3.9063 C.ar    
  26 F26           -7.2538    -2.8979     0.5109 F       
  27 F27            7.5149     4.7531     4.7993 F       
  28 H28           -0.4580     1.5721     2.0857 H       
  29 H29            0.3716     0.3185    -0.5723 H       
  30 H30            0.4604    -0.4414     1.0377 H       
  31 H31           -2.1748     0.7835    -1.4542 H       
  32 H32           -3.4476     0.2723    -0.3158 H       
  33 H33           -3.0448     2.7601    -0.2955 H       
  34 H34           -2.7647     1.9933     1.2868 H       
  35 H35           -0.9430     3.5881     0.7075 H       
  36 H36           -0.6036     2.6505    -0.7667 H       
  37 H37           -3.4867    -1.3359    -1.3941 H       
  38 H38           -5.8499    -2.0050    -1.4991 H       
  39 H39           -5.7761    -2.9764     2.6600 H       
  40 H40           -3.4108    -2.3172     2.7813 H       
  41 H41            5.6293     3.7843     0.8281 H       
  42 H42            7.5108     4.5840     2.1957 H       
  43 H43            5.2194     3.9477     5.7426 H       
  44 H44            3.3277     3.1526     4.3865 H       
@<TRIPOS>BOND
   1    1    2 1
   2    1   15 1
   3    1   28 1
   4    1    6 1
   5    2    3 1
   6    2   29 1
   7    2   30 1
   8    3    4 1
   9    3    7 am
  10    4    5 1
  11    4   31 1
  12    4   32 1
  13    5    6 1
  14    5   33 1
  15    5   34 1
  16    6   35 1
  17    6   36 1
  18    7    8 1
  19    7    9 2
  20    8   10 ar
  21    8   14 ar
  22   10   11 ar
  23   10   37 1
  24   11   12 ar
  25   11   38 1
  26   12   13 ar
  27   12   26 1
  28   13   14 ar
  29   13   39 1
  30   14   40 1
  31   15   16 1
  32   15   19 2
  33   16   17 1
  34   17   18 2
  35   18   19 1
  36   18   20 1
  37   20   21 ar
  38   20   25 ar
  39   21   22 ar
  40   21   41 1
  41   22   23 ar
  42   22   42 1
  43   23   24 ar
  44   23   27 1
  45   24   25 ar
  46   24   43 1
  47   25   44 1

#	End of record

