#	Name: ASD07030001
#	Creating user name:	WinNT
#	Creation time:	15. 06. 2019 21:08

#	Modifying user name:	WinNT
#	Modification time:	15. 06. 2019 21:08

#	Program:	/corina/corina34_cracker 3.40 0067  02.08.2006

@<TRIPOS>MOLECULE
ASD07030001
  44   46    0    0    0
SMALL
NO_CHARGES


@<TRIPOS>ATOM
   1 N1            -0.0178     1.4648     0.0101 N.3     
   2 C2             1.3463     2.0098    -0.0000 C.3     
   3 C3             1.5405     3.4172    -0.5679 C.3     
   4 C4             1.6467     3.1792     0.9398 C.3     
   5 C5             2.8166     3.6940    -1.3203 C.ar    
   6 C6             2.7665     4.0911    -2.6434 C.ar    
   7 C7             3.9371     4.3449    -3.3336 C.ar    
   8 C8             5.1576     4.2020    -2.7005 C.ar    
   9 C9             5.2076     3.8057    -1.3771 C.ar    
  10 C10            4.0369     3.5561    -0.6857 C.ar    
  11 C11            0.0021    -0.0041     0.0020 C.3     
  12 C12           -1.4333    -0.5336     0.0129 C.3     
  13 N13           -1.4134    -2.0025     0.0048 N.3     
  14 C14           -2.7549    -2.5488     0.2529 C.3     
  15 C15           -2.7067    -4.0755     0.1577 C.3     
  16 N16           -1.7407    -4.5945     1.1360 N.3     
  17 C17           -0.3992    -4.0483     0.8879 C.3     
  18 C18           -0.4473    -2.5215     0.9831 C.3     
  19 C19           -1.7208    -6.0634     1.1279 C.3     
  20 H20           -0.5413     1.8150     0.7984 H       
  21 H21            2.1415     1.2841    -0.1706 H       
  22 H22            0.6561     3.9387    -0.9340 H       
  23 H23            0.8322     3.5441     1.5655 H       
  24 H24            2.6396     3.2228     1.3874 H       
  25 H25            1.8130     4.2028    -3.1380 H       
  26 H26            3.8980     4.6546    -4.3675 H       
  27 H27            6.0721     4.3997    -3.2399 H       
  28 H28            6.1611     3.6938    -0.8826 H       
  29 H29            4.0758     3.2501     0.3493 H       
  30 H30            0.5123    -0.3556    -0.8948 H       
  31 H31            0.5293    -0.3651     0.8851 H       
  32 H32           -1.9435    -0.1821     0.9097 H       
  33 H33           -1.9605    -0.1726    -0.8702 H       
  34 H34           -3.0879    -2.2568     1.2489 H       
  35 H35           -3.4494    -2.1597    -0.4917 H       
  36 H36           -3.6946    -4.4845     0.3700 H       
  37 H37           -2.3999    -4.3678    -0.8465 H       
  38 H38            0.2953    -4.4373     1.6325 H       
  39 H39           -0.0661    -4.3402    -0.1081 H       
  40 H40            0.5405    -2.1125     0.7708 H       
  41 H41           -0.7541    -2.2292     1.9874 H       
  42 H42           -1.4386    -6.4174     0.1364 H       
  43 H43           -0.9976    -6.4210     1.8609 H       
  44 H44           -2.7114    -6.4416     1.3805 H       
@<TRIPOS>BOND
   1    1   11 1
   2    1    2 1
   3    1   20 1
   4    2    3 1
   5    2    4 1
   6    2   21 1
   7    3    4 1
   8    3    5 1
   9    3   22 1
  10    4   23 1
  11    4   24 1
  12    5    6 ar
  13    5   10 ar
  14    6    7 ar
  15    6   25 1
  16    7    8 ar
  17    7   26 1
  18    8    9 ar
  19    8   27 1
  20    9   10 ar
  21    9   28 1
  22   10   29 1
  23   11   12 1
  24   11   30 1
  25   11   31 1
  26   12   13 1
  27   12   32 1
  28   12   33 1
  29   13   14 1
  30   13   18 1
  31   14   15 1
  32   14   34 1
  33   14   35 1
  34   15   16 1
  35   15   36 1
  36   15   37 1
  37   16   17 1
  38   16   19 1
  39   17   18 1
  40   17   38 1
  41   17   39 1
  42   18   40 1
  43   18   41 1
  44   19   42 1
  45   19   43 1
  46   19   44 1

#	End of record

