#	Name: ASD01918362
#	Creating user name:	WinNT
#	Creation time:	15. 06. 2019 20:11

#	Modifying user name:	WinNT
#	Modification time:	15. 06. 2019 20:11

#	Program:	/corina/corina34_cracker 3.40 0067  02.08.2006

@<TRIPOS>MOLECULE
ASD01918362
  39   42    0    0    0
SMALL
NO_CHARGES


@<TRIPOS>ATOM
   1 O1             0.0021    -0.0041     0.0020 O.2     
   2 C2            -0.0144     1.2085     0.0087 C.2     
   3 C3            -1.2538     2.0846     0.0318 C.3     
   4 C4            -0.6852     3.4690    -0.3586 C.3     
   5 C5            -1.3180     4.5432     0.5414 C.3     
   6 C6            -0.1790     5.0163     1.4727 C.3     
   7 C7             0.8029     3.8193     1.4539 C.3     
   8 N8             0.7395     3.3383     0.0511 N.3     
   9 N9             1.0629     2.0147     0.0027 N.am    
  10 C10            2.3691     1.5471    -0.0514 C.ar    
  11 N11            3.3650     2.4208    -0.0467 N.ar    
  12 C12            4.6215     2.0178    -0.0966 C.ar    
  13 C13            4.8921     0.6441    -0.1550 C.ar    
  14 C14            3.8090    -0.2451    -0.1577 C.ar    
  15 N15            2.5824     0.2405    -0.1006 N.ar    
  16 C16            6.2394     0.1619    -0.2107 C.1     
  17 C17            7.3439    -0.2335    -0.2565 C.1     
  18 C18            8.6911    -0.7157    -0.3122 C.ar    
  19 C19            9.7599     0.1845    -0.3033 C.ar    
  20 C20           11.0548    -0.2873    -0.3573 C.ar    
  21 C21           11.2968    -1.6483    -0.4202 C.ar    
  22 C22           10.2434    -2.5457    -0.4299 C.ar    
  23 C23            8.9434    -2.0889    -0.3701 C.ar    
  24 H24           -1.9834     1.7437    -0.7027 H       
  25 H25           -1.6906     2.1122     1.0301 H       
  26 H26           -0.7990     3.6841    -1.4211 H       
  27 H27           -1.6828     5.3746    -0.0618 H       
  28 H28           -2.1314     4.1146     1.1268 H       
  29 H29            0.2975     5.9123     1.0749 H       
  30 H30           -0.5533     5.1924     2.4811 H       
  31 H31            1.8124     4.1474     1.7016 H       
  32 H32            0.4720     3.0409     2.1415 H       
  33 H33            5.4282     2.7359    -0.0928 H       
  34 H34            3.9751    -1.3114    -0.2022 H       
  35 H35            9.5725     1.2470    -0.2546 H       
  36 H36           11.8818     0.4072    -0.3509 H       
  37 H37           12.3129    -2.0120    -0.4623 H       
  38 H38           10.4399    -3.6065    -0.4795 H       
  39 H39            8.1224    -2.7906    -0.3729 H       
@<TRIPOS>BOND
   1    1    2 2
   2    2    9 am
   3    2    3 1
   4    3    4 1
   5    3   24 1
   6    3   25 1
   7    4    8 1
   8    4    5 1
   9    4   26 1
  10    5    6 1
  11    5   27 1
  12    5   28 1
  13    6    7 1
  14    6   29 1
  15    6   30 1
  16    7    8 1
  17    7   31 1
  18    7   32 1
  19    8    9 1
  20    9   10 1
  21   10   15 ar
  22   10   11 ar
  23   11   12 ar
  24   12   13 ar
  25   12   33 1
  26   13   14 ar
  27   13   16 1
  28   14   15 ar
  29   14   34 1
  30   16   17 3
  31   17   18 1
  32   18   23 ar
  33   18   19 ar
  34   19   20 ar
  35   19   35 1
  36   20   21 ar
  37   20   36 1
  38   21   22 ar
  39   21   37 1
  40   22   23 ar
  41   22   38 1
  42   23   39 1

#	End of record

