#	Name: ASD01900293
#	Creating user name:	WinNT
#	Creation time:	15. 06. 2019 19:51

#	Modifying user name:	WinNT
#	Modification time:	15. 06. 2019 19:51

#	Program:	/corina/corina34_cracker 3.40 0067  02.08.2006

@<TRIPOS>MOLECULE
ASD01900293
  39   41    0    0    0
SMALL
NO_CHARGES


@<TRIPOS>ATOM
   1 C1            -0.0168     1.3891     0.0097 C.ar    
   2 C2             0.0021    -0.0041     0.0020 C.ar    
   3 C3             1.2224    -0.6606    -0.0132 C.ar    
   4 C4             2.3820     0.0992    -0.0202 C.ar    
   5 C5             2.2884     1.4815    -0.0119 C.ar    
   6 N6             1.1169     2.0792     0.0026 N.ar    
   7 C7            -1.3131     2.1060     0.0197 C.2     
   8 O8            -2.3544     1.4790     0.0212 O.2     
   9 N9            -1.3378     3.4535     0.0271 N.am    
  10 N10           -4.0866     5.7298     0.0525 N.am    
  11 C11           -2.7427     5.4762     0.0448 C.2     
  12 C12           -2.5683     4.1341     0.0367 C.2     
  13 C13           -3.8517     3.5436     0.0395 C.2     
  14 C14           -4.7569     4.5428     0.0492 C.2     
  15 S15           -4.7846     7.2314     0.0702 S.o2    
  16 O16           -6.0517     7.0218     0.6783 O.2     
  17 O17           -3.8082     8.0645     0.6800 O.2     
  18 C18           -4.9821     7.6594    -1.6815 C.3     
  19 C19           -5.6154     9.0219    -1.7974 C.ar    
  20 C20           -4.8199    10.1514    -1.8497 C.ar    
  21 C21           -5.4001    11.4013    -1.9560 C.ar    
  22 C22           -6.7773    11.5221    -2.0100 C.ar    
  23 C23           -7.5729    10.3914    -1.9576 C.ar    
  24 C24           -6.9913     9.1416    -1.8570 C.ar    
  25 Cl25          -7.5068    13.0917    -2.1429 Cl      
  26 H26           -0.9212    -0.5644     0.0082 H       
  27 H27            1.2690    -1.7395    -0.0191 H       
  28 H28            3.3489    -0.3818    -0.0317 H       
  29 H29            3.1898     2.0763    -0.0170 H       
  30 H30           -0.5068     3.9539     0.0259 H       
  31 H31           -1.9574     6.2177     0.0448 H       
  32 H32           -4.0681     2.4856     0.0351 H       
  33 H33           -5.8302     4.4231     0.0537 H       
  34 H34           -4.0054     7.6703    -2.1652 H       
  35 H35           -5.6196     6.9200    -2.1665 H       
  36 H36           -3.7449    10.0570    -1.8071 H       
  37 H37           -4.7786    12.2836    -1.9965 H       
  38 H38           -8.6480    10.4850    -1.9998 H       
  39 H39           -7.6121     8.2586    -1.8206 H       
@<TRIPOS>BOND
   1    1    2 ar
   2    1    6 ar
   3    1    7 1
   4    2    3 ar
   5    2   26 1
   6    3    4 ar
   7    3   27 1
   8    4    5 ar
   9    4   28 1
  10    5    6 ar
  11    5   29 1
  12    7    8 2
  13    7    9 am
  14    9   12 1
  15    9   30 1
  16   10   11 1
  17   10   14 1
  18   10   15 am
  19   11   12 2
  20   11   31 1
  21   12   13 1
  22   13   14 2
  23   13   32 1
  24   14   33 1
  25   15   16 2
  26   15   17 2
  27   15   18 1
  28   18   19 1
  29   18   34 1
  30   18   35 1
  31   19   20 ar
  32   19   24 ar
  33   20   21 ar
  34   20   36 1
  35   21   22 ar
  36   21   37 1
  37   22   23 ar
  38   22   25 1
  39   23   24 ar
  40   23   38 1
  41   24   39 1

#	End of record

