#	Name: ASD03330958
#	Creating user name:	WinNT
#	Creation time:	15. 06. 2019 20:38

#	Modifying user name:	WinNT
#	Modification time:	15. 06. 2019 20:38

#	Program:	/corina/corina34_cracker 3.40 0067  02.08.2006

@<TRIPOS>MOLECULE
ASD03330958
  77   79    0    0    0
SMALL
NO_CHARGES


@<TRIPOS>ATOM
   1 N1             0.2607     1.0977    -0.4135 N.pl3   
   2 C2             0.2195    -0.2523    -0.2571 C.2     
   3 C3             1.4151    -1.1534    -0.0906 C.3     
   4 N4             2.3182    -0.5751     0.9166 N.3     
   5 C5             3.2798     0.3423     0.3023 C.3     
   6 C6             2.6564     1.0726    -0.8838 C.3     
   7 C7             1.4737     1.9202    -0.4073 C.3     
   8 C8            -1.0246     1.5312    -0.5625 C.2     
   9 N9            -1.8276     0.4961    -0.4834 N.2     
  10 C10           -1.0910    -0.6203    -0.2921 C.2     
  11 C11           -1.6126    -1.9908    -0.1469 C.2     
  12 O12           -0.8450    -2.9189     0.0223 O.2     
  13 N13           -2.9403    -2.2159    -0.2017 N.am    
  14 C14            3.0062    -1.6293     1.6739 C.3     
  15 C15           -4.8007    -3.6797    -0.7357 C.2     
  16 C16           -3.4589    -3.5784    -0.0573 C.3     
  17 C17           -3.6121    -3.9111     1.4282 C.3     
  18 C18           -4.0561    -5.3671     1.5816 C.3     
  19 O19           -5.4153    -2.6729    -1.0175 O.2     
  20 C20           -2.2712    -3.7094     2.1369 C.3     
  21 C21           -4.6621    -2.9893     2.0516 C.3     
  22 N22           -5.3178    -4.8892    -1.0294 N.am    
  23 C23           -6.6543    -4.9906    -1.6206 C.3     
  24 C24           -6.5542    -4.8277    -3.1386 C.3     
  25 C25           -7.2544    -6.3593    -1.2930 C.3     
  26 C26           -7.4702    -6.4733     0.2174 C.3     
  27 N27           -8.0464    -7.7875     0.5319 N.3     
  28 C28           -8.0486    -8.0282     1.9811 C.3     
  29 C29           -9.3996    -7.9160    -0.0251 C.3     
  30 C30           -1.4430     2.9335    -0.7766 C.ar    
  31 C31           -2.3519     3.2477    -1.7901 C.ar    
  32 C32           -2.7384     4.5608    -1.9844 C.ar    
  33 C33           -2.2271     5.5612    -1.1787 C.ar    
  34 C34           -1.3254     5.2557    -0.1728 C.ar    
  35 C35           -0.9361     3.9478     0.0364 C.ar    
  36 F36           -2.8514     2.2709    -2.5784 F       
  37 Cl37          -0.6887     6.5198     0.8324 Cl      
  38 H38            1.0856    -2.1389     0.2384 H       
  39 H39            1.9396    -1.2423    -1.0420 H       
  40 H40            3.6015     1.0734     1.0441 H       
  41 H41            4.1459    -0.2236    -0.0406 H       
  42 H42            3.4033     1.7191    -1.3445 H       
  43 H43            2.3083     0.3438    -1.6158 H       
  44 H44            1.3412     2.7700    -1.0769 H       
  45 H45            1.6660     2.2783     0.6041 H       
  46 H46           -3.5526    -1.4757    -0.3366 H       
  47 H47            3.5357    -2.2859     0.9836 H       
  48 H48            3.7188    -1.1756     2.3627 H       
  49 H49            2.2745    -2.2084     2.2372 H       
  50 H50           -2.7650    -4.2819    -0.5175 H       
  51 H51           -3.2990    -6.0248     1.1546 H       
  52 H52           -4.1838    -5.5986     2.6391 H       
  53 H53           -5.0019    -5.5154     1.0604 H       
  54 H54           -1.9548    -2.6721     2.0276 H       
  55 H55           -2.3803    -3.9464     3.1952 H       
  56 H56           -1.5231    -4.3661     1.6928 H       
  57 H57           -5.6174    -3.1329     1.5468 H       
  58 H58           -4.7712    -3.2263     3.1100 H       
  59 H59           -4.3457    -1.9519     1.9423 H       
  60 H60           -4.8049    -5.6926    -0.8492 H       
  61 H61           -7.2926    -4.2069    -1.2124 H       
  62 H62           -5.9160    -5.6113    -3.5468 H       
  63 H63           -7.5487    -4.9031    -3.5784 H       
  64 H64           -6.1267    -3.8526    -3.3719 H       
  65 H65           -8.2099    -6.4693    -1.8059 H       
  66 H66           -6.5727    -7.1433    -1.6228 H       
  67 H67           -6.5147    -6.3634     0.7303 H       
  68 H68           -8.1520    -5.6894     0.5472 H       
  69 H69           -8.6415    -7.2591     2.4762 H       
  70 H70           -8.4803    -9.0079     2.1860 H       
  71 H71           -7.0257    -7.9962     2.3562 H       
  72 H72           -9.3589    -7.8024    -1.1084 H       
  73 H73           -9.8027    -8.8980     0.2223 H       
  74 H74          -10.0414    -7.1428     0.3973 H       
  75 H75           -3.4409     4.8056    -2.7673 H       
  76 H76           -2.5318     6.5855    -1.3347 H       
  77 H77           -0.2369     3.7109     0.8246 H       
@<TRIPOS>BOND
   1    1    2 1
   2    1    7 1
   3    1    8 1
   4    2    3 1
   5    2   10 2
   6    3    4 1
   7    3   38 1
   8    3   39 1
   9    4    5 1
  10    4   14 1
  11    5    6 1
  12    5   40 1
  13    5   41 1
  14    6    7 1
  15    6   42 1
  16    6   43 1
  17    7   44 1
  18    7   45 1
  19    8    9 2
  20    8   30 1
  21    9   10 1
  22   10   11 1
  23   11   12 2
  24   11   13 am
  25   13   16 1
  26   13   46 1
  27   14   47 1
  28   14   48 1
  29   14   49 1
  30   15   19 2
  31   15   22 am
  32   15   16 1
  33   16   17 1
  34   16   50 1
  35   17   18 1
  36   17   20 1
  37   17   21 1
  38   18   51 1
  39   18   52 1
  40   18   53 1
  41   20   54 1
  42   20   55 1
  43   20   56 1
  44   21   57 1
  45   21   58 1
  46   21   59 1
  47   22   23 1
  48   22   60 1
  49   23   24 1
  50   23   25 1
  51   23   61 1
  52   24   62 1
  53   24   63 1
  54   24   64 1
  55   25   26 1
  56   25   65 1
  57   25   66 1
  58   26   27 1
  59   26   67 1
  60   26   68 1
  61   27   28 1
  62   27   29 1
  63   28   69 1
  64   28   70 1
  65   28   71 1
  66   29   72 1
  67   29   73 1
  68   29   74 1
  69   30   31 ar
  70   30   35 ar
  71   31   32 ar
  72   31   36 1
  73   32   33 ar
  74   32   75 1
  75   33   34 ar
  76   33   76 1
  77   34   35 ar
  78   34   37 1
  79   35   77 1

#	End of record

