#	Name: ASD07480014
#	Creating user name:	WinNT
#	Creation time:	15. 06. 2019 21:11

#	Modifying user name:	WinNT
#	Modification time:	15. 06. 2019 21:11

#	Program:	/corina/corina34_cracker 3.40 0067  02.08.2006

@<TRIPOS>MOLECULE
ASD07480014
  41   45    0    0    0
SMALL
NO_CHARGES


@<TRIPOS>ATOM
   1 C1            -0.0171     1.4108     0.0098 C.2     
   2 C2             0.0021    -0.0041     0.0020 C.2     
   3 N3             1.1590    -0.6495     0.0250 N.2     
   4 C4             2.3145     0.0203     0.0561 C.2     
   5 N5             2.3303     1.3856     0.0060 N.pl3   
   6 C6             1.1565     2.0854     0.0022 C.2     
   7 C7             3.6501    -0.4151     0.1468 C.2     
   8 C8             4.4430     0.7523     0.0396 C.2     
   9 N9             3.6696     1.8053    -0.0387 N.2     
  10 N10           -1.1839    -0.6981    -0.0321 N.pl3   
  11 C11           -1.3381    -2.1585    -0.1645 C.3     
  12 C12           -2.5292    -0.1117     0.0483 C.3     
  13 C13           -3.4935    -1.1043    -0.6256 C.3     
  14 C14           -2.7095    -2.4138    -0.8153 C.3     
  15 C15           -1.2558    -2.8303     1.1750 C.ar    
  16 C16           -2.3747    -3.0421     1.9538 C.ar    
  17 N17           -2.2901    -3.6677     3.1138 N.ar    
  18 C18           -1.1369    -4.1025     3.5887 C.ar    
  19 C19            0.0304    -3.9022     2.8885 C.ar    
  20 C20           -0.0129    -3.2447     1.6648 C.ar    
  21 O21            1.1114    -2.9834     0.9563 O.3     
  22 C22            4.1535    -1.7677     0.3312 C.2     
  23 F23           -3.5844    -2.5959     1.5519 F       
  24 C24            2.2364    -2.4577     1.6665 C.3     
  25 N25            3.4613    -2.7872     0.9102 N.am    
  26 O26            5.3042    -1.9985    -0.0184 O.2     
  27 H27           -0.9518     1.9512     0.0261 H       
  28 H28            1.1639     3.1653    -0.0078 H       
  29 H29            5.5226     0.7673     0.0234 H       
  30 H30           -0.5472    -2.5382    -0.8195 H       
  31 H31           -2.8136     0.0277     1.0908 H       
  32 H32           -2.5570     0.8414    -0.4769 H       
  33 H33           -4.3617    -1.2723     0.0090 H       
  34 H34           -3.8087    -0.7153    -1.5942 H       
  35 H35           -2.5843    -2.6192    -1.8826 H       
  36 H36           -3.2212    -3.2462    -0.3398 H       
  37 H37           -1.1100    -4.6234     4.5340 H       
  38 H38            0.9698    -4.2573     3.2861 H       
  39 H39            2.1374    -1.3836     1.7977 H       
  40 H40            2.2866    -2.9254     2.6562 H       
  41 H41            3.7695    -3.7125     0.8287 H       
@<TRIPOS>BOND
   1    1    2 1
   2    1    6 2
   3    1   27 1
   4    2    3 2
   5    2   10 1
   6    3    4 1
   7    4    5 1
   8    4    7 2
   9    5    6 1
  10    5    9 1
  11    6   28 1
  12    7    8 1
  13    7   22 1
  14    8    9 2
  15    8   29 1
  16   10   11 1
  17   10   12 1
  18   11   14 1
  19   11   15 1
  20   11   30 1
  21   12   13 1
  22   12   31 1
  23   12   32 1
  24   13   14 1
  25   13   33 1
  26   13   34 1
  27   14   35 1
  28   14   36 1
  29   15   16 ar
  30   15   20 ar
  31   16   17 ar
  32   16   23 1
  33   17   18 ar
  34   18   19 ar
  35   18   37 1
  36   19   20 ar
  37   19   38 1
  38   20   21 1
  39   21   24 1
  40   22   26 2
  41   22   25 am
  42   24   25 1
  43   24   39 1
  44   24   40 1
  45   25   41 1

#	End of record

