#	Name: ASD03730867
#	Creating user name:	WinNT
#	Creation time:	15. 06. 2019 20:44

#	Modifying user name:	WinNT
#	Modification time:	15. 06. 2019 20:44

#	Program:	/corina/corina34_cracker 3.40 0067  02.08.2006

@<TRIPOS>MOLECULE
ASD03730867
  64   70    0    0    0
SMALL
NO_CHARGES


@<TRIPOS>ATOM
   1 C1             1.3560    -1.0951    -2.5206 C.2     
   2 C2             0.5144    -1.1370    -1.3063 C.ar    
   3 C3             0.8039    -0.3045    -0.2236 C.ar    
   4 C4             0.0146    -0.3486     0.9067 C.ar    
   5 C5            -1.0620    -1.2159     0.9692 C.ar    
   6 C6            -1.3543    -2.0436    -0.1001 C.ar    
   7 C7            -0.5765    -2.0050    -1.2391 C.ar    
   8 O8             2.2749    -0.3030    -2.5962 O.2     
   9 N9             1.1079    -1.9389    -3.5419 N.am    
  10 C10            1.9764     0.6400    -0.2894 C.3     
  11 O11            0.2713    -0.9559     6.5104 O.3     
  12 C12            0.2415    -0.6693     7.9211 C.3     
  13 O13            1.5205    -0.0582     8.1733 O.3     
  14 C14            1.8897     0.5185     6.9918 C.ar    
  15 C15            1.1219    -0.0346     5.9695 C.ar    
  16 C16            2.8335     1.4872     6.7013 C.ar    
  17 C17            3.0249     1.9147     5.3909 C.ar    
  18 C18            2.2577     1.3488     4.3771 C.ar    
  19 C19            1.3116     0.3871     4.6643 C.ar    
  20 O20            3.8783     2.8571     4.8971 O.3     
  21 C21            2.7098     1.9861     3.0905 C.3     
  22 C22            4.0321     2.6619     3.4780 C.3     
  23 N23            2.0935     1.3623     0.9797 N.am    
  24 C24            2.8964     0.9791     1.9924 C.2     
  25 C25            1.7117     2.9723     2.5604 C.ar    
  26 C26            1.1337     4.1112     3.0754 C.ar    
  27 C27            0.2219     4.8276     2.3207 C.ar    
  28 C28           -0.1079     4.3968     1.0485 C.ar    
  29 C29            0.4675     3.2562     0.5287 C.ar    
  30 C30            1.3867     2.5290     1.2811 C.ar    
  31 O31            3.6266     0.0109     2.0125 O.2     
  32 C32            1.8104    -1.8103    -4.7381 C.ar    
  33 C33            3.0330    -1.1479    -4.7513 C.ar    
  34 C34            3.7203    -1.0277    -5.9460 C.ar    
  35 C35            3.1590    -1.5764    -7.0912 C.ar    
  36 C36            1.9409    -2.2208    -7.0050 C.ar    
  37 N37            1.3105    -2.3245    -5.8506 N.ar    
  38 C38            1.3261    -2.8181    -8.2445 C.3     
  39 C39            5.0479    -0.3169    -6.0030 C.3     
  40 H40            0.2374     0.2949     1.7450 H       
  41 H41           -1.6764    -1.2471     1.8568 H       
  42 H42           -2.1959    -2.7182    -0.0450 H       
  43 H43           -0.8085    -2.6484    -2.0750 H       
  44 H44            0.4403    -2.6357    -3.4440 H       
  45 H45            2.8897     0.0732    -0.4705 H       
  46 H46            1.8240     1.3523    -1.1002 H       
  47 H47           -0.5668     0.0239     8.1540 H       
  48 H48            0.1363    -1.5890     8.4965 H       
  49 H49            3.4259     1.9147     7.4968 H       
  50 H50            0.7174    -0.0383     3.8691 H       
  51 H51            4.1433     3.6175     2.9656 H       
  52 H52            4.8778     2.0074     3.2667 H       
  53 H53            1.3926     4.4456     4.0691 H       
  54 H54           -0.2309     5.7213     2.7239 H       
  55 H55           -0.8198     4.9560     0.4595 H       
  56 H56            0.2045     2.9258    -0.4654 H       
  57 H57            3.4403    -0.7325    -3.8413 H       
  58 H58            3.6697    -1.4997    -8.0397 H       
  59 H59            1.6607    -3.8496    -8.3552 H       
  60 H60            0.2397    -2.7958    -8.1581 H       
  61 H61            1.6331    -2.2409    -9.1167 H       
  62 H62            5.8511    -1.0328    -5.8281 H       
  63 H63            5.1745     0.1382    -6.9853 H       
  64 H64            5.0785     0.4578    -5.2369 H       
@<TRIPOS>BOND
   1    1    2 1
   2    1    8 2
   3    1    9 am
   4    2    3 ar
   5    2    7 ar
   6    3    4 ar
   7    3   10 1
   8    4    5 ar
   9    4   40 1
  10    5    6 ar
  11    5   41 1
  12    6    7 ar
  13    6   42 1
  14    7   43 1
  15    9   32 1
  16    9   44 1
  17   10   23 1
  18   10   45 1
  19   10   46 1
  20   11   12 1
  21   11   15 1
  22   12   13 1
  23   12   47 1
  24   12   48 1
  25   13   14 1
  26   14   15 ar
  27   14   16 ar
  28   15   19 ar
  29   16   17 ar
  30   16   49 1
  31   17   18 ar
  32   17   20 1
  33   18   19 ar
  34   18   21 1
  35   19   50 1
  36   20   22 1
  37   21   22 1
  38   21   24 1
  39   21   25 1
  40   22   51 1
  41   22   52 1
  42   23   24 am
  43   23   30 1
  44   24   31 2
  45   25   26 ar
  46   25   30 ar
  47   26   27 ar
  48   26   53 1
  49   27   28 ar
  50   27   54 1
  51   28   29 ar
  52   28   55 1
  53   29   30 ar
  54   29   56 1
  55   32   33 ar
  56   32   37 ar
  57   33   34 ar
  58   33   57 1
  59   34   35 ar
  60   34   39 1
  61   35   36 ar
  62   35   58 1
  63   36   37 ar
  64   36   38 1
  65   38   59 1
  66   38   60 1
  67   38   61 1
  68   39   62 1
  69   39   63 1
  70   39   64 1

#	End of record

