#	Name: ASD02198366
#	Creating user name:	WinNT
#	Creation time:	15. 06. 2019 20:19

#	Modifying user name:	WinNT
#	Modification time:	15. 06. 2019 20:19

#	Program:	/corina/corina34_cracker 3.40 0067  02.08.2006

@<TRIPOS>MOLECULE
ASD02198366
  31   33    0    0    0
SMALL
NO_CHARGES


@<TRIPOS>ATOM
   1 C1             0.0016     1.4016     0.2383 C.2     
   2 C2             0.0124     0.0162     0.2359 C.2     
   3 S3             1.6713     1.9493     0.1121 S.3     
   4 C4             2.2167     0.3308     0.0688 C.2     
   5 N5             1.2153    -0.4985     0.1439 N.2     
   6 N6            -1.1363    -0.7514     0.3223 N.pl3   
   7 C7            -1.1298     2.2172     0.3199 C.2     
   8 C8            -0.9799     3.7167     0.3110 C.3     
   9 O9            -2.2359     1.7170     0.3982 O.2     
  10 N10            3.5371    -0.0461    -0.0320 N.pl3   
  11 C11            3.8879    -1.3960     0.0630 C.ar    
  12 C12            4.9925    -1.8784    -0.6275 C.ar    
  13 C13            5.3362    -3.2125    -0.5315 C.ar    
  14 C14            4.5819    -4.0680     0.2504 C.ar    
  15 C15            3.4816    -3.5911     0.9390 C.ar    
  16 C16            3.1359    -2.2568     0.8524 C.ar    
  17 C17           -2.1712     4.5429    -0.1781 C.3     
  18 C18           -1.8181     4.5164     1.3104 C.3     
  19 H19           -2.0032    -0.3212     0.3886 H       
  20 H20           -1.0744    -1.7194     0.3165 H       
  21 H21            0.0186     4.0880     0.0804 H       
  22 H22            4.2240     0.6250    -0.1688 H       
  23 H23            5.5817    -1.2110    -1.2389 H       
  24 H24            6.1949    -3.5882    -1.0681 H       
  25 H25            4.8524    -5.1110     0.3232 H       
  26 H26            2.8943    -4.2619     1.5486 H       
  27 H27            2.2765    -1.8849     1.3904 H       
  28 H28           -1.9565     5.4579    -0.7301 H       
  29 H29           -3.0634     4.0018    -0.4934 H       
  30 H30           -2.4780     3.9580     1.9743 H       
  31 H31           -1.3711     5.4141     1.7376 H       
@<TRIPOS>BOND
   1    1    2 2
   2    1    3 1
   3    1    7 1
   4    2    6 1
   5    2    5 1
   6    3    4 1
   7    4    5 2
   8    4   10 1
   9    6   19 1
  10    6   20 1
  11    7    8 1
  12    7    9 2
  13    8   17 1
  14    8   18 1
  15    8   21 1
  16   10   11 1
  17   10   22 1
  18   11   12 ar
  19   11   16 ar
  20   12   13 ar
  21   12   23 1
  22   13   14 ar
  23   13   24 1
  24   14   15 ar
  25   14   25 1
  26   15   16 ar
  27   15   26 1
  28   16   27 1
  29   17   18 1
  30   17   28 1
  31   17   29 1
  32   18   30 1
  33   18   31 1

#	End of record

