#	Name: ASD01520006
#	Creating user name:	WinNT
#	Creation time:	15. 06. 2019 19:21

#	Modifying user name:	WinNT
#	Modification time:	15. 06. 2019 19:21

#	Program:	/corina/corina34_cracker 3.40 0067  02.08.2006

@<TRIPOS>MOLECULE
ASD01520006
  64   68    0    0    0
SMALL
NO_CHARGES


@<TRIPOS>ATOM
   1 C1             0.4610     0.9874    -1.6064 C.ar    
   2 C2             0.1120    -0.0570    -0.7681 C.ar    
   3 C3             0.9122    -0.3833     0.3129 C.ar    
   4 C4             2.0647     0.3314     0.5628 C.ar    
   5 C5             2.4244     1.3878    -0.2799 C.ar    
   6 C6             1.6107     1.7112    -1.3701 C.ar    
   7 C7             3.6531     2.1558    -0.0202 C.2     
   8 C8             3.6402     3.5010    -0.1151 C.2     
   9 C9             2.3390     4.2143    -0.3255 C.3     
  10 C10            2.4385     5.7246    -0.2562 C.3     
  11 C11            3.7708     6.2695    -0.7669 C.3     
  12 C12            4.8542     4.2191    -0.0089 C.2     
  13 N13            6.0716     3.7992    -0.0408 N.2     
  14 C14            4.8825     5.7368     0.1386 C.3     
  15 C15            6.2796     6.0900    -0.3995 C.3     
  16 N16            7.0153     4.8280    -0.1461 N.am    
  17 C17            6.2262     6.4151    -1.8701 C.ar    
  18 C18            6.2191     7.7332    -2.2867 C.ar    
  19 C19            6.1701     8.0314    -3.6356 C.ar    
  20 C20            6.1287     7.0116    -4.5679 C.ar    
  21 C21            6.1367     5.6935    -4.1513 C.ar    
  22 C22            6.1900     5.3953    -2.8025 C.ar    
  23 C23            8.3526     4.6935    -0.0455 C.2     
  24 O24            9.0699     5.6656    -0.1549 O.2     
  25 C25            8.9567     3.3354     0.2028 C.3     
  26 N26           10.4192     3.4551     0.2710 N.3     
  27 C27           10.8294     4.2367     1.4459 C.3     
  28 C28           11.0564     2.1308     0.2744 C.3     
  29 C29           12.5776     2.2996     0.2658 C.3     
  30 N30           12.9878     3.0813     1.4407 N.3     
  31 C31           12.3506     4.4055     1.4373 C.3     
  32 C32           14.4503     3.2009     1.5089 C.3     
  33 H33           -0.1664     1.2334    -2.4504 H       
  34 H34           -0.7897    -0.6202    -0.9584 H       
  35 H35            0.6330    -1.1994     0.9628 H       
  36 H36            2.6877     0.0761     1.4072 H       
  37 H37            1.8819     2.5258    -2.0253 H       
  38 H38            4.5649     1.6419     0.2462 H       
  39 H39            1.9467     3.9377    -1.3041 H       
  40 H40            1.6332     3.8785     0.4343 H       
  41 H41            1.6336     6.1554    -0.8516 H       
  42 H42            2.3080     6.0361     0.7802 H       
  43 H43            3.9375     5.9338    -1.7905 H       
  44 H44            3.7597     7.3590    -0.7337 H       
  45 H45            4.7458     6.0477     1.1743 H       
  46 H46            6.7198     6.9118     0.1652 H       
  47 H47            6.2515     8.5300    -1.5584 H       
  48 H48            6.1639     9.0612    -3.9611 H       
  49 H49            6.0897     7.2446    -5.6218 H       
  50 H50            6.1039     4.8968    -4.8796 H       
  51 H51            6.2000     4.3655    -2.4772 H       
  52 H52            8.5804     2.9371     1.1450 H       
  53 H53            8.6848     2.6625    -0.6105 H       
  54 H54           10.3546     5.2174     1.4141 H       
  55 H55           10.5266     3.7149     2.3537 H       
  56 H56           10.7561     1.5851     1.1689 H       
  57 H57           10.7471     1.5761    -0.6114 H       
  58 H58           13.0524     1.3190     0.2976 H       
  59 H59           12.8804     2.8214    -0.6420 H       
  60 H60           12.6509     4.9512     0.5428 H       
  61 H61           12.6599     4.9602     2.3231 H       
  62 H62           14.8162     3.7003     0.6118 H       
  63 H63           14.7265     3.7839     2.3875 H       
  64 H64           14.8933     2.2074     1.5781 H       
@<TRIPOS>BOND
   1    1    2 ar
   2    1    6 ar
   3    1   33 1
   4    2    3 ar
   5    2   34 1
   6    3    4 ar
   7    3   35 1
   8    4    5 ar
   9    4   36 1
  10    5    6 ar
  11    5    7 1
  12    6   37 1
  13    7    8 2
  14    7   38 1
  15    8    9 1
  16    8   12 1
  17    9   10 1
  18    9   39 1
  19    9   40 1
  20   10   11 1
  21   10   41 1
  22   10   42 1
  23   11   14 1
  24   11   43 1
  25   11   44 1
  26   12   14 1
  27   12   13 2
  28   13   16 1
  29   14   15 1
  30   14   45 1
  31   15   16 1
  32   15   17 1
  33   15   46 1
  34   16   23 am
  35   17   18 ar
  36   17   22 ar
  37   18   19 ar
  38   18   47 1
  39   19   20 ar
  40   19   48 1
  41   20   21 ar
  42   20   49 1
  43   21   22 ar
  44   21   50 1
  45   22   51 1
  46   23   24 2
  47   23   25 1
  48   25   26 1
  49   25   52 1
  50   25   53 1
  51   26   28 1
  52   26   27 1
  53   27   31 1
  54   27   54 1
  55   27   55 1
  56   28   29 1
  57   28   56 1
  58   28   57 1
  59   29   30 1
  60   29   58 1
  61   29   59 1
  62   30   31 1
  63   30   32 1
  64   31   60 1
  65   31   61 1
  66   32   62 1
  67   32   63 1
  68   32   64 1

#	End of record

