#	Name: ASD02100005
#	Creating user name:	WinNT
#	Creation time:	15. 06. 2019 20:18

#	Modifying user name:	WinNT
#	Modification time:	15. 06. 2019 20:18

#	Program:	/corina/corina34_cracker 3.40 0067  02.08.2006

@<TRIPOS>MOLECULE
ASD02100005
  29   28    0    0    0
SMALL
NO_CHARGES


@<TRIPOS>ATOM
   1 N1            -0.0178     1.4648     0.0101 N.3     
   2 C2             0.0021    -0.0041     0.0020 C.3     
   3 C3            -1.4333    -0.5336     0.0129 C.3     
   4 C4            -1.4126    -2.0635     0.0045 C.3     
   5 N5            -2.7907    -2.5720     0.0149 N.3     
   6 C6            -2.8100    -4.0408     0.0072 C.3     
   7 C7            -4.2590    -4.5319     0.0184 C.3     
   8 C8            -4.2791    -6.0618     0.0104 C.3     
   9 C9            -5.7281    -6.5528     0.0216 C.3     
  10 N10           -5.7473    -8.0217     0.0139 N.3     
  11 H11            0.9191     1.8392     0.0032 H       
  12 H12           -0.5563     1.8234    -0.7642 H       
  13 H13            0.5123    -0.3556    -0.8948 H       
  14 H14            0.5293    -0.3651     0.8851 H       
  15 H15           -1.9435    -0.1821     0.9097 H       
  16 H16           -1.9605    -0.1726    -0.8702 H       
  17 H17           -0.9024    -2.4150    -0.8923 H       
  18 H18           -0.8854    -2.4246     0.8875 H       
  19 H19           -3.3046    -2.2077     0.8032 H       
  20 H20           -2.3095    -4.4060    -0.8896 H       
  21 H21           -2.2925    -4.4156     0.8903 H       
  22 H22           -4.7595    -4.1667     0.9152 H       
  23 H23           -4.7765    -4.1571    -0.8647 H       
  24 H24           -3.7786    -6.4270    -0.8864 H       
  25 H25           -3.7616    -6.4365     0.8934 H       
  26 H26           -6.2286    -6.1876     0.9183 H       
  27 H27           -6.2456    -6.1781    -0.8615 H       
  28 H28           -5.2186    -8.3943     0.7882 H       
  29 H29           -6.6939    -8.3709     0.0210 H       
@<TRIPOS>BOND
   1    1    2 1
   2    1   11 1
   3    1   12 1
   4    2    3 1
   5    2   13 1
   6    2   14 1
   7    3    4 1
   8    3   15 1
   9    3   16 1
  10    4    5 1
  11    4   17 1
  12    4   18 1
  13    5    6 1
  14    5   19 1
  15    6    7 1
  16    6   20 1
  17    6   21 1
  18    7    8 1
  19    7   22 1
  20    7   23 1
  21    8    9 1
  22    8   24 1
  23    8   25 1
  24    9   10 1
  25    9   26 1
  26    9   27 1
  27   10   28 1
  28   10   29 1

#	End of record

