#	Name: ASD06340088
#	Creating user name:	WinNT
#	Creation time:	15. 06. 2019 21:06

#	Modifying user name:	WinNT
#	Modification time:	15. 06. 2019 21:06

#	Program:	/corina/corina34_cracker 3.40 0067  02.08.2006

@<TRIPOS>MOLECULE
ASD06340088
  56   58    0    0    0
SMALL
NO_CHARGES


@<TRIPOS>ATOM
   1 S1            -0.0210     1.6939     0.0114 S.3     
   2 N2             0.0021    -0.0041     0.0020 N.am    
   3 C3             1.2962    -0.3594    -0.0122 C.2     
   4 N4             2.1856     0.6226    -0.0155 N.am    
   5 C5             1.6912     1.8721    -0.0040 C.2     
   6 O6             1.6365    -1.5276    -0.0214 O.2     
   7 O7             2.3224     2.9128    -0.0052 O.2     
   8 C8             3.6269     0.3610    -0.0302 C.3     
   9 C9             4.1080     0.2785    -1.4559 C.ar    
  10 C10            4.5425     1.4186    -2.1058 C.ar    
  11 C11            4.9837     1.3430    -3.4137 C.ar    
  12 C12            4.9909     0.1272    -4.0715 C.ar    
  13 C13            4.5573    -1.0130    -3.4213 C.ar    
  14 C14            4.1201    -0.9381    -2.1121 C.ar    
  15 C15            5.4710     0.0450    -5.4976 C.3     
  16 C16            6.9249     0.5152    -5.5742 C.3     
  17 C17            5.3768    -1.4024    -5.9848 C.3     
  18 C18            4.5987     0.9385    -6.3817 C.3     
  19 C19           -1.1035    -0.8590     0.0084 C.ar    
  20 C20           -2.3257    -0.4204    -0.4857 C.ar    
  21 C21           -3.4161    -1.2678    -0.4779 C.ar    
  22 C22           -3.2926    -2.5515     0.0215 C.ar    
  23 C23           -2.0775    -2.9914     0.5141 C.ar    
  24 C24           -0.9815    -2.1513     0.5036 C.ar    
  25 C25           -4.4850    -3.4730     0.0293 C.3     
  26 C26           -4.9800    -3.6788    -1.4037 C.3     
  27 C27           -4.0830    -4.8221     0.6287 C.3     
  28 C28           -5.6026    -2.8538     0.8710 C.3     
  29 H29            4.1482     1.1691     0.4830 H       
  30 H30            3.8302    -0.5822     0.4770 H       
  31 H31            4.5369     2.3685    -1.5919 H       
  32 H32            5.3225     2.2338    -3.9216 H       
  33 H33            4.5625    -1.9628    -3.9354 H       
  34 H34            3.7848    -1.8296    -1.6029 H       
  35 H35            7.5463    -0.1213    -4.9444 H       
  36 H36            7.2721     0.4557    -6.6057 H       
  37 H37            6.9920     1.5463    -5.2272 H       
  38 H38            4.3410    -1.7374    -5.9302 H       
  39 H39            5.7240    -1.4619    -7.0163 H       
  40 H40            5.9982    -2.0389    -5.3549 H       
  41 H41            4.6658     1.9695    -6.0347 H       
  42 H42            4.9459     0.8790    -7.4132 H       
  43 H43            3.5629     0.6034    -6.3271 H       
  44 H44           -2.4230     0.5822    -0.8752 H       
  45 H45           -4.3664    -0.9275    -0.8618 H       
  46 H46           -1.9847    -3.9944     0.9037 H       
  47 H47           -0.0317    -2.4971     0.8840 H       
  48 H48           -4.1837    -4.1200    -2.0033 H       
  49 H49           -5.8424    -4.3453    -1.3980 H       
  50 H50           -5.2663    -2.7177    -1.8307 H       
  51 H51           -3.7304    -4.6756     1.6496 H       
  52 H52           -4.9454    -5.4887     0.6343 H       
  53 H53           -3.2868    -5.2633     0.0291 H       
  54 H54           -5.8890    -1.8927     0.4440 H       
  55 H55           -6.4651    -3.5203     0.8766 H       
  56 H56           -5.2500    -2.7072     1.8919 H       
@<TRIPOS>BOND
   1    1    2 1
   2    1    5 1
   3    2    3 am
   4    2   19 1
   5    3    4 am
   6    3    6 2
   7    4    5 am
   8    4    8 1
   9    5    7 2
  10    8    9 1
  11    8   29 1
  12    8   30 1
  13    9   10 ar
  14    9   14 ar
  15   10   11 ar
  16   10   31 1
  17   11   12 ar
  18   11   32 1
  19   12   13 ar
  20   12   15 1
  21   13   14 ar
  22   13   33 1
  23   14   34 1
  24   15   16 1
  25   15   18 1
  26   15   17 1
  27   16   35 1
  28   16   36 1
  29   16   37 1
  30   17   38 1
  31   17   39 1
  32   17   40 1
  33   18   41 1
  34   18   42 1
  35   18   43 1
  36   19   20 ar
  37   19   24 ar
  38   20   21 ar
  39   20   44 1
  40   21   22 ar
  41   21   45 1
  42   22   23 ar
  43   22   25 1
  44   23   24 ar
  45   23   46 1
  46   24   47 1
  47   25   26 1
  48   25   28 1
  49   25   27 1
  50   26   48 1
  51   26   49 1
  52   26   50 1
  53   27   51 1
  54   27   52 1
  55   27   53 1
  56   28   54 1
  57   28   55 1
  58   28   56 1

#	End of record

