#	Name: ASD04910108
#	Creating user name:	WinNT
#	Creation time:	15. 06. 2019 20:55

#	Modifying user name:	WinNT
#	Modification time:	15. 06. 2019 20:55

#	Program:	/corina/corina34_cracker 3.40 0067  02.08.2006

@<TRIPOS>MOLECULE
ASD04910108
  40   41    0    0    0
SMALL
NO_CHARGES


@<TRIPOS>ATOM
   1 C1            -0.0180     1.4730     0.0101 C.2     
   2 C2             0.0021    -0.0041     0.0020 C.ar    
   3 C3             1.2188    -0.6888    -0.0133 C.ar    
   4 C4             1.2303    -2.0682    -0.0203 C.ar    
   5 C5             0.0396    -2.7731    -0.0127 C.ar    
   6 C6            -1.1697    -2.1009     0.0020 C.ar    
   7 C7            -1.1956    -0.7217     0.0154 C.ar    
   8 O8             1.0256     2.0946     0.0035 O.2     
   9 O9            -1.1936     2.1307     0.0193 O.3     
  10 C10            0.0601    -4.2800    -0.0210 C.3     
  11 C11           -0.1699    -4.8009     1.3991 C.3     
  12 C12           -0.0255    -6.3241     1.4132 C.3     
  13 C13           -0.2555    -6.8450     2.8333 C.3     
  14 O14           -0.9737    -4.7657    -0.8798 O.3     
  15 C15           -0.7524    -5.9518    -1.5003 C.ar    
  16 C16           -1.7204    -6.4759    -2.3477 C.ar    
  17 C17           -1.4826    -7.6864    -2.9745 C.ar    
  18 C18           -0.2783    -8.3334    -2.7302 C.ar    
  19 C19            0.6386    -7.7536    -1.8756 C.ar    
  20 N20            0.3850    -6.5951    -1.2967 N.ar    
  21 I21            0.1426   -10.1692    -3.6475 I       
  22 C22           -1.1373     3.5816     0.0269 C.3     
  23 H23            2.1488    -0.1398    -0.0199 H       
  24 H24            2.1707    -2.5992    -0.0321 H       
  25 H25           -2.0953    -2.6572     0.0071 H       
  26 H26           -2.1401    -0.1983     0.0318 H       
  27 H27            1.0272    -4.6283    -0.3836 H       
  28 H28            0.5660    -4.3600     2.0715 H       
  29 H29           -1.1725    -4.5280     1.7284 H       
  30 H30           -0.7614    -6.7650     0.7408 H       
  31 H31            0.9771    -6.5970     1.0840 H       
  32 H32           -0.1526    -7.9301     2.8433 H       
  33 H33            0.4804    -6.4041     3.5057 H       
  34 H34           -1.2581    -6.5720     3.1625 H       
  35 H35           -2.6464    -5.9458    -2.5147 H       
  36 H36           -2.2170    -8.1183    -3.6383 H       
  37 H37            1.5767    -8.2524    -1.6820 H       
  38 H38           -0.6055     3.9199     0.9162 H       
  39 H39           -0.6140     3.9295    -0.8637 H       
  40 H40           -2.1501     3.9844     0.0339 H       
@<TRIPOS>BOND
   1    1    2 1
   2    1    8 2
   3    1    9 1
   4    2    3 ar
   5    2    7 ar
   6    3    4 ar
   7    3   23 1
   8    4    5 ar
   9    4   24 1
  10    5    6 ar
  11    5   10 1
  12    6    7 ar
  13    6   25 1
  14    7   26 1
  15    9   22 1
  16   10   11 1
  17   10   14 1
  18   10   27 1
  19   11   12 1
  20   11   28 1
  21   11   29 1
  22   12   13 1
  23   12   30 1
  24   12   31 1
  25   13   32 1
  26   13   33 1
  27   13   34 1
  28   14   15 1
  29   15   16 ar
  30   15   20 ar
  31   16   17 ar
  32   16   35 1
  33   17   18 ar
  34   17   36 1
  35   18   19 ar
  36   18   21 1
  37   19   20 ar
  38   19   37 1
  39   22   38 1
  40   22   39 1
  41   22   40 1

#	End of record

