#	Name: ASD01100022
#	Creating user name:	WinNT
#	Creation time:	15. 06. 2019 18:58

#	Modifying user name:	WinNT
#	Modification time:	15. 06. 2019 18:58

#	Program:	/corina/corina34_cracker 3.40 0067  02.08.2006

@<TRIPOS>MOLECULE
ASD01100022
  37   38    0    0    0
SMALL
NO_CHARGES


@<TRIPOS>ATOM
   1 C1             0.6416     0.4856    -1.3268 C.ar    
   2 C2             0.9110    -0.8690    -1.2447 C.ar    
   3 C3             2.1325    -1.3027    -0.7610 C.ar    
   4 C4             3.0829    -0.3827    -0.3602 C.ar    
   5 C5             2.8131     0.9706    -0.4424 C.ar    
   6 C6             1.5928     1.4046    -0.9256 C.ar    
   7 C7             3.8496     1.9732    -0.0047 C.3     
   8 C8             3.2844     2.8281     1.1314 C.3     
   9 C9             2.9845     1.9378     2.3390 C.3     
  10 C10            4.3085     3.8942     1.5255 C.3     
  11 Cl11          -0.2833    -2.0240    -1.7479 Cl      
  12 C12            4.2133     2.8600    -1.1676 C.2     
  13 N13            5.2164     3.7521    -1.0469 N.am    
  14 O14            3.6033     2.7710    -2.2121 O.2     
  15 C15            5.4818     4.6477    -2.0831 C.ar    
  16 C16            4.5204     4.8725    -3.0612 C.ar    
  17 C17            4.7953     5.7637    -4.0838 C.ar    
  18 C18            6.0294     6.4025    -4.0921 C.ar    
  19 C19            6.9385     6.1301    -3.0858 C.ar    
  20 N20            6.6444     5.2789    -2.1218 N.ar    
  21 F21            6.3381     7.2793    -5.0725 F       
  22 H22           -0.3100     0.8248    -1.7085 H       
  23 H23            2.3433    -2.3600    -0.6964 H       
  24 H24            4.0363    -0.7212     0.0178 H       
  25 H25            1.3826     2.4620    -0.9897 H       
  26 H26            4.7389     1.4479     0.3437 H       
  27 H27            2.3657     3.3119     0.7996 H       
  28 H28            3.9032     1.4541     2.6708 H       
  29 H29            2.5819     2.5468     3.1483 H       
  30 H30            2.2549     1.1783     2.0582 H       
  31 H31            4.5535     4.5022     0.6546 H       
  32 H32            3.8897     4.5295     2.3059 H       
  33 H33            5.2120     3.4105     1.8967 H       
  34 H34            5.7538     3.7713    -0.2396 H       
  35 H35            3.5714     4.3583    -3.0240 H       
  36 H36            4.0675     5.9580    -4.8578 H       
  37 H37            7.8993     6.6231    -3.0871 H       
@<TRIPOS>BOND
   1    1    2 ar
   2    1    6 ar
   3    1   22 1
   4    2    3 ar
   5    2   11 1
   6    3    4 ar
   7    3   23 1
   8    4    5 ar
   9    4   24 1
  10    5    6 ar
  11    5    7 1
  12    6   25 1
  13    7    8 1
  14    7   12 1
  15    7   26 1
  16    8    9 1
  17    8   10 1
  18    8   27 1
  19    9   28 1
  20    9   29 1
  21    9   30 1
  22   10   31 1
  23   10   32 1
  24   10   33 1
  25   12   13 am
  26   12   14 2
  27   13   15 1
  28   13   34 1
  29   15   16 ar
  30   15   20 ar
  31   16   17 ar
  32   16   35 1
  33   17   18 ar
  34   17   36 1
  35   18   19 ar
  36   18   21 1
  37   19   20 ar
  38   19   37 1

#	End of record

