#	Name: ASD01140390
#	Creating user name:	WinNT
#	Creation time:	15. 06. 2019 19:00

#	Modifying user name:	WinNT
#	Modification time:	15. 06. 2019 19:00

#	Program:	/corina/corina34_cracker 3.40 0067  02.08.2006

@<TRIPOS>MOLECULE
ASD01140390
  46   49    0    0    0
SMALL
NO_CHARGES


@<TRIPOS>ATOM
   1 S1            -0.0218     1.7597     0.0117 S.3     
   2 C2             0.0021    -0.0041     0.0020 C.2     
   3 N3             1.2500    -0.3827    -0.0119 N.2     
   4 N4             2.1147     0.5373    -0.0152 N.2     
   5 C5             1.6909     1.7654    -0.0046 C.2     
   6 O6             2.4757     2.8704    -0.0069 O.3     
   7 C7             6.0928     3.6686    -0.6241 C.3     
   8 C8             4.5688     3.8285    -0.7444 C.3     
   9 C9             3.8894     2.6620    -0.0213 C.3     
  10 C10            4.4061     2.5743     1.4176 C.3     
  11 C11            5.9412     2.4994     1.3913 C.3     
  12 C12            6.3449     1.4349     0.3453 C.3     
  13 C13            6.4451     2.2075    -0.9865 C.3     
  14 N14            6.4352     3.7800     0.8188 N.3     
  15 C15            7.8858     3.9158     1.0067 C.3     
  16 C16           -1.1795    -0.8928     0.0085 C.ar    
  17 C17           -1.0141    -2.2785    -0.0005 C.ar    
  18 C18           -2.1208    -3.1023     0.0061 C.ar    
  19 C19           -3.3924    -2.5574     0.0212 C.ar    
  20 C20           -3.5632    -1.1845     0.0302 C.ar    
  21 C21           -2.4648    -0.3497     0.0296 C.ar    
  22 C22           -4.5967    -3.4633     0.0274 C.3     
  23 C23           -4.9907    -3.7781     1.4719 C.3     
  24 H24            6.6311     4.3876    -1.2417 H       
  25 H25            4.2632     4.7694    -0.2868 H       
  26 H26            4.2830     3.8222    -1.7962 H       
  27 H27            4.1134     1.7318    -0.5435 H       
  28 H28            4.0932     3.4588     1.9724 H       
  29 H29            4.0051     1.6806     1.8956 H       
  30 H30            6.3588     2.2890     2.3758 H       
  31 H31            7.3089     0.9964     0.6029 H       
  32 H32            5.5808     0.6604     0.2779 H       
  33 H33            5.7304     1.8129    -1.7087 H       
  34 H34            7.4585     2.1489    -1.3836 H       
  35 H35            8.2362     4.8117     0.4942 H       
  36 H36            8.1084     3.9954     2.0708 H       
  37 H37            8.3890     3.0411     0.5947 H       
  38 H38           -0.0220    -2.7051    -0.0130 H       
  39 H39           -1.9942    -4.1748    -0.0008 H       
  40 H40           -4.5585    -0.7654     0.0420 H       
  41 H41           -2.5995     0.7219     0.0407 H       
  42 H42           -5.4269    -2.9676    -0.4758 H       
  43 H43           -4.3570    -4.3900    -0.4940 H       
  44 H44           -4.1606    -4.2739     1.9751 H       
  45 H45           -5.2304    -2.8514     1.9933 H       
  46 H46           -5.8618    -4.4334     1.4763 H       
@<TRIPOS>BOND
   1    1    2 1
   2    1    5 1
   3    2    3 2
   4    2   16 1
   5    3    4 1
   6    4    5 2
   7    5    6 1
   8    6    9 1
   9    7    8 1
  10    7   13 1
  11    7   14 1
  12    7   24 1
  13    8    9 1
  14    8   25 1
  15    8   26 1
  16    9   10 1
  17    9   27 1
  18   10   11 1
  19   10   28 1
  20   10   29 1
  21   11   12 1
  22   11   14 1
  23   11   30 1
  24   12   13 1
  25   12   31 1
  26   12   32 1
  27   13   33 1
  28   13   34 1
  29   14   15 1
  30   15   35 1
  31   15   36 1
  32   15   37 1
  33   16   17 ar
  34   16   21 ar
  35   17   18 ar
  36   17   38 1
  37   18   19 ar
  38   18   39 1
  39   19   20 ar
  40   19   22 1
  41   20   21 ar
  42   20   40 1
  43   21   41 1
  44   22   23 1
  45   22   42 1
  46   22   43 1
  47   23   44 1
  48   23   45 1
  49   23   46 1

#	End of record

