#	Name: ASD05313243
#	Creating user name:	WinNT
#	Creation time:	15. 06. 2019 20:59

#	Modifying user name:	WinNT
#	Modification time:	15. 06. 2019 20:59

#	Program:	/corina/corina34_cracker 3.40 0067  02.08.2006

@<TRIPOS>MOLECULE
ASD05313243
  46   49    0    0    0
SMALL
NO_CHARGES


@<TRIPOS>ATOM
   1 C1            -0.0739     0.8188     1.0248 C.2     
   2 C2             0.1129    -0.6197     0.5961 C.3     
   3 N3             0.9289     1.7297     1.0510 N.pl3   
   4 N4             1.4551    -0.7207    -0.0056 N.am    
   5 C5             2.5699    -0.0410     0.6717 C.3     
   6 C6             2.3167     1.4707     0.6626 C.3     
   7 N7            -1.1737     1.3878     1.4245 N.2     
   8 C8            -0.9295     2.6708     1.7234 C.2     
   9 C9             0.3923     2.9101     1.4976 C.2     
  10 C10           -1.9387     3.6718     2.2241 C.3     
  11 F11           -3.1626     3.0305     2.4429 F       
  12 F12           -1.4847     4.2319     3.4230 F       
  13 F13           -2.1056     4.6823     1.2710 F       
  14 C14            1.1079     4.1892     1.6974 C.ar    
  15 C15            0.5445     5.3842     1.2484 C.ar    
  16 C16            1.2158     6.5743     1.4377 C.ar    
  17 C17            2.4476     6.5844     2.0721 C.ar    
  18 C18            3.0116     5.4005     2.5199 C.ar    
  19 C19            2.3460     4.2057     2.3408 C.ar    
  20 F20            3.1014     7.7526     2.2542 F       
  21 C21            1.6548    -1.4159    -1.1429 C.2     
  22 O22            2.7466    -1.4063    -1.6773 O.2     
  23 C23            0.5466    -2.1897    -1.7401 C.ar    
  24 C24            0.3155    -2.1364    -3.1171 C.ar    
  25 C25           -0.7223    -2.8625    -3.6679 C.ar    
  26 C26           -1.5313    -3.6402    -2.8593 C.ar    
  27 C27           -1.3075    -3.6966    -1.4949 C.ar    
  28 C28           -0.2706    -2.9819    -0.9320 C.ar    
  29 C29           -0.9740    -2.8069    -5.1527 C.3     
  30 F30           -2.0687    -3.6179    -5.4707 F       
  31 F31           -1.2456    -1.4876    -5.5306 F       
  32 F32            0.1586    -3.2637    -5.8351 F       
  33 Cl33           1.3295    -1.1598    -4.1328 Cl      
  34 H34            0.0434    -1.2777     1.4623 H       
  35 H35           -0.6453    -0.8900    -0.1389 H       
  36 H36            2.6395    -0.3927     1.7010 H       
  37 H37            3.5009    -0.2576     0.1478 H       
  38 H38            2.4939     1.8636    -0.3385 H       
  39 H39            2.9893     1.9566     1.3695 H       
  40 H40           -0.4153     5.3773     0.7533 H       
  41 H41            0.7806     7.4998     1.0906 H       
  42 H42            3.9720     5.4139     3.0137 H       
  43 H43            2.7845     3.2840     2.6939 H       
  44 H44           -2.3417    -4.2058    -3.2948 H       
  45 H45           -1.9437    -4.3054    -0.8696 H       
  46 H46           -0.0945    -3.0314     0.1324 H       
@<TRIPOS>BOND
   1    1    2 1
   2    1    3 1
   3    1    7 2
   4    2    4 1
   5    2   34 1
   6    2   35 1
   7    3    6 1
   8    3    9 1
   9    4    5 1
  10    4   21 am
  11    5    6 1
  12    5   36 1
  13    5   37 1
  14    6   38 1
  15    6   39 1
  16    7    8 1
  17    8    9 2
  18    8   10 1
  19    9   14 1
  20   10   11 1
  21   10   12 1
  22   10   13 1
  23   14   15 ar
  24   14   19 ar
  25   15   16 ar
  26   15   40 1
  27   16   17 ar
  28   16   41 1
  29   17   18 ar
  30   17   20 1
  31   18   19 ar
  32   18   42 1
  33   19   43 1
  34   21   22 2
  35   21   23 1
  36   23   24 ar
  37   23   28 ar
  38   24   25 ar
  39   24   33 1
  40   25   26 ar
  41   25   29 1
  42   26   27 ar
  43   26   44 1
  44   27   28 ar
  45   27   45 1
  46   28   46 1
  47   29   30 1
  48   29   31 1
  49   29   32 1

#	End of record

