#	Name: ASD00170776
#	Creating user name:	WinNT
#	Creation time:	15. 06. 2019 18:32

#	Modifying user name:	WinNT
#	Modification time:	15. 06. 2019 18:32

#	Program:	/corina/corina34_cracker 3.40 0067  02.08.2006

@<TRIPOS>MOLECULE
ASD00170776
  59   63    0    0    0
SMALL
NO_CHARGES


@<TRIPOS>ATOM
   1 Cl1            2.3446     5.2609    -5.5063 Cl      
   2 C2             1.6325     5.3567    -3.9260 C.ar    
   3 C3             2.2987     4.8219    -2.8356 C.ar    
   4 C4             1.7381     4.8949    -1.5779 C.ar    
   5 C5             0.4965     5.5098    -1.4047 C.ar    
   6 C6            -0.1700     6.0473    -2.5076 C.ar    
   7 C7             0.4029     5.9725    -3.7596 C.ar    
   8 C8            -0.1102     5.5908    -0.0590 C.2     
   9 O9             0.4241     5.0365     0.8839 O.2     
  10 C10           -1.3555     6.3390     0.1399 C.2     
  11 C11           -2.5956     5.7425     0.1682 C.2     
  12 S12           -3.8118     6.9121     0.4191 S.3     
  13 C13           -2.6325     8.2119     0.4855 C.2     
  14 C14           -1.3939     7.7223     0.3244 C.2     
  15 C15           -0.1594     8.5865     0.3326 C.3     
  16 C16            0.4021     8.6602     1.7539 C.3     
  17 C17            0.6714     7.2453     2.2700 C.3     
  18 C18            1.7081     9.4572     1.7456 C.3     
  19 C19           -0.6117     9.3520     2.6675 C.3     
  20 C20           -2.9569     9.6371     0.6936 C.ar    
  21 C21           -4.2734    10.0159     0.9635 C.ar    
  22 C22           -4.5609    11.3549     1.1560 C.ar    
  23 C23           -3.5241    12.2747     1.0729 C.ar    
  24 C24           -2.2429    11.8314     0.8023 C.ar    
  25 N25           -1.9927    10.5496     0.6279 N.ar    
  26 N26           -2.8241     4.3837     0.0141 N.am    
  27 C27           -2.7746     3.4853     1.0141 C.2     
  28 O28           -2.5260     3.7321     2.1769 O.2     
  29 C29           -3.0734     2.1479     0.4610 C.ar    
  30 C30           -3.2962     2.3418    -0.9177 C.ar    
  31 C31           -3.1300     3.7911    -1.1542 C.2     
  32 O32           -3.2442     4.3522    -2.2251 O.2     
  33 C33           -3.6037     1.2583    -1.7250 C.ar    
  34 C34           -3.6901    -0.0092    -1.1705 C.ar    
  35 C35           -3.4717    -0.1992     0.1812 C.ar    
  36 C36           -3.1628     0.8749     1.0011 C.ar    
  37 H37            3.2590     4.3466    -2.9709 H       
  38 H38            2.2582     4.4770    -0.7286 H       
  39 H39           -1.1307     6.5241    -2.3798 H       
  40 H40           -0.1115     6.3882    -4.6134 H       
  41 H41            0.5897     8.1562    -0.3321 H       
  42 H42           -0.4155     9.5892    -0.0094 H       
  43 H43            1.3936     6.7525     1.6191 H       
  44 H44            1.0714     7.2978     3.2825 H       
  45 H45           -0.2590     6.6775     2.2759 H       
  46 H46            1.5163    10.4652     1.3779 H       
  47 H47            2.1082     9.5098     2.7582 H       
  48 H48            2.4304     8.9644     1.0947 H       
  49 H49           -1.5760     8.8506     2.5855 H       
  50 H50           -0.2634     9.3034     3.6992 H       
  51 H51           -0.7178    10.3948     2.3686 H       
  52 H52           -5.0561     9.2739     1.0208 H       
  53 H53           -5.5698    11.6780     1.3660 H       
  54 H54           -3.7169    13.3274     1.2181 H       
  55 H55           -1.4351    12.5453     0.7369 H       
  56 H56           -3.7757     1.4008    -2.7816 H       
  57 H57           -3.9301    -0.8541    -1.7988 H       
  58 H58           -3.5422    -1.1916     0.6015 H       
  59 H59           -2.9932     0.7205     2.0565 H       
@<TRIPOS>BOND
   1    1    2 1
   2    2    3 ar
   3    2    7 ar
   4    3    4 ar
   5    3   37 1
   6    4    5 ar
   7    4   38 1
   8    5    6 ar
   9    5    8 1
  10    6    7 ar
  11    6   39 1
  12    7   40 1
  13    8    9 2
  14    8   10 1
  15   10   11 2
  16   10   14 1
  17   11   12 1
  18   11   26 1
  19   12   13 1
  20   13   14 2
  21   13   20 1
  22   14   15 1
  23   15   16 1
  24   15   41 1
  25   15   42 1
  26   16   17 1
  27   16   18 1
  28   16   19 1
  29   17   43 1
  30   17   44 1
  31   17   45 1
  32   18   46 1
  33   18   47 1
  34   18   48 1
  35   19   49 1
  36   19   50 1
  37   19   51 1
  38   20   21 ar
  39   20   25 ar
  40   21   22 ar
  41   21   52 1
  42   22   23 ar
  43   22   53 1
  44   23   24 ar
  45   23   54 1
  46   24   25 ar
  47   24   55 1
  48   26   27 am
  49   26   31 am
  50   27   28 2
  51   27   29 1
  52   29   30 ar
  53   29   36 ar
  54   30   31 1
  55   30   33 ar
  56   31   32 2
  57   33   34 ar
  58   33   56 1
  59   34   35 ar
  60   34   57 1
  61   35   36 ar
  62   35   58 1
  63   36   59 1

#	End of record

