#	Name: ASD01913684
#	Creating user name:	WinNT
#	Creation time:	15. 06. 2019 20:02

#	Modifying user name:	WinNT
#	Modification time:	15. 06. 2019 20:02

#	Program:	/corina/corina34_cracker 3.40 0067  02.08.2006

@<TRIPOS>MOLECULE
ASD01913684
  37   38    0    0    0
SMALL
NO_CHARGES


@<TRIPOS>ATOM
   1 C1            -0.0201     1.5258     0.0329 C.3     
   2 C2             0.0009    -0.0040     0.0211 C.3     
   3 O3            -1.3397    -0.4989     0.0244 O.3     
   4 C4            -1.4987    -1.8445     0.0149 C.ar    
   5 N5            -0.4312    -2.6276     0.0032 N.ar    
   6 C6            -0.5336    -3.9402    -0.0064 C.ar    
   7 C7            -1.7861    -4.5555    -0.0044 C.ar    
   8 C8            -2.9376    -3.7541     0.0079 C.ar    
   9 C9            -2.7818    -2.3835     0.0233 C.ar    
  10 C10           -1.8978    -6.0270    -0.0156 C.2     
  11 N11           -0.7849    -6.7872    -0.0278 N.am    
  12 O12           -2.9937    -6.5535    -0.0138 O.2     
  13 C13           -0.8871    -8.1742     0.0705 C.ar    
  14 C14            1.4152     2.0556     0.0294 C.3     
  15 C15            1.3942     3.5854     0.0412 C.3     
  16 N16           -2.0703    -8.7312     0.2726 N.ar    
  17 C17           -2.2121   -10.0393     0.3718 C.ar    
  18 C18           -1.1194   -10.8802     0.2670 C.ar    
  19 C19            0.1410   -10.3335     0.0545 C.ar    
  20 C20            0.2545    -8.9587    -0.0505 C.ar    
  21 F21           -1.2748   -12.2183     0.3704 F       
  22 H22           -0.5436     1.8888    -0.8515 H       
  23 H23           -0.5341     1.8751     0.9284 H       
  24 H24            0.5149    -0.3534    -0.8744 H       
  25 H25            0.5244    -0.3671     0.9055 H       
  26 H26            0.3601    -4.5465    -0.0161 H       
  27 H27           -3.9216    -4.1992     0.0094 H       
  28 H28           -3.6460    -1.7358     0.0331 H       
  29 H29            0.0870    -6.3693    -0.1050 H       
  30 H30            1.9387     1.6925     0.9138 H       
  31 H31            1.9293     1.7062    -0.8661 H       
  32 H32            0.8707     3.9484    -0.8432 H       
  33 H33            0.8802     3.9348     0.9367 H       
  34 H34            2.4168     3.9628     0.0387 H       
  35 H35           -3.1936   -10.4584     0.5373 H       
  36 H36            1.0110   -10.9677    -0.0311 H       
  37 H37            1.2184    -8.5003    -0.2156 H       
@<TRIPOS>BOND
   1    1    2 1
   2    1   14 1
   3    1   22 1
   4    1   23 1
   5    2    3 1
   6    2   24 1
   7    2   25 1
   8    3    4 1
   9    4    5 ar
  10    4    9 ar
  11    5    6 ar
  12    6    7 ar
  13    6   26 1
  14    7    8 ar
  15    7   10 1
  16    8    9 ar
  17    8   27 1
  18    9   28 1
  19   10   11 am
  20   10   12 2
  21   11   13 1
  22   11   29 1
  23   13   16 ar
  24   13   20 ar
  25   14   15 1
  26   14   30 1
  27   14   31 1
  28   15   32 1
  29   15   33 1
  30   15   34 1
  31   16   17 ar
  32   17   18 ar
  33   17   35 1
  34   18   19 ar
  35   18   21 1
  36   19   20 ar
  37   19   36 1
  38   20   37 1

#	End of record

