#	Name: ASD07930686
#	Creating user name:	WinNT
#	Creation time:	15. 06. 2019 21:13

#	Modifying user name:	WinNT
#	Modification time:	15. 06. 2019 21:13

#	Program:	/corina/corina34_cracker 3.40 0067  02.08.2006

@<TRIPOS>MOLECULE
ASD07930686
  43   45    0    0    0
SMALL
NO_CHARGES


@<TRIPOS>ATOM
   1 C1            -0.0178     1.4608     0.0101 C.3     
   2 N2             0.8031    -0.4153    -2.1619 N.2     
   3 N3            -0.8796    -1.7833    -1.2911 N.pl3   
   4 C4            -0.9005    -2.8248    -0.2586 C.3     
   5 C5            -1.2102    -2.1834     1.1010 C.3     
   6 S6             0.0275    -0.8859     1.4156 S.o2    
   7 N7             0.0021    -0.0041     0.0020 N.am    
   8 C8             0.0002    -0.7257    -1.1832 C.2     
   9 C9             0.4646    -3.5132    -0.1997 C.3     
  10 O10           -0.4323     0.0192     2.4099 O.2     
  11 O11            1.3354    -1.4387     1.4687 O.2     
  12 C12           -1.9634    -3.8404    -0.5898 C.2     
  13 S13           -3.3416    -4.2316     0.4300 S.3     
  14 C14           -3.9134    -5.4124    -0.7414 C.2     
  15 C15           -3.0707    -5.4466    -1.7930 C.2     
  16 C16           -2.0037    -4.5755    -1.7055 C.2     
  17 C17           -5.1296    -6.2400    -0.5951 C.ar    
  18 C18           -5.4839    -7.1462    -1.5943 C.ar    
  19 C19           -6.6246    -7.9181    -1.4504 C.ar    
  20 C20           -7.4123    -7.7888    -0.3146 C.ar    
  21 C21           -7.0625    -6.8904     0.6768 C.ar    
  22 C22           -5.9245    -6.1213     0.5465 C.ar    
  23 O23           -6.9734    -8.8023    -2.4218 O.3     
  24 Cl24          -0.7963    -4.4527    -2.9468 Cl      
  25 C25           -8.1622    -9.5658    -2.2076 C.3     
  26 F26           -9.2543    -8.7013    -2.0764 F       
  27 F27           -8.3709   -10.4190    -3.2965 F       
  28 F28           -8.0252   -10.3245    -1.0402 F       
  29 H29            1.0048     1.8381     0.0023 H       
  30 H30           -0.5450     1.8219    -0.8730 H       
  31 H31           -0.5280     1.8123     0.9069 H       
  32 H32            0.7883    -0.9307    -2.9835 H       
  33 H33           -1.4804    -1.8399    -2.0505 H       
  34 H34           -2.2071    -1.7432     1.0811 H       
  35 H35           -1.1573    -2.9394     1.8845 H       
  36 H36            1.2322    -2.7780     0.0418 H       
  37 H37            0.4485    -4.2871     0.5677 H       
  38 H38            0.6857    -3.9650    -1.1667 H       
  39 H39           -3.2207    -6.1010    -2.6390 H       
  40 H40           -4.8707    -7.2453    -2.4778 H       
  41 H41           -8.3016    -8.3917    -0.2050 H       
  42 H42           -7.6795    -6.7940     1.5580 H       
  43 H43           -5.6540    -5.4208     1.3228 H       
@<TRIPOS>BOND
   1    1    7 1
   2    1   29 1
   3    1   30 1
   4    1   31 1
   5    2    8 2
   6    2   32 1
   7    3    4 1
   8    3    8 1
   9    3   33 1
  10    4    5 1
  11    4    9 1
  12    4   12 1
  13    5    6 1
  14    5   34 1
  15    5   35 1
  16    6    7 am
  17    6   10 2
  18    6   11 2
  19    7    8 1
  20    9   36 1
  21    9   37 1
  22    9   38 1
  23   12   13 1
  24   12   16 2
  25   13   14 1
  26   14   15 2
  27   14   17 1
  28   15   16 1
  29   15   39 1
  30   16   24 1
  31   17   18 ar
  32   17   22 ar
  33   18   19 ar
  34   18   40 1
  35   19   20 ar
  36   19   23 1
  37   20   21 ar
  38   20   41 1
  39   21   22 ar
  40   21   42 1
  41   22   43 1
  42   23   25 1
  43   25   26 1
  44   25   27 1
  45   25   28 1

#	End of record

