#	Name: ASD03330166
#	Creating user name:	WinNT
#	Creation time:	15. 06. 2019 20:36

#	Modifying user name:	WinNT
#	Modification time:	15. 06. 2019 20:36

#	Program:	/corina/corina34_cracker 3.40 0067  02.08.2006

@<TRIPOS>MOLECULE
ASD03330166
  60   63    0    0    0
SMALL
NO_CHARGES


@<TRIPOS>ATOM
   1 C1             0.0165     1.4069    -0.0097 C.2     
   2 C2            -0.0251     0.0438    -0.0095 C.2     
   3 C3             1.2096    -0.5700    -0.0038 C.2     
   4 C4             2.2754     0.3011     0.0007 C.2     
   5 S5             1.6857     1.9572    -0.0024 S.3     
   6 C6            -1.1561     2.2826    -0.0207 C.2     
   7 O7            -2.2738     1.8025    -0.0306 O.2     
   8 O8            -0.9975     3.6225    -0.0199 O.3     
   9 C9             1.3751    -2.0433    -0.0026 C.ar    
  10 C10            0.7753    -2.8130     0.9932 C.ar    
  11 C11            0.9313    -4.1834     0.9915 C.ar    
  12 C12            1.6846    -4.7964    -0.0004 C.ar    
  13 C13            2.2831    -4.0330    -0.9934 C.ar    
  14 C14            2.1263    -2.6628    -1.0007 C.ar    
  15 O15            1.8368    -6.1470     0.0010 O.3     
  16 C16            2.6245    -6.7121    -1.0488 C.3     
  17 C17            2.6818    -8.2319    -0.8819 C.3     
  18 C18            3.5252    -8.8370    -2.0059 C.3     
  19 O19            3.5787   -10.2564    -1.8500 O.3     
  20 C20            4.3465   -10.9229    -2.8542 C.3     
  21 C21            4.4389   -12.4141    -2.5203 C.3     
  22 C22            5.2116   -13.1313    -3.6317 C.3     
  23 C23            4.5119   -12.8775    -4.9705 C.3     
  24 C24            4.4167   -11.3684    -5.2097 C.3     
  25 O25            3.7138   -10.7590    -4.1250 O.3     
  26 C26            3.6968    -0.0949     0.0075 C.ar    
  27 C27            4.5874     0.4679    -0.9117 C.ar    
  28 C28            5.9157     0.0925    -0.8985 C.ar    
  29 C29            6.3656    -0.8381     0.0213 C.ar    
  30 C30            5.4894    -1.3989     0.9337 C.ar    
  31 C31            4.1603    -1.0296     0.9361 C.ar    
  32 Cl32           4.0242     1.6352    -2.0667 Cl      
  33 C33           -2.1857     4.4164    -0.0310 C.3     
  34 H34           -0.9517    -0.5109    -0.0131 H       
  35 H35            0.1894    -2.3366     1.7654 H       
  36 H36            0.4673    -4.7801     1.7628 H       
  37 H37            2.8688    -4.5130    -1.7634 H       
  38 H38            2.5882    -2.0699    -1.7762 H       
  39 H39            2.1750    -6.4690    -2.0116 H       
  40 H40            3.6342    -6.3036    -1.0057 H       
  41 H41            3.1313    -8.4750     0.0808 H       
  42 H42            1.6722    -8.6404    -0.9250 H       
  43 H43            3.0757    -8.5939    -2.9687 H       
  44 H44            4.5349    -8.4284    -1.9628 H       
  45 H45            5.3486   -10.4955    -2.8890 H       
  46 H46            4.9606   -12.5435    -1.5721 H       
  47 H47            3.4356   -12.8334    -2.4453 H       
  48 H48            6.2305   -12.7466    -3.6741 H       
  49 H49            5.2328   -14.2020    -3.4285 H       
  50 H50            5.0858   -13.3383    -5.7745 H       
  51 H51            3.5101   -13.3062    -4.9449 H       
  52 H52            5.4197   -10.9468    -5.2755 H       
  53 H53            3.8816   -11.1810    -6.1406 H       
  54 H54            6.6052     0.5258    -1.6079 H       
  55 H55            7.4059    -1.1285     0.0270 H       
  56 H56            5.8480    -2.1246     1.6486 H       
  57 H57            3.4789    -1.4651     1.6519 H       
  58 H58           -2.7651     4.1906    -0.9261 H       
  59 H59           -2.7813     4.1914     0.8538 H       
  60 H60           -1.9168     5.4727    -0.0290 H       
@<TRIPOS>BOND
   1    1    2 2
   2    1    5 1
   3    1    6 1
   4    2    3 1
   5    2   34 1
   6    3    4 2
   7    3    9 1
   8    4    5 1
   9    4   26 1
  10    6    7 2
  11    6    8 1
  12    8   33 1
  13    9   10 ar
  14    9   14 ar
  15   10   11 ar
  16   10   35 1
  17   11   12 ar
  18   11   36 1
  19   12   13 ar
  20   12   15 1
  21   13   14 ar
  22   13   37 1
  23   14   38 1
  24   15   16 1
  25   16   17 1
  26   16   39 1
  27   16   40 1
  28   17   18 1
  29   17   41 1
  30   17   42 1
  31   18   19 1
  32   18   43 1
  33   18   44 1
  34   19   20 1
  35   20   21 1
  36   20   25 1
  37   20   45 1
  38   21   22 1
  39   21   46 1
  40   21   47 1
  41   22   23 1
  42   22   48 1
  43   22   49 1
  44   23   24 1
  45   23   50 1
  46   23   51 1
  47   24   25 1
  48   24   52 1
  49   24   53 1
  50   26   27 ar
  51   26   31 ar
  52   27   28 ar
  53   27   32 1
  54   28   29 ar
  55   28   54 1
  56   29   30 ar
  57   29   55 1
  58   30   31 ar
  59   30   56 1
  60   31   57 1
  61   33   58 1
  62   33   59 1
  63   33   60 1

#	End of record

