#	Name: ASD03080160
#	Creating user name:	WinNT
#	Creation time:	15. 06. 2019 20:26

#	Modifying user name:	WinNT
#	Modification time:	15. 06. 2019 20:26

#	Program:	/corina/corina34_cracker 3.40 0067  02.08.2006

@<TRIPOS>MOLECULE
ASD03080160
  38   40    0    0    0
SMALL
NO_CHARGES


@<TRIPOS>ATOM
   1 C1             0.7372     1.0552     0.4716 C.2     
   2 N2            -0.0520     0.0020     0.7623 N.am    
   3 C3            -1.0772    -0.3482    -0.0918 C.2     
   4 C4             1.7893     1.4773     1.4244 C.ar    
   5 C5             1.9807     0.7972     2.6309 C.ar    
   6 C6             2.6228     2.5637     1.1396 C.ar    
   7 C7             3.5917     2.9235     2.0560 C.ar    
   8 N8             3.7361     2.2587     3.1852 N.ar    
   9 C9             2.9753     1.2253     3.4911 C.ar    
  10 N10           -0.9919    -1.4473    -0.8031 N.2     
  11 C11           -2.0547    -1.8530    -1.5677 C.ar    
  12 C12           -1.9004    -2.0280    -2.9435 C.ar    
  13 C13           -2.9756    -2.4375    -3.7117 C.ar    
  14 C14           -4.2105    -2.6747    -3.1109 C.ar    
  15 C15           -4.3629    -2.5009    -1.7439 C.ar    
  16 C16           -3.2928    -2.0978    -0.9713 C.ar    
  17 O17           -3.0888    -2.6777    -5.0510 O.3     
  18 C18           -4.2904    -3.4563    -5.2020 C.3     
  19 O19           -5.0966    -3.0636    -4.0757 O.3     
  20 F20           -4.9346    -3.1380    -6.4024 F       
  21 F21           -4.0004    -4.8237    -5.1460 F       
  22 Cl22           3.2211     0.3966     4.9966 Cl      
  23 C23            4.4964     4.0919     1.7607 C.3     
  24 S24           -2.5011     0.6807    -0.2274 S.3     
  25 O25            0.5888     1.6551    -0.5745 O.2     
  26 C26           -1.7355     2.1958    -0.8555 C.3     
  27 H27            0.1009    -0.5097     1.5720 H       
  28 H28            1.3609    -0.0493     2.8874 H       
  29 H29            2.5108     3.1130     0.2166 H       
  30 H30           -0.9430    -1.8436    -3.4080 H       
  31 H31           -5.3213    -2.6856    -1.2815 H       
  32 H32           -3.4155    -1.9636     0.0933 H       
  33 H33            4.0466     5.0065     2.1472 H       
  34 H34            5.4632     3.9326     2.2382 H       
  35 H35            4.6338     4.1818     0.6831 H       
  36 H36           -1.2070     1.9780    -1.7835 H       
  37 H37           -2.5075     2.9420    -1.0435 H       
  38 H38           -1.0311     2.5797    -0.1176 H       
@<TRIPOS>BOND
   1    1    2 am
   2    1    4 1
   3    1   25 2
   4    2    3 1
   5    2   27 1
   6    3   10 2
   7    3   24 1
   8    4    5 ar
   9    4    6 ar
  10    5    9 ar
  11    5   28 1
  12    6    7 ar
  13    6   29 1
  14    7    8 ar
  15    7   23 1
  16    8    9 ar
  17    9   22 1
  18   10   11 1
  19   11   12 ar
  20   11   16 ar
  21   12   13 ar
  22   12   30 1
  23   13   14 ar
  24   13   17 1
  25   14   15 ar
  26   14   19 1
  27   15   16 ar
  28   15   31 1
  29   16   32 1
  30   17   18 1
  31   18   19 1
  32   18   20 1
  33   18   21 1
  34   23   33 1
  35   23   34 1
  36   23   35 1
  37   24   26 1
  38   26   36 1
  39   26   37 1
  40   26   38 1

#	End of record

