#	Name: ASD04910125
#	Creating user name:	WinNT
#	Creation time:	15. 06. 2019 20:55

#	Modifying user name:	WinNT
#	Modification time:	15. 06. 2019 20:55

#	Program:	/corina/corina34_cracker 3.40 0067  02.08.2006

@<TRIPOS>MOLECULE
ASD04910125
  35   36    0    0    0
SMALL
NO_CHARGES


@<TRIPOS>ATOM
   1 C1            -0.0180     1.4730     0.0101 C.2     
   2 C2             0.0021    -0.0041     0.0020 C.ar    
   3 C3             1.2188    -0.6888    -0.0133 C.ar    
   4 C4             1.2303    -2.0682    -0.0203 C.ar    
   5 C5             0.0396    -2.7731    -0.0127 C.ar    
   6 C6            -1.1697    -2.1009     0.0020 C.ar    
   7 C7            -1.1956    -0.7217     0.0154 C.ar    
   8 O8             1.0256     2.0946     0.0035 O.2     
   9 O9            -1.1936     2.1307     0.0193 O.3     
  10 C10            0.0601    -4.2800    -0.0210 C.3     
  11 O11            0.0794    -4.7635     1.3236 O.3     
  12 C12            0.0998    -6.1885     1.4286 C.3     
  13 C13            0.8233    -6.7033     2.6841 C.3     
  14 C14           -0.2881    -7.7603     2.7953 C.3     
  15 C15           -1.1884    -6.7808     2.0240 C.3     
  16 C16           -1.1373     3.5816     0.0269 C.3     
  17 C17           -2.5589     4.1471     0.0367 C.3     
  18 H18            2.1488    -0.1398    -0.0199 H       
  19 H19            2.1707    -2.5992    -0.0321 H       
  20 H20           -2.0953    -2.6572     0.0071 H       
  21 H21           -2.1401    -0.1983     0.0318 H       
  22 H22           -0.8298    -4.6526    -0.5283 H       
  23 H23            0.9499    -4.6284    -0.5452 H       
  24 H24            0.4215    -6.6761     0.5084 H       
  25 H25            1.8075    -7.1245     2.4790 H       
  26 H26            0.8307    -5.9892     3.5076 H       
  27 H27           -0.0735    -8.6787     2.2489 H       
  28 H28           -0.6168    -7.9423     3.8184 H       
  29 H29           -1.7311    -6.0878     2.6670 H       
  30 H30           -1.8283    -7.2645     1.2860 H       
  31 H31           -0.6055     3.9199     0.9162 H       
  32 H32           -0.6140     3.9295    -0.8637 H       
  33 H33           -2.5166     5.2362     0.0424 H       
  34 H34           -3.0907     3.8088    -0.8526 H       
  35 H35           -3.0822     3.7991     0.9273 H       
@<TRIPOS>BOND
   1    1    2 1
   2    1    8 2
   3    1    9 1
   4    2    3 ar
   5    2    7 ar
   6    3    4 ar
   7    3   18 1
   8    4    5 ar
   9    4   19 1
  10    5    6 ar
  11    5   10 1
  12    6    7 ar
  13    6   20 1
  14    7   21 1
  15    9   16 1
  16   10   11 1
  17   10   22 1
  18   10   23 1
  19   11   12 1
  20   12   13 1
  21   12   15 1
  22   12   24 1
  23   13   14 1
  24   13   25 1
  25   13   26 1
  26   14   15 1
  27   14   27 1
  28   14   28 1
  29   15   29 1
  30   15   30 1
  31   16   17 1
  32   16   31 1
  33   16   32 1
  34   17   33 1
  35   17   34 1
  36   17   35 1

#	End of record

