#	Name: ASD01148531
#	Creating user name:	WinNT
#	Creation time:	15. 06. 2019 19:02

#	Modifying user name:	WinNT
#	Modification time:	15. 06. 2019 19:02

#	Program:	/corina/corina34_cracker 3.40 0067  02.08.2006

@<TRIPOS>MOLECULE
ASD01148531
  53   56    0    0    0
SMALL
NO_CHARGES


@<TRIPOS>ATOM
   1 C1            -0.0180     1.4349     0.0450 C.ar    
   2 C2            -0.0166     0.0528     0.0405 C.ar    
   3 C3             1.1812    -0.6372     0.0175 C.ar    
   4 C4             2.3773     0.0551    -0.0013 C.ar    
   5 C5             2.3759     1.4376     0.0023 C.ar    
   6 C6             1.1785     2.1274     0.0267 C.ar    
   7 C7             3.6801     2.1925    -0.0172 C.3     
   8 O8             4.6904     1.4587    -0.7385 O.3     
   9 C9             3.5611     3.4817    -0.8646 C.3     
  10 C10            4.0481     3.0268    -2.2273 C.2     
  11 N11            4.6607     1.8982    -2.0821 N.2     
  12 C12            3.8554     3.7471    -3.4975 C.ar    
  13 C13            4.3789     3.1929    -4.7437 C.ar    
  14 C14            3.1703     4.9542    -3.5190 C.ar    
  15 C15            2.9744     5.6517    -4.6976 C.ar    
  16 C16            3.4542     5.1743    -5.9098 C.ar    
  17 C17            4.1787     3.9063    -5.9492 C.ar    
  18 C18            3.2298     5.9391    -7.1493 C.2     
  19 O19            3.7413     5.5738    -8.1902 O.2     
  20 N20            2.4575     7.0435    -7.1292 N.am    
  21 C21            4.6800     3.3863    -7.1491 C.ar    
  22 C22            5.0712     1.9755    -4.7699 C.ar    
  23 C23            4.1459     2.5120     1.4047 C.3     
  24 F24            4.3106     1.3212     2.1201 F       
  25 F25            5.3644     3.1975     1.3532 F       
  26 F26            3.1887     3.3097     2.0408 F       
  27 C27            2.2471     7.7604    -8.2910 C.2     
  28 N28            2.7902     7.3725    -9.3962 N.2     
  29 O29            2.5746     8.1074   -10.5872 O.3     
  30 C30            3.2350     7.5650   -11.7325 C.3     
  31 C31            5.5425     1.4945    -5.9553 C.ar    
  32 C32            5.3501     2.1990    -7.1406 C.ar    
  33 C33            1.1827    -2.1442     0.0136 C.3     
  34 F34           -0.1356    -2.6119     0.0356 F       
  35 F35            1.8224    -2.6069    -1.1414 F       
  36 F36            1.8628    -2.6128     1.1428 F       
  37 H37           -0.9538     1.9739     0.0584 H       
  38 H38           -0.9512    -0.4882     0.0552 H       
  39 H39            3.3130    -0.4839    -0.0185 H       
  40 H40            1.1774     3.2074     0.0299 H       
  41 H41            2.5251     3.8167    -0.9160 H       
  42 H42            4.2035     4.2671    -0.4665 H       
  43 H43            2.7814     5.3574    -2.5957 H       
  44 H44            2.4362     6.5878    -4.6742 H       
  45 H45            2.0494     7.3349    -6.2988 H       
  46 H46            4.5363     3.9225    -8.0756 H       
  47 H47            5.2309     1.4216    -3.8567 H       
  48 H48            1.6283     8.6454    -8.2749 H       
  49 H49            3.0201     8.1846   -12.6031 H       
  50 H50            4.3106     7.5460   -11.5566 H       
  51 H51            2.8781     6.5508   -11.9113 H       
  52 H52            6.0765     0.5559    -5.9744 H       
  53 H53            5.7362     1.7990    -8.0665 H       
@<TRIPOS>BOND
   1    1    2 ar
   2    1    6 ar
   3    1   37 1
   4    2    3 ar
   5    2   38 1
   6    3    4 ar
   7    3   33 1
   8    4    5 ar
   9    4   39 1
  10    5    6 ar
  11    5    7 1
  12    6   40 1
  13    7    8 1
  14    7    9 1
  15    7   23 1
  16    8   11 1
  17    9   10 1
  18    9   41 1
  19    9   42 1
  20   10   11 2
  21   10   12 1
  22   12   13 ar
  23   12   14 ar
  24   13   22 ar
  25   13   17 ar
  26   14   15 ar
  27   14   43 1
  28   15   16 ar
  29   15   44 1
  30   16   17 ar
  31   16   18 1
  32   17   21 ar
  33   18   19 2
  34   18   20 am
  35   20   27 1
  36   20   45 1
  37   21   32 ar
  38   21   46 1
  39   22   31 ar
  40   22   47 1
  41   23   24 1
  42   23   25 1
  43   23   26 1
  44   27   28 2
  45   27   48 1
  46   28   29 1
  47   29   30 1
  48   30   49 1
  49   30   50 1
  50   30   51 1
  51   31   32 ar
  52   31   52 1
  53   32   53 1
  54   33   34 1
  55   33   35 1
  56   33   36 1

#	End of record

