#	Name: ASD01028325
#	Creating user name:	WinNT
#	Creation time:	15. 06. 2019 18:56

#	Modifying user name:	WinNT
#	Modification time:	15. 06. 2019 18:56

#	Program:	/corina/corina34_cracker 3.40 0067  02.08.2006

@<TRIPOS>MOLECULE
ASD01028325
  53   57    0    0    0
SMALL
NO_CHARGES


@<TRIPOS>ATOM
   1 C1            -0.0171     1.4118     0.0098 C.ar    
   2 C2             0.0021    -0.0041     0.0020 C.ar    
   3 C3             1.2105     2.1116     0.0018 C.ar    
   4 C4             2.3793     1.3714    -0.0133 C.ar    
   5 C5             2.3160    -0.0162    -0.0202 C.ar    
   6 N6             1.1704    -0.6565    -0.0123 N.ar    
   7 O7             1.2420     3.4670     0.0084 O.3     
   8 C8             2.5299     4.0861    -0.0005 C.3     
   9 C9             2.3673     5.5842     0.0086 C.2     
  10 N10            2.2910     6.3756     1.1077 N.pl3   
  11 C11            2.1481     7.6606     0.6386 C.2     
  12 N12            2.1448     7.5878    -0.6821 N.2     
  13 N13            2.2795     6.3597    -1.0433 N.2     
  14 N14            2.3290     6.1318     2.4818 N.2     
  15 C15            2.2289     7.1248     3.3380 C.2     
  16 C16            2.0814     8.4542     2.8880 C.2     
  17 C17            2.0415     8.7228     1.5562 C.2     
  18 C18            2.2710     6.8443     4.7937 C.ar    
  19 C19            2.4160     5.5335     5.2466 C.ar    
  20 C20            2.4558     5.2719     6.5995 C.ar    
  21 C21            2.3505     6.3220     7.5168 C.ar    
  22 C22            2.2052     7.6342     7.0604 C.ar    
  23 C23            2.1713     7.8928     5.7085 C.ar    
  24 C24           -1.2152    -0.7043     0.0100 C.ar    
  25 C25           -2.4012    -0.0066     0.0251 C.ar    
  26 C26           -2.4085     1.3917     0.0326 C.ar    
  27 O27           -3.5786    -0.6840     0.0324 O.3     
  28 C28           -1.2431     2.0938     0.0310 C.ar    
  29 C29           -4.7758     0.0961     0.0481 C.3     
  30 C30            2.3923     6.0440     8.9668 C.2     
  31 N31            2.2907     7.0567     9.8503 N.am    
  32 C32            2.3322     6.7810    11.2885 C.3     
  33 O33            2.5183     4.9017     9.3633 O.2     
  34 Cl34           2.6357     3.6401     7.1639 Cl      
  35 H35            3.3370     1.8705    -0.0202 H       
  36 H36            3.2348    -0.5838    -0.0321 H       
  37 H37            3.0883     3.7758     0.8827 H       
  38 H38            3.0716     3.7849    -0.8972 H       
  39 H39            2.0000     9.2595     3.6030 H       
  40 H40            1.9287     9.7383     1.2064 H       
  41 H41            2.4969     4.7231     4.5373 H       
  42 H42            2.1238     8.4462     7.7678 H       
  43 H43            2.0593     8.9075     5.3560 H       
  44 H44           -1.2205    -1.7843     0.0039 H       
  45 H45           -3.3501     1.9205     0.0445 H       
  46 H46           -1.2617     3.1736     0.0369 H       
  47 H47           -4.7913     0.7199     0.9418 H       
  48 H48           -4.8081     0.7300    -0.8381 H       
  49 H49           -5.6412    -0.5666     0.0525 H       
  50 H50            2.1902     7.9681     9.5339 H       
  51 H51            3.2804     6.3060    11.5402 H       
  52 H52            2.2363     7.7159    11.8406 H       
  53 H53            1.5107     6.1158    11.5548 H       
@<TRIPOS>BOND
   1    1    2 ar
   2    1    3 ar
   3    1   28 ar
   4    2   24 ar
   5    2    6 ar
   6    3    4 ar
   7    3    7 1
   8    4    5 ar
   9    4   35 1
  10    5    6 ar
  11    5   36 1
  12    7    8 1
  13    8    9 1
  14    8   37 1
  15    8   38 1
  16    9   10 1
  17    9   13 2
  18   10   11 1
  19   10   14 1
  20   11   12 2
  21   11   17 1
  22   12   13 1
  23   14   15 2
  24   15   16 1
  25   15   18 1
  26   16   17 2
  27   16   39 1
  28   17   40 1
  29   18   19 ar
  30   18   23 ar
  31   19   20 ar
  32   19   41 1
  33   20   21 ar
  34   20   34 1
  35   21   22 ar
  36   21   30 1
  37   22   23 ar
  38   22   42 1
  39   23   43 1
  40   24   25 ar
  41   24   44 1
  42   25   26 ar
  43   25   27 1
  44   26   28 ar
  45   26   45 1
  46   27   29 1
  47   28   46 1
  48   29   47 1
  49   29   48 1
  50   29   49 1
  51   30   31 am
  52   30   33 2
  53   31   32 1
  54   31   50 1
  55   32   51 1
  56   32   52 1
  57   32   53 1

#	End of record

