#	Name: ASD01870617
#	Creating user name:	WinNT
#	Creation time:	15. 06. 2019 19:39

#	Modifying user name:	WinNT
#	Modification time:	15. 06. 2019 19:39

#	Program:	/corina/corina34_cracker 3.40 0067  02.08.2006

@<TRIPOS>MOLECULE
ASD01870617
  38   41    0    0    0
SMALL
NO_CHARGES


@<TRIPOS>ATOM
   1 C1             0.0068     1.3651    -0.0391 C.ar    
   2 C2             0.0303    -0.0226    -0.0500 C.ar    
   3 C3             1.2331    -0.7025    -0.0600 C.ar    
   4 C4             2.4335    -0.0086    -0.0589 C.ar    
   5 C5             2.4269     1.3767    -0.0480 C.ar    
   6 C6             1.2002     2.0723    -0.0382 C.ar    
   7 C7             3.4795     2.4140    -0.0429 C.2     
   8 N8             2.8894     3.6229    -0.0309 N.am    
   9 C9             1.5491     3.5072    -0.0280 C.2     
  10 C10            3.5763     4.8358    -0.0231 C.ar    
  11 N11            2.8876     5.9657    -0.0115 N.ar    
  12 C12            3.5046     7.1354    -0.0034 C.ar    
  13 C13            4.8964     7.1666    -0.0072 C.ar    
  14 C14            5.5855     5.9569    -0.0195 C.ar    
  15 N15            4.8996     4.8262    -0.0221 N.ar    
  16 O16            0.7583     4.4289    -0.0181 O.2     
  17 O17            4.6765     2.2094    -0.0479 O.2     
  18 N18            5.5866     8.3852     0.0006 N.am    
  19 C19            6.7567     8.4927     0.6607 C.2     
  20 C20            7.5376     9.7305     0.5718 C.2     
  21 O21            7.1652     7.5622     1.3307 O.2     
  22 C22            8.7329     9.9711     1.1868 C.2     
  23 C23            9.1168    11.2726     0.8274 C.2     
  24 C24            8.1514    11.7631     0.0191 C.2     
  25 O25            7.2040    10.8291    -0.1366 O.3     
  26 C26            9.4927     9.0232     2.0785 C.3     
  27 Cl27          -1.5087     2.2118    -0.0337 Cl      
  28 H28           -0.8979    -0.5748    -0.0503 H       
  29 H29            1.2382    -1.7824    -0.0685 H       
  30 H30            3.3702    -0.5461    -0.0660 H       
  31 H31            2.9365     8.0539     0.0057 H       
  32 H32            6.6654     5.9421    -0.0228 H       
  33 H33            5.2225     9.1518    -0.4690 H       
  34 H34           10.0148    11.7856     1.1386 H       
  35 H35            8.1464    12.7450    -0.4306 H       
  36 H36           10.1722     8.4220     1.4744 H       
  37 H37           10.0648     9.5929     2.8107 H       
  38 H38            8.7905     8.3689     2.5952 H       
@<TRIPOS>BOND
   1    1    2 ar
   2    1    6 ar
   3    1   27 1
   4    2    3 ar
   5    2   28 1
   6    3    4 ar
   7    3   29 1
   8    4    5 ar
   9    4   30 1
  10    5    7 1
  11    5    6 ar
  12    6    9 1
  13    7    8 am
  14    7   17 2
  15    8    9 am
  16    8   10 1
  17    9   16 2
  18   10   11 ar
  19   10   15 ar
  20   11   12 ar
  21   12   13 ar
  22   12   31 1
  23   13   14 ar
  24   13   18 1
  25   14   15 ar
  26   14   32 1
  27   18   19 am
  28   18   33 1
  29   19   20 1
  30   19   21 2
  31   20   22 2
  32   20   25 1
  33   22   23 1
  34   22   26 1
  35   23   24 2
  36   23   34 1
  37   24   25 1
  38   24   35 1
  39   26   36 1
  40   26   37 1
  41   26   38 1

#	End of record

