#	Name: ASD01883106
#	Creating user name:	WinNT
#	Creation time:	15. 06. 2019 19:45

#	Modifying user name:	WinNT
#	Modification time:	15. 06. 2019 19:45

#	Program:	/corina/corina34_cracker 3.40 0067  02.08.2006

@<TRIPOS>MOLECULE
ASD01883106
  48   50    0    0    0
SMALL
NO_CHARGES


@<TRIPOS>ATOM
   1 N1            -0.0162     1.3417     0.0094 N.am    
   2 C2             0.0021    -0.0041     0.0020 C.2     
   3 C3            -1.2166    -0.7275     0.0102 C.2     
   4 C4            -2.4257    -0.0118     0.0261 C.2     
   5 C5            -2.3786     1.3954     0.0332 C.2     
   6 C6            -1.1848     2.0319     0.0299 C.2     
   7 O7             1.0656    -0.6000    -0.0121 O.2     
   8 C8            -1.2158    -2.1595     0.0021 C.1     
   9 N9            -1.2152    -3.2954    -0.0044 N.1     
  10 C10            1.2511     2.0766     0.0013 C.3     
  11 C11            1.6785     2.3402    -1.4440 C.3     
  12 C12            3.0021     3.1077    -1.4525 C.3     
  13 C13            3.4295     3.3713    -2.8978 C.3     
  14 C14           -3.7229    -0.7230     0.0347 C.ar    
  15 C15           -4.5720    -0.6188     1.1376 C.ar    
  16 C16           -5.7803    -1.2846     1.1392 C.ar    
  17 C17           -6.1508    -2.0546     0.0510 C.ar    
  18 C18           -5.3137    -2.1620    -1.0455 C.ar    
  19 C19           -4.1055    -1.4964    -1.0624 C.ar    
  20 C20           -7.4718    -2.7799     0.0602 C.3     
  21 N21           -8.5080    -1.9144    -0.5085 N.pl3   
  22 C22           -9.3608    -1.1022     0.1892 C.2     
  23 C23          -10.1443    -0.4888    -0.7182 C.2     
  24 N24           -9.7799    -0.9148    -1.9367 N.2     
  25 C25           -8.7965    -1.7645    -1.8192 C.2     
  26 C26           -8.1042    -2.4696    -2.9571 C.3     
  27 H27           -3.2952     1.9665     0.0453 H       
  28 H28           -1.1612     3.1116     0.0354 H       
  29 H29            1.1240     3.0260     0.5214 H       
  30 H30            2.0167     1.4862     0.5046 H       
  31 H31            1.8057     1.3908    -1.9642 H       
  32 H32            0.9129     2.9306    -1.9474 H       
  33 H33            2.8749     4.0571    -0.9323 H       
  34 H34            3.7677     2.5173    -0.9491 H       
  35 H35            4.3724     3.9181    -2.9038 H       
  36 H36            3.5567     2.4219    -3.4179 H       
  37 H37            2.6639     3.9617    -3.4011 H       
  38 H38           -4.2836    -0.0187     1.9879 H       
  39 H39           -6.4382    -1.2049     1.9920 H       
  40 H40           -5.6088    -2.7647    -1.8917 H       
  41 H41           -3.4531    -1.5807    -1.9190 H       
  42 H42           -7.3911    -3.6894    -0.5352 H       
  43 H43           -7.7369    -3.0389     1.0852 H       
  44 H44           -9.3984    -0.9777     1.2614 H       
  45 H45          -10.9286     0.2217    -0.5025 H       
  46 H46           -7.2626    -1.8674    -3.2993 H       
  47 H47           -7.7423    -3.4398    -2.6169 H       
  48 H48           -8.8071    -2.6114    -3.7780 H       
@<TRIPOS>BOND
   1    1    2 am
   2    1   10 1
   3    1    6 1
   4    2    3 1
   5    2    7 2
   6    3    4 2
   7    3    8 1
   8    4    5 1
   9    4   14 1
  10    5    6 2
  11    5   27 1
  12    6   28 1
  13    8    9 3
  14   10   11 1
  15   10   29 1
  16   10   30 1
  17   11   12 1
  18   11   31 1
  19   11   32 1
  20   12   13 1
  21   12   33 1
  22   12   34 1
  23   13   35 1
  24   13   36 1
  25   13   37 1
  26   14   15 ar
  27   14   19 ar
  28   15   16 ar
  29   15   38 1
  30   16   17 ar
  31   16   39 1
  32   17   18 ar
  33   17   20 1
  34   18   19 ar
  35   18   40 1
  36   19   41 1
  37   20   21 1
  38   20   42 1
  39   20   43 1
  40   21   22 1
  41   21   25 1
  42   22   23 2
  43   22   44 1
  44   23   24 1
  45   23   45 1
  46   24   25 2
  47   25   26 1
  48   26   46 1
  49   26   47 1
  50   26   48 1

#	End of record

