#	Name: ASD08070125
#	Creating user name:	WinNT
#	Creation time:	15. 06. 2019 21:14

#	Modifying user name:	WinNT
#	Modification time:	15. 06. 2019 21:14

#	Program:	/corina/corina34_cracker 3.40 0067  02.08.2006

@<TRIPOS>MOLECULE
ASD08070125
  41   42    0    0    0
SMALL
NO_CHARGES


@<TRIPOS>ATOM
   1 C1             0.1253     1.3752    -0.6178 C.ar    
   2 C2             0.1461    -0.0071    -0.6096 C.ar    
   3 C3             1.1638     2.0889    -0.0495 C.ar    
   4 C4             2.2291     1.4239     0.5296 C.ar    
   5 C5             1.2108    -0.6807    -0.0303 C.ar    
   6 N6             1.2339    -2.0822    -0.0204 N.am    
   7 O7            -0.9637    -2.1869     0.2852 O.2     
   8 C8             0.0827    -2.7744     0.0890 C.2     
   9 N9             0.0913    -4.1178    -0.0190 N.am    
  10 C10            2.2577     0.0392     0.5415 C.ar    
  11 O11            3.3049    -0.6160     1.1098 O.3     
  12 C12            4.3422     0.1870     1.6765 C.3     
  13 C13           -1.1601    -4.8702     0.1000 C.3     
  14 C14           -1.0273    -6.2014    -0.6425 C.3     
  15 C15           -1.4560    -5.1375     1.5771 C.3     
  16 C16           -2.7629    -5.9233     1.7013 C.3     
  17 C17           -2.6301    -7.2545     0.9588 C.3     
  18 C18           -2.3342    -6.9872    -0.5183 C.3     
  19 C19           -0.7313    -5.9341    -2.1196 C.3     
  20 H20           -0.7023     1.8988    -1.0732 H       
  21 H21           -0.6668    -0.5622    -1.0540 H       
  22 H22            1.1433     3.1686    -0.0582 H       
  23 H23            3.0391     1.9844     0.9724 H       
  24 H24            2.0785    -2.5538    -0.0923 H       
  25 H25            0.9260    -4.5864    -0.1755 H       
  26 H26            3.9264     0.8141     2.4651 H       
  27 H27            5.1141    -0.4588     2.0950 H       
  28 H28            4.7773     0.8183     0.9018 H       
  29 H29           -1.9749    -4.2913    -0.3349 H       
  30 H30           -0.2125    -6.7803    -0.2077 H       
  31 H31           -0.6413    -5.7164     2.0119 H       
  32 H32           -1.5506    -4.1891     2.1060 H       
  33 H33           -2.9738    -6.1137     2.7536 H       
  34 H34           -3.5777    -5.3444     1.2665 H       
  35 H35           -1.8154    -7.8333     1.3937 H       
  36 H36           -3.5612    -7.8143     1.0473 H       
  37 H37           -3.1490    -6.4083    -0.9532 H       
  38 H38           -2.2396    -7.9356    -1.0473 H       
  39 H39            0.1997    -5.3743    -2.2081 H       
  40 H40           -0.6367    -6.8825    -2.6486 H       
  41 H41           -1.5461    -5.3552    -2.5545 H       
@<TRIPOS>BOND
   1    1    2 ar
   2    1    3 ar
   3    1   20 1
   4    2    5 ar
   5    2   21 1
   6    3    4 ar
   7    3   22 1
   8    4   10 ar
   9    4   23 1
  10    5    6 1
  11    5   10 ar
  12    6    8 am
  13    6   24 1
  14    7    8 2
  15    8    9 am
  16    9   13 1
  17    9   25 1
  18   10   11 1
  19   11   12 1
  20   12   26 1
  21   12   27 1
  22   12   28 1
  23   13   14 1
  24   13   15 1
  25   13   29 1
  26   14   19 1
  27   14   18 1
  28   14   30 1
  29   15   16 1
  30   15   31 1
  31   15   32 1
  32   16   17 1
  33   16   33 1
  34   16   34 1
  35   17   18 1
  36   17   35 1
  37   17   36 1
  38   18   37 1
  39   18   38 1
  40   19   39 1
  41   19   40 1
  42   19   41 1

#	End of record

