#	Name: ASD01820065
#	Creating user name:	WinNT
#	Creation time:	15. 06. 2019 19:36

#	Modifying user name:	WinNT
#	Modification time:	15. 06. 2019 19:36

#	Program:	/corina/corina34_cracker 3.40 0067  02.08.2006

@<TRIPOS>MOLECULE
ASD01820065
  91   96    0    0    0
SMALL
NO_CHARGES


@<TRIPOS>ATOM
   1 C1            -0.0167     1.3781     0.0096 C.ar    
   2 C2             0.0021    -0.0041     0.0020 C.ar    
   3 C3             1.2063    -0.6904    -0.0127 C.ar    
   4 C4             2.3989     0.0151    -0.0203 C.ar    
   5 C5             2.3798     1.4244    -0.0130 C.ar    
   6 C6             1.1684     2.0970     0.0022 C.ar    
   7 C7             3.8260    -0.3700    -0.0355 C.2     
   8 N8             4.5720     0.7494    -0.0368 N.am    
   9 C9             3.7959     1.8481    -0.0241 C.2     
  10 O10            4.1923     2.9960    -0.0228 O.2     
  11 O11            4.2534    -1.5068    -0.0446 O.2     
  12 C12            8.0638     0.8038    -1.5099 C.3     
  13 O13            8.5282     0.8166    -2.8613 O.3     
  14 N14            9.9386     0.8363    -2.9855 N.2     
  15 C15           10.4843     0.8494    -4.1574 C.2     
  16 C16           11.9557     0.8700    -4.2870 C.ar    
  17 C17           12.5670     0.8843    -5.5461 C.ar    
  18 C18           13.9448     0.9033    -5.6205 C.ar    
  19 N19           14.6823     0.9080    -4.5270 N.ar    
  20 C20           14.1473     0.8945    -3.3214 C.ar    
  21 C21           12.7776     0.8815    -3.1539 C.ar    
  22 C22           16.1415     0.9284    -4.6554 C.3     
  23 C23           16.6300     2.3778    -4.6932 C.3     
  24 C24           18.1539     2.3991    -4.8273 C.3     
  25 N25           20.6341     5.2576    -5.0353 N.ar    
  26 C26           20.9393     5.8586    -3.9015 C.ar    
  27 C27           21.3891     7.1630    -3.8895 C.ar    
  28 C28           21.5190     7.8471    -5.1038 C.ar    
  29 C29           21.1838     7.1699    -6.2822 C.ar    
  30 C30           20.7419     5.8652    -6.2011 C.ar    
  31 C31           21.9961     9.2447    -5.1407 C.2     
  32 N32           22.1094     9.8594    -6.2724 N.2     
  33 O33           22.5667    11.1991    -6.3078 O.3     
  34 C34           22.6430    11.7526    -7.6230 C.3     
  35 N35           23.7092    15.1693    -8.8702 N.am    
  36 C36           25.0048    15.5277    -8.9198 C.2     
  37 C37           25.0906    16.9998    -8.8169 C.ar    
  38 C38           23.7619    17.4566    -8.7055 C.ar    
  39 C39           22.9136    16.2468    -8.7445 C.2     
  40 C40           26.1350    17.9104    -8.8117 C.ar    
  41 C41           25.8651    19.2651    -8.6969 C.ar    
  42 C42           24.5620    19.7131    -8.5876 C.ar    
  43 C43           23.5072    18.8139    -8.5910 C.ar    
  44 O44           25.9465    14.7688    -9.0303 O.2     
  45 O45           21.7013    16.2285    -8.6748 O.2     
  46 C46           18.6424     3.8485    -4.8651 C.3     
  47 C47           20.1664     3.8698    -4.9992 C.3     
  48 C48            6.5340     0.7830    -1.4966 C.3     
  49 C49            6.0368     0.7693    -0.0497 C.3     
  50 C50           23.1459    13.1953    -7.5408 C.3     
  51 C51           23.2276    13.7880    -8.9490 C.3     
  52 H52           -0.9613     1.9015     0.0169 H       
  53 H53           -0.9280    -0.5530     0.0079 H       
  54 H54            1.2149    -1.7703    -0.0179 H       
  55 H55            1.1477     3.1767     0.0074 H       
  56 H56            8.4437    -0.0835    -1.0036 H       
  57 H57            8.4196     1.6962    -0.9950 H       
  58 H58            9.8643     0.8452    -5.0418 H       
  59 H59           11.9694     0.8802    -6.4457 H       
  60 H60           14.4258     0.9141    -6.5874 H       
  61 H61           14.7899     0.8983    -2.4534 H       
  62 H62           12.3465     0.8704    -2.1638 H       
  63 H63           16.5884     0.4164    -3.8032 H       
  64 H64           16.4323     0.4229    -5.5763 H       
  65 H65           16.1830     2.8898    -5.5454 H       
  66 H66           16.3392     2.8833    -3.7723 H       
  67 H67           18.6009     1.8871    -3.9751 H       
  68 H68           18.4447     1.8936    -5.7482 H       
  69 H69           20.8354     5.3224    -2.9698 H       
  70 H70           21.6368     7.6489    -2.9573 H       
  71 H71           21.2696     7.6612    -7.2401 H       
  72 H72           20.4808     5.3342    -7.1046 H       
  73 H73           22.2504     9.7530    -4.2224 H       
  74 H74           23.3318    11.1616    -8.2266 H       
  75 H75           21.6541    11.7382    -8.0813 H       
  76 H76           27.1552    17.5660    -8.8964 H       
  77 H77           26.6785    19.9755    -8.6924 H       
  78 H78           24.3644    20.7712    -8.4987 H       
  79 H79           22.4910    19.1696    -8.5054 H       
  80 H80           18.1955     4.3604    -5.7173 H       
  81 H81           18.3517     4.3540    -3.9442 H       
  82 H82           20.4571     3.3643    -5.9201 H       
  83 H83           20.6133     3.3578    -4.1470 H       
  84 H84            6.1541     1.6704    -2.0029 H       
  85 H85            6.1783    -0.1094    -2.0115 H       
  86 H86            6.3926     1.6617     0.4652 H       
  87 H87            6.4167    -0.1181     0.4567 H       
  88 H88           22.4571    13.7863    -6.9372 H       
  89 H89           24.1348    13.2098    -7.0825 H       
  90 H90           22.2388    13.7735    -9.4072 H       
  91 H91           23.9165    13.1969    -9.5525 H       
@<TRIPOS>BOND
   1    1    2 ar
   2    1    6 ar
   3    1   52 1
   4    2    3 ar
   5    2   53 1
   6    3    4 ar
   7    3   54 1
   8    4    5 ar
   9    4    7 1
  10    5    6 ar
  11    5    9 1
  12    6   55 1
  13    7    8 am
  14    7   11 2
  15    8    9 am
  16    8   49 1
  17    9   10 2
  18   12   13 1
  19   12   48 1
  20   12   56 1
  21   12   57 1
  22   13   14 1
  23   14   15 2
  24   15   16 1
  25   15   58 1
  26   16   17 ar
  27   16   21 ar
  28   17   18 ar
  29   17   59 1
  30   18   19 ar
  31   18   60 1
  32   19   20 ar
  33   19   22 1
  34   20   21 ar
  35   20   61 1
  36   21   62 1
  37   22   23 1
  38   22   63 1
  39   22   64 1
  40   23   24 1
  41   23   65 1
  42   23   66 1
  43   24   46 1
  44   24   67 1
  45   24   68 1
  46   25   26 ar
  47   25   30 ar
  48   25   47 1
  49   26   27 ar
  50   26   69 1
  51   27   28 ar
  52   27   70 1
  53   28   29 ar
  54   28   31 1
  55   29   30 ar
  56   29   71 1
  57   30   72 1
  58   31   32 2
  59   31   73 1
  60   32   33 1
  61   33   34 1
  62   34   50 1
  63   34   74 1
  64   34   75 1
  65   35   36 am
  66   35   39 am
  67   35   51 1
  68   36   37 1
  69   36   44 2
  70   37   38 ar
  71   37   40 ar
  72   38   39 1
  73   38   43 ar
  74   39   45 2
  75   40   41 ar
  76   40   76 1
  77   41   42 ar
  78   41   77 1
  79   42   43 ar
  80   42   78 1
  81   43   79 1
  82   46   47 1
  83   46   80 1
  84   46   81 1
  85   47   82 1
  86   47   83 1
  87   48   49 1
  88   48   84 1
  89   48   85 1
  90   49   86 1
  91   49   87 1
  92   50   51 1
  93   50   88 1
  94   50   89 1
  95   51   90 1
  96   51   91 1

#	End of record

