#	Name: ASD01810671
#	Creating user name:	WinNT
#	Creation time:	15. 06. 2019 19:25

#	Modifying user name:	WinNT
#	Modification time:	15. 06. 2019 19:25

#	Program:	/corina/corina34_cracker 3.40 0067  02.08.2006

@<TRIPOS>MOLECULE
ASD01810671
  64   69    0    0    0
SMALL
NO_CHARGES


@<TRIPOS>ATOM
   1 C1            -0.0096     1.3741     0.2642 C.ar    
   2 C2             0.0184     0.0680    -0.2367 C.ar    
   3 C3            -1.1656    -0.6028    -0.4927 C.ar    
   4 C4            -2.3773     0.0111    -0.2560 C.ar    
   5 C5            -2.4182     1.3157     0.2443 C.ar    
   6 C6            -1.2311     1.9957     0.5096 C.ar    
   7 C7            -3.7182     1.9708     0.4969 C.2     
   8 N8            -3.9661     2.5371     1.6945 N.am    
   9 O9            -4.5643     1.9990    -0.3756 O.2     
  10 C10           -5.2028     3.2972     1.9215 C.3     
  11 C11           -3.0077     2.4008     2.7997 C.3     
  12 C12           -3.7429     1.8477     4.0246 C.3     
  13 C13           -4.9438     2.7422     4.3407 C.3     
  14 C14           -5.9089     2.7322     3.1581 C.3     
  15 C15           -5.6498     2.2204     5.5656 C.ar    
  16 C16           -5.7700     3.0237     6.6857 C.ar    
  17 C17           -6.4154     2.5526     7.8102 C.ar    
  18 C18           -6.9480     1.2619     7.8162 C.ar    
  19 C19           -6.8231     0.4567     6.6824 C.ar    
  20 C20           -6.1798     0.9423     5.5629 C.ar    
  21 C21            1.2547     2.0901     0.5381 C.2     
  22 N22            1.3431     3.3126     1.0073 N.2     
  23 C23            2.6369     3.6569     1.1390 C.ar    
  24 C24            3.4101     2.5558     0.7159 C.ar    
  25 N25            2.5074     1.5757     0.3459 N.pl3   
  26 C26            3.3060     4.8045     1.5797 C.ar    
  27 C27            4.6898     4.8074     1.5806 C.ar    
  28 N28            5.3788     3.7485     1.1734 N.ar    
  29 C29            4.7902     2.6459     0.7507 C.ar    
  30 F30            1.2021    -0.5394    -0.4713 F       
  31 C31           -3.6611    -0.7261    -0.5380 C.3     
  32 C32           -7.6189     0.7661     8.9802 C.1     
  33 N33           -8.1511     0.3728     9.9035 N.1     
  34 N34            5.3718     5.9419     2.0163 N.3     
  35 C35            6.8311     5.7432     1.9398 C.3     
  36 C36            6.9426     7.1784     1.4065 C.3     
  37 C37            5.5054     6.9286     0.9284 C.3     
  38 H38           -1.1399    -1.6107    -0.8797 H       
  39 H39           -1.2585     3.0036     0.8966 H       
  40 H40           -4.9612     4.3472     2.0866 H       
  41 H41           -5.8547     3.2023     1.0532 H       
  42 H42           -2.2117     1.7145     2.5106 H       
  43 H43           -2.5834     3.3762     3.0379 H       
  44 H44           -4.0885     0.8354     3.8150 H       
  45 H45           -3.0660     1.8320     4.8788 H       
  46 H46           -4.5998     3.7598     4.5259 H       
  47 H47           -6.7760     3.3503     3.3909 H       
  48 H48           -6.2324     1.7101     2.9611 H       
  49 H49           -5.3572     4.0217     6.6798 H       
  50 H50           -6.5082     3.1806     8.6840 H       
  51 H51           -7.2325    -0.5427     6.6805 H       
  52 H52           -6.0825     0.3206     4.6852 H       
  53 H53            2.7221     0.6919     0.0085 H       
  54 H54            2.7532     5.6707     1.9121 H       
  55 H55            5.3903     1.8077     0.4286 H       
  56 H56           -4.0200    -1.1944     0.3785 H       
  57 H57           -4.4100    -0.0243    -0.9049 H       
  58 H58           -3.4817    -1.4929    -1.2916 H       
  59 H59            7.3020     5.6038     2.9130 H       
  60 H60            7.1288     4.9860     1.2144 H       
  61 H61            7.0288     7.9378     2.1836 H       
  62 H62            7.6663     7.3000     0.6005 H       
  63 H63            5.4493     6.4878    -0.0669 H       
  64 H64            4.8527     7.7938     1.0443 H       
@<TRIPOS>BOND
   1    1    2 ar
   2    1   21 1
   3    1    6 ar
   4    2    3 ar
   5    2   30 1
   6    3    4 ar
   7    3   38 1
   8    4    5 ar
   9    4   31 1
  10    5    6 ar
  11    5    7 1
  12    6   39 1
  13    7    8 am
  14    7    9 2
  15    8   10 1
  16    8   11 1
  17   10   14 1
  18   10   40 1
  19   10   41 1
  20   11   12 1
  21   11   42 1
  22   11   43 1
  23   12   13 1
  24   12   44 1
  25   12   45 1
  26   13   14 1
  27   13   15 1
  28   13   46 1
  29   14   47 1
  30   14   48 1
  31   15   16 ar
  32   15   20 ar
  33   16   17 ar
  34   16   49 1
  35   17   18 ar
  36   17   50 1
  37   18   19 ar
  38   18   32 1
  39   19   20 ar
  40   19   51 1
  41   20   52 1
  42   21   22 2
  43   21   25 1
  44   22   23 1
  45   23   24 ar
  46   23   26 ar
  47   24   25 1
  48   24   29 ar
  49   25   53 1
  50   26   27 ar
  51   26   54 1
  52   27   28 ar
  53   27   34 1
  54   28   29 ar
  55   29   55 1
  56   31   56 1
  57   31   57 1
  58   31   58 1
  59   32   33 3
  60   34   35 1
  61   34   37 1
  62   35   36 1
  63   35   59 1
  64   35   60 1
  65   36   37 1
  66   36   61 1
  67   36   62 1
  68   37   63 1
  69   37   64 1

#	End of record

