#	Name: ASD01910668
#	Creating user name:	WinNT
#	Creation time:	15. 06. 2019 19:56

#	Modifying user name:	WinNT
#	Modification time:	15. 06. 2019 19:56

#	Program:	/corina/corina34_cracker 3.40 0067  02.08.2006

@<TRIPOS>MOLECULE
ASD01910668
  40   42    0    0    0
SMALL
NO_CHARGES


@<TRIPOS>ATOM
   1 C1            -0.0158     1.3865    -0.0024 C.ar    
   2 C2             0.0025    -0.0047     0.0094 C.ar    
   3 C3             1.2143    -0.6882     0.0211 C.ar    
   4 C4             2.4009     0.0104     0.0209 C.ar    
   5 C5             2.3868     1.4090     0.0090 C.ar    
   6 C6             1.1665     2.0924    -0.0027 C.ar    
   7 C7             3.6186     2.1393     0.0093 C.1     
   8 C8             4.6285     2.7380     0.0095 C.1     
   9 C9             5.8603     3.4683     0.0098 C.ar    
  10 C10            5.8430     4.8685    -0.0021 C.ar    
  11 C11            7.0176     5.5612    -0.0012 C.ar    
  12 C12            8.2366     4.8724     0.0123 C.ar    
  13 C13            8.2563     3.4772     0.0232 C.ar    
  14 C14            7.0801     2.7816     0.0278 C.ar    
  15 C15            7.0255     7.0670    -0.0150 C.3     
  16 C16            8.2125     7.5878     0.7919 C.3     
  17 N17            9.4559     6.9525     0.3641 N.am    
  18 C18            9.4914     5.6509     0.0157 C.2     
  19 O19           10.5435     5.1243    -0.2915 O.2     
  20 N20           -1.1966    -0.7156     0.0101 N.pl3   
  21 C21           -2.4708    -0.0026     0.1293 C.3     
  22 C22           -1.1826    -2.1757    -0.1085 C.3     
  23 H23           -0.9584     1.9134    -0.0159 H       
  24 H24            1.2242    -1.7681     0.0306 H       
  25 H25            3.3411    -0.5209     0.0303 H       
  26 H26            1.1515     3.1722    -0.0122 H       
  27 H27            4.9020     5.3983    -0.0124 H       
  28 H28            9.1981     2.9488     0.0325 H       
  29 H29            7.0915     1.7017     0.0367 H       
  30 H30            7.1043     7.4193    -1.0435 H       
  31 H31            6.0990     7.4380     0.4233 H       
  32 H32            8.2949     8.6657     0.6523 H       
  33 H33            8.0476     7.3763     1.8484 H       
  34 H34           10.2712     7.4769     0.3298 H       
  35 H35           -2.8364     0.2569    -0.8642 H       
  36 H36           -3.1992    -0.6412     0.6291 H       
  37 H37           -2.3250     0.9071     0.7118 H       
  38 H38           -0.1618    -2.5164    -0.2817 H       
  39 H39           -1.5621    -2.6187     0.8123 H       
  40 H40           -1.8134    -2.4785    -0.9442 H       
@<TRIPOS>BOND
   1    1    2 ar
   2    1    6 ar
   3    1   23 1
   4    2    3 ar
   5    2   20 1
   6    3    4 ar
   7    3   24 1
   8    4    5 ar
   9    4   25 1
  10    5    6 ar
  11    5    7 1
  12    6   26 1
  13    7    8 3
  14    8    9 1
  15    9   10 ar
  16    9   14 ar
  17   10   11 ar
  18   10   27 1
  19   11   12 ar
  20   11   15 1
  21   12   13 ar
  22   12   18 1
  23   13   14 ar
  24   13   28 1
  25   14   29 1
  26   15   16 1
  27   15   30 1
  28   15   31 1
  29   16   17 1
  30   16   32 1
  31   16   33 1
  32   17   18 am
  33   17   34 1
  34   18   19 2
  35   20   21 1
  36   20   22 1
  37   21   35 1
  38   21   36 1
  39   21   37 1
  40   22   38 1
  41   22   39 1
  42   22   40 1

#	End of record

