#	Name: ASD03082324
#	Creating user name:	WinNT
#	Creation time:	15. 06. 2019 20:27

#	Modifying user name:	WinNT
#	Modification time:	15. 06. 2019 20:27

#	Program:	/corina/corina34_cracker 3.40 0067  02.08.2006

@<TRIPOS>MOLECULE
ASD03082324
  45   48    0    0    0
SMALL
NO_CHARGES


@<TRIPOS>ATOM
   1 C1            -0.0227     1.4428     0.4562 C.ar    
   2 C2            -0.1594     0.1251     0.0410 C.ar    
   3 C3            -1.3471    -0.5513     0.2649 C.ar    
   4 C4            -2.4023     0.0926     0.9065 C.ar    
   5 C5            -2.2621     1.4078     1.3189 C.ar    
   6 C6            -1.0749     2.0803     1.1004 C.ar    
   7 O7            -1.7324    -1.8254    -0.0377 O.3     
   8 C8            -2.8838    -2.0853     0.7869 C.3     
   9 O9            -3.4494    -0.7794     1.0058 O.3     
  10 F10           -3.7937    -2.9087     0.1151 F       
  11 F11           -2.4986    -2.6640     2.0009 F       
  12 N12            1.1775     2.1268     0.2307 N.pl3   
  13 C13            1.1641     3.5046     0.0059 C.2     
  14 N14            0.0706     4.2584    -0.1170 N.2     
  15 N15            2.2262     4.2681    -0.1130 N.2     
  16 N16            1.7669     5.5775    -0.3282 N.pl3   
  17 C17            0.4167     5.5137    -0.3211 C.2     
  18 C18           -0.5094     6.6521    -0.5104 C.ar    
  19 C19           -0.3444     7.8404     0.2087 C.ar    
  20 C20           -1.2311     8.8772     0.0014 C.ar    
  21 N21           -2.2233     8.7595    -0.8596 N.ar    
  22 C22           -2.4168     7.6580    -1.5589 C.ar    
  23 C23           -1.5729     6.5720    -1.4192 C.ar    
  24 C24            2.5882     6.7756    -0.5190 C.3     
  25 C25            2.9829     6.8884    -1.9690 C.2     
  26 N26            3.7453     7.9204    -2.3815 N.am    
  27 O27            2.6145     6.0505    -2.7647 O.2     
  28 C28            4.1290     8.0300    -3.7911 C.3     
  29 C29            4.1903     8.9325    -1.4203 C.3     
  30 F30           -1.7772     5.4470    -2.1389 F       
  31 H31            0.6600    -0.3723    -0.4566 H       
  32 H32           -3.0806     1.9068     1.8164 H       
  33 H33           -0.9684     3.1055     1.4229 H       
  34 H34            2.0186     1.6435     0.2307 H       
  35 H35            0.4649     7.9448     0.9162 H       
  36 H36           -1.1111     9.7982     0.5524 H       
  37 H37           -3.2428     7.6054    -2.2528 H       
  38 H38            2.0173     7.6575    -0.2281 H       
  39 H39            3.4845     6.7036     0.0971 H       
  40 H40            3.3771     8.6080    -4.3284 H       
  41 H41            5.0945     8.5303    -3.8670 H       
  42 H42            4.2010     7.0334    -4.2267 H       
  43 H43            3.8096     8.6848    -0.4295 H       
  44 H44            5.2798     8.9559    -1.3956 H       
  45 H45            3.8126     9.9098    -1.7208 H       
@<TRIPOS>BOND
   1    1    2 ar
   2    1   12 1
   3    1    6 ar
   4    2    3 ar
   5    2   31 1
   6    3    4 ar
   7    3    7 1
   8    4    5 ar
   9    4    9 1
  10    5    6 ar
  11    5   32 1
  12    6   33 1
  13    7    8 1
  14    8    9 1
  15    8   10 1
  16    8   11 1
  17   12   13 1
  18   12   34 1
  19   13   14 1
  20   13   15 2
  21   14   17 2
  22   15   16 1
  23   16   17 1
  24   16   24 1
  25   17   18 1
  26   18   19 ar
  27   18   23 ar
  28   19   20 ar
  29   19   35 1
  30   20   21 ar
  31   20   36 1
  32   21   22 ar
  33   22   23 ar
  34   22   37 1
  35   23   30 1
  36   24   25 1
  37   24   38 1
  38   24   39 1
  39   25   26 am
  40   25   27 2
  41   26   28 1
  42   26   29 1
  43   28   40 1
  44   28   41 1
  45   28   42 1
  46   29   43 1
  47   29   44 1
  48   29   45 1

#	End of record

