#	Name: ASD01884954
#	Creating user name:	WinNT
#	Creation time:	15. 06. 2019 19:49

#	Modifying user name:	WinNT
#	Modification time:	15. 06. 2019 19:49

#	Program:	/corina/corina34_cracker 3.40 0067  02.08.2006

@<TRIPOS>MOLECULE
ASD01884954
  47   50    0    0    0
SMALL
NO_CHARGES


@<TRIPOS>ATOM
   1 C1             0.0393     1.4367    -0.2846 C.ar    
   2 C2             0.1455     0.1521    -0.7778 C.ar    
   3 C3            -0.9338    -0.4279    -1.4456 C.ar    
   4 C4            -2.1161     0.2929    -1.6122 C.ar    
   5 C5            -2.2160     1.5764    -1.1169 C.ar    
   6 C6            -1.1436     2.1499    -0.4484 C.ar    
   7 C7            -0.8238    -1.8062    -1.9769 C.2     
   8 C8            -1.6148    -2.8167    -1.4630 C.2     
   9 C9             0.0896    -2.0992    -3.0210 C.2     
  10 C10            0.1894    -3.3503    -3.5038 C.2     
  11 N11           -0.5846    -4.3599    -2.9996 N.pl3   
  12 C12           -1.4880    -4.1162    -1.9878 C.2     
  13 Cl13          -2.7472    -2.4877    -0.1889 Cl      
  14 C14           -0.6964    -5.6878    -3.2843 C.2     
  15 N15           -1.6070    -6.1862    -2.4819 N.2     
  16 N16           -2.0788    -5.2669    -1.7155 N.2     
  17 O17            0.0052    -6.3695    -4.2250 O.3     
  18 O18           -1.2460     3.4146     0.0385 O.3     
  19 C19           -2.4478     4.0382    -0.0556 C.ar    
  20 F20            1.0830     1.9998     0.3627 F       
  21 C21           -3.3998     3.9103     0.9532 C.ar    
  22 C22           -4.6093     4.5606     0.8203 C.ar    
  23 N23           -4.8688     5.2951    -0.2449 N.ar    
  24 C24           -3.9929     5.4405    -1.2212 C.ar    
  25 C25           -2.7584     4.8273    -1.1606 C.ar    
  26 C26           -4.3431     6.2917    -2.4145 C.3     
  27 C27           -5.6475     4.4299     1.9048 C.3     
  28 C28           -0.2724    -7.7651    -4.3566 C.3     
  29 C29            0.6083    -8.3586    -5.4580 C.3     
  30 H30            1.0626    -0.4032    -0.6474 H       
  31 H31           -2.9528    -0.1535    -2.1290 H       
  32 H32           -3.1316     2.1343    -1.2461 H       
  33 H33            0.7077    -1.3141    -3.4306 H       
  34 H34            0.8887    -3.5608    -4.2995 H       
  35 H35           -3.1941     3.3101     1.8271 H       
  36 H36           -2.0460     4.9506    -1.9629 H       
  37 H37           -4.0369     7.3212    -2.2289 H       
  38 H38           -3.8262     5.9121    -3.2958 H       
  39 H39           -5.4197     6.2574    -2.5817 H       
  40 H40           -5.5068     5.2225     2.6398 H       
  41 H41           -6.6424     4.5125     1.4673 H       
  42 H42           -5.5441     3.4602     2.3918 H       
  43 H43           -0.0620    -8.2680    -3.4127 H       
  44 H44           -1.3218    -7.9039    -4.6163 H       
  45 H45            1.6578    -8.2198    -5.1984 H       
  46 H46            0.3966    -9.4231    -5.5585 H       
  47 H47            0.3980    -7.8557    -6.4019 H       
@<TRIPOS>BOND
   1    1    2 ar
   2    1   20 1
   3    1    6 ar
   4    2    3 ar
   5    2   30 1
   6    3    4 ar
   7    3    7 1
   8    4    5 ar
   9    4   31 1
  10    5    6 ar
  11    5   32 1
  12    6   18 1
  13    7    8 2
  14    7    9 1
  15    8   13 1
  16    8   12 1
  17    9   10 2
  18    9   33 1
  19   10   11 1
  20   10   34 1
  21   11   12 1
  22   11   14 1
  23   12   16 2
  24   14   15 2
  25   14   17 1
  26   15   16 1
  27   17   28 1
  28   18   19 1
  29   19   21 ar
  30   19   25 ar
  31   21   22 ar
  32   21   35 1
  33   22   23 ar
  34   22   27 1
  35   23   24 ar
  36   24   25 ar
  37   24   26 1
  38   25   36 1
  39   26   37 1
  40   26   38 1
  41   26   39 1
  42   27   40 1
  43   27   41 1
  44   27   42 1
  45   28   29 1
  46   28   43 1
  47   28   44 1
  48   29   45 1
  49   29   46 1
  50   29   47 1

#	End of record

