#	Name: ASD03082268
#	Creating user name:	WinNT
#	Creation time:	15. 06. 2019 20:27

#	Modifying user name:	WinNT
#	Modification time:	15. 06. 2019 20:27

#	Program:	/corina/corina34_cracker 3.40 0067  02.08.2006

@<TRIPOS>MOLECULE
ASD03082268
  40   42    0    0    0
SMALL
NO_CHARGES


@<TRIPOS>ATOM
   1 N1            -0.0470     1.1692    -0.3459 N.am    
   2 N2             0.1497    -0.2129    -0.1919 N.2     
   3 C3             1.4099    -0.3875     0.1301 C.2     
   4 N4             2.0190     0.7997     0.1885 N.2     
   5 C5             1.1598     1.7558    -0.0952 C.2     
   6 N6             2.0172    -1.6186     0.3738 N.pl3   
   7 C7             1.2473    -2.7846     0.3995 C.ar    
   8 C8             1.8267    -4.0072     0.0877 C.ar    
   9 C9             1.0600    -5.1612     0.1149 C.ar    
  10 C10           -0.2845    -5.0925     0.4533 C.ar    
  11 C11           -0.8596    -3.8749     0.7634 C.ar    
  12 C12           -0.0976    -2.7227     0.7427 C.ar    
  13 O13            1.6240    -6.3594    -0.1902 O.3     
  14 C14            1.4498     3.2054    -0.1350 C.ar    
  15 C15           -1.1953     1.7909    -0.6798 C.2     
  16 C16            0.6621     4.1164     0.5770 C.ar    
  17 C17            0.9685     5.4603     0.5121 C.ar    
  18 N18            1.9868     5.8902    -0.2075 N.ar    
  19 C19            2.7559     5.0680    -0.8943 C.ar    
  20 C20            2.5252     3.7047    -0.8825 C.ar    
  21 N21           -2.2847     1.0661    -1.0028 N.am    
  22 F22            3.3175     2.8684    -1.5881 F       
  23 C23           -3.5328     1.7419    -1.3658 C.3     
  24 O24           -1.2483     3.0047    -0.6895 O.2     
  25 C25            0.7743    -7.5073    -0.1420 C.3     
  26 F26           -0.2793    -7.3461    -1.0481 F       
  27 F27            1.5109    -8.6473    -0.4812 F       
  28 F28            0.2595    -7.6524     1.1508 F       
  29 H29            2.9741    -1.6658     0.5255 H       
  30 H30            2.8728    -4.0587    -0.1757 H       
  31 H31           -0.8819    -5.9919     0.4741 H       
  32 H32           -1.9059    -3.8245     1.0264 H       
  33 H33           -0.5485    -1.7729     0.9894 H       
  34 H34           -0.1738     3.7729     1.1684 H       
  35 H35            0.3655     6.1705     1.0583 H       
  36 H36            3.5793     5.4642    -1.4700 H       
  37 H37           -2.2424     0.0971    -0.9950 H       
  38 H38           -3.3650     2.3695    -2.2410 H       
  39 H39           -4.2961     0.9977    -1.5933 H       
  40 H40           -3.8661     2.3613    -0.5331 H       
@<TRIPOS>BOND
   1    1    2 1
   2    1    5 1
   3    1   15 am
   4    2    3 2
   5    3    4 1
   6    3    6 1
   7    4    5 2
   8    5   14 1
   9    6    7 1
  10    6   29 1
  11    7    8 ar
  12    7   12 ar
  13    8    9 ar
  14    8   30 1
  15    9   10 ar
  16    9   13 1
  17   10   11 ar
  18   10   31 1
  19   11   12 ar
  20   11   32 1
  21   12   33 1
  22   13   25 1
  23   14   16 ar
  24   14   20 ar
  25   15   21 am
  26   15   24 2
  27   16   17 ar
  28   16   34 1
  29   17   18 ar
  30   17   35 1
  31   18   19 ar
  32   19   20 ar
  33   19   36 1
  34   20   22 1
  35   21   23 1
  36   21   37 1
  37   23   38 1
  38   23   39 1
  39   23   40 1
  40   25   26 1
  41   25   27 1
  42   25   28 1

#	End of record

