#	Name: ASD01916573
#	Creating user name:	WinNT
#	Creation time:	15. 06. 2019 20:07

#	Modifying user name:	WinNT
#	Modification time:	15. 06. 2019 20:07

#	Program:	/corina/corina34_cracker 3.40 0067  02.08.2006

@<TRIPOS>MOLECULE
ASD01916573
  35   37    0    0    0
SMALL
NO_CHARGES


@<TRIPOS>ATOM
   1 C1            -0.0171     1.4098     0.0098 C.ar    
   2 C2             0.0021    -0.0041     0.0020 C.ar    
   3 C3            -1.1913    -0.7247     0.0414 C.ar    
   4 C4            -2.3837    -0.0618     0.0742 C.ar    
   5 C5            -2.4203     1.3391     0.0659 C.ar    
   6 C6            -1.2412     2.0760     0.0357 C.ar    
   7 N7             1.1597     2.0752     0.0021 N.2     
   8 C8             2.3197     1.4676    -0.0397 C.2     
   9 N9             2.4199     0.1196    -0.1575 N.am    
  10 C10            1.3102    -0.6629    -0.0625 C.2     
  11 C11           -3.6814     2.0171     0.0886 C.1     
  12 C12           -4.7153     2.5729     0.1073 C.1     
  13 O13            1.4014    -1.8765    -0.0317 O.2     
  14 C14            3.5356     2.3450     0.1020 C.3     
  15 C15            4.7920     1.6925    -0.4307 C.3     
  16 C16            4.8964     0.2361    -0.0269 C.3     
  17 C17            3.6794    -0.5619    -0.4367 C.3     
  18 C18            6.1347    -0.3740    -0.6868 C.3     
  19 C19            5.0554     0.1529     1.4925 C.3     
  20 H20           -1.1718    -1.8045     0.0457 H       
  21 H21           -3.3068    -0.6214     0.1064 H       
  22 H22           -1.2737     3.1555     0.0314 H       
  23 H23           -5.6401     3.0700     0.1240 H       
  24 H24            3.3642     3.2743    -0.4412 H       
  25 H25            3.6803     2.5781     1.1569 H       
  26 H26            4.7909     1.7587    -1.5187 H       
  27 H27            5.6595     2.2291    -0.0464 H       
  28 H28            3.6885    -1.5122     0.0971 H       
  29 H29            3.7378    -0.7641    -1.5062 H       
  30 H30            7.0238     0.1640    -0.3580 H       
  31 H31            6.2186    -1.4228    -0.4021 H       
  32 H32            6.0438    -0.2978    -1.7703 H       
  33 H33            4.1895     0.6074     1.9739 H       
  34 H34            5.1314    -0.8921     1.7932 H       
  35 H35            5.9586     0.6840     1.7929 H       
@<TRIPOS>BOND
   1    1    2 ar
   2    1    7 1
   3    1    6 ar
   4    2    3 ar
   5    2   10 1
   6    3    4 ar
   7    3   20 1
   8    4    5 ar
   9    4   21 1
  10    5    6 ar
  11    5   11 1
  12    6   22 1
  13    7    8 2
  14    8    9 1
  15    8   14 1
  16    9   10 am
  17    9   17 1
  18   10   13 2
  19   11   12 3
  20   12   23 1
  21   14   15 1
  22   14   24 1
  23   14   25 1
  24   15   16 1
  25   15   26 1
  26   15   27 1
  27   16   17 1
  28   16   18 1
  29   16   19 1
  30   17   28 1
  31   17   29 1
  32   18   30 1
  33   18   31 1
  34   18   32 1
  35   19   33 1
  36   19   34 1
  37   19   35 1

#	End of record

