#	Name: ASD01202024
#	Creating user name:	WinNT
#	Creation time:	15. 06. 2019 19:09

#	Modifying user name:	WinNT
#	Modification time:	15. 06. 2019 19:09

#	Program:	/corina/corina34_cracker 3.40 0067  02.08.2006

@<TRIPOS>MOLECULE
ASD01202024
  47   50    0    0    0
SMALL
NO_CHARGES


@<TRIPOS>ATOM
   1 C1             0.6577     1.5806    -0.5010 C.2     
   2 C2             0.4830     0.2054    -0.3585 C.2     
   3 C3             1.9632     1.9705    -0.5702 C.2     
   4 C4            -0.4669     2.5279    -0.5763 C.2     
   5 C5             1.6381    -0.4835    -0.3157 C.2     
   6 S6             2.9983     0.6191    -0.4580 S.3     
   7 O7            -0.2518     3.7185    -0.7012 O.2     
   8 N8            -1.7347     2.0758    -0.5069 N.am    
   9 C9             1.7461    -1.9466    -0.1714 C.ar    
  10 C10           -2.7957     2.9696    -0.5780 C.2     
  11 S11           -2.6394     4.6600    -0.7601 S.3     
  12 N12           -4.0416     2.6425    -0.5217 N.2     
  13 C13           -4.3963     4.8362    -0.7411 C.2     
  14 C14           -4.9450     3.6249    -0.6049 C.2     
  15 H15           -1.9062     1.1263    -0.4073 H       
  16 C16            2.4738    -2.5037     0.9026 C.ar    
  17 C17            2.5652    -3.8945     1.0240 C.ar    
  18 C18            1.9479    -4.7077     0.0996 C.ar    
  19 C19            1.2336    -4.1591    -0.9553 C.ar    
  20 C20            1.1251    -2.7915    -1.0919 C.ar    
  21 C21            3.1289    -1.6314     1.8829 C.2     
  22 C22           -6.4662     3.7485    -0.5831 C.3     
  23 C23           -6.7635     5.1441    -1.1676 C.3     
  24 C24           -5.4666     5.9081    -0.8329 C.3     
  25 C25            4.0235    -2.2249     2.9405 C.3     
  26 O26            2.9508    -0.4320     1.8423 O.2     
  27 C27            2.4264     3.3962    -0.7248 C.3     
  28 C28            2.6160     4.0236     0.6578 C.3     
  29 H29           -0.4876    -0.2632    -0.2891 H       
  30 H30            3.1199    -4.3302     1.8419 H       
  31 H31            2.0207    -5.7809     0.1967 H       
  32 H32            0.7548    -4.8086    -1.6731 H       
  33 H33            0.5668    -2.3739    -1.9167 H       
  34 H34           -6.9178     2.9743    -1.2033 H       
  35 H35           -6.8369     3.6796     0.4396 H       
  36 H36           -6.9157     5.0914    -2.2456 H       
  37 H37           -7.6236     5.5982    -0.6754 H       
  38 H38           -5.5656     6.4238     0.1223 H       
  39 H39           -5.2291     6.6179    -1.6253 H       
  40 H40            4.0612    -3.3074     2.8188 H       
  41 H41            5.0276    -1.8127     2.8403 H       
  42 H42            3.6286    -1.9838     3.9275 H       
  43 H43            3.3731     3.4141    -1.2648 H       
  44 H44            1.6797     3.9624    -1.2814 H       
  45 H45            1.6693     4.0056     1.1978 H       
  46 H46            3.3626     3.4573     1.2145 H       
  47 H47            2.9510     5.0548     0.5460 H       
@<TRIPOS>BOND
   1    1    2 1
   2    1    3 2
   3    1    4 1
   4    2    5 2
   5    2   29 1
   6    3   27 1
   7    3    6 1
   8    4    7 2
   9    4    8 am
  10    5    9 1
  11    5    6 1
  12    8   15 1
  13    8   10 1
  14    9   16 ar
  15    9   20 ar
  16   10   12 2
  17   10   11 1
  18   11   13 1
  19   12   14 1
  20   13   14 2
  21   13   24 1
  22   14   22 1
  23   16   17 ar
  24   16   21 1
  25   17   18 ar
  26   17   30 1
  27   18   19 ar
  28   18   31 1
  29   19   20 ar
  30   19   32 1
  31   20   33 1
  32   21   25 1
  33   21   26 2
  34   22   23 1
  35   22   34 1
  36   22   35 1
  37   23   24 1
  38   23   36 1
  39   23   37 1
  40   24   38 1
  41   24   39 1
  42   25   40 1
  43   25   41 1
  44   25   42 1
  45   27   28 1
  46   27   43 1
  47   27   44 1
  48   28   45 1
  49   28   46 1
  50   28   47 1

#	End of record

