#	Name: ASD07930507
#	Creating user name:	WinNT
#	Creation time:	15. 06. 2019 21:12

#	Modifying user name:	WinNT
#	Modification time:	15. 06. 2019 21:12

#	Program:	/corina/corina34_cracker 3.40 0067  02.08.2006

@<TRIPOS>MOLECULE
ASD07930507
  45   47    0    0    0
SMALL
NO_CHARGES


@<TRIPOS>ATOM
   1 C1            -0.0343     1.4581     0.0425 C.3     
   2 N2             0.7952    -0.4133    -2.1302 N.2     
   3 N3            -0.8904    -1.7835    -1.2685 N.pl3   
   4 C4            -0.9150    -2.8271    -0.2382 C.3     
   5 C5            -1.2300    -2.1885     1.1215 C.3     
   6 S6             0.0061    -0.8913     1.4435 S.o2    
   7 N7            -0.0141    -0.0067     0.0315 N.am    
   8 C8            -0.0113    -0.7260    -1.1551 C.2     
   9 C9             0.4500    -3.5153    -0.1755 C.3     
  10 C10           -1.9765    -3.8423    -0.5755 C.ar    
  11 C11           -2.8068    -3.6380    -1.6597 C.ar    
  12 C12           -3.7847    -4.5743    -1.9703 C.ar    
  13 C13           -3.9250    -5.7139    -1.1895 C.ar    
  14 C14           -3.0923    -5.9142    -0.1058 C.ar    
  15 C15           -2.1147    -4.9822     0.1989 C.ar    
  16 O16           -0.4576     0.0117     2.4378 O.2     
  17 O17            1.3140    -1.4440     1.5004 O.2     
  18 F18           -1.3010    -5.1803     1.2590 F       
  19 N19           -4.6275    -4.3691    -3.0684 N.am    
  20 C20           -5.0471    -5.4194    -3.8013 C.2     
  21 O21           -4.6175    -6.5324    -3.5697 O.2     
  22 C22           -6.0319    -5.2172    -4.8893 C.ar    
  23 N23           -6.4976    -3.9985    -5.1375 N.ar    
  24 C24           -6.4569    -6.3052    -5.6463 C.ar    
  25 C25           -7.3808    -6.0992    -6.6630 C.ar    
  26 C26           -7.8449    -4.8091    -6.8835 C.ar    
  27 C27           -7.3726    -3.7743    -6.0937 C.ar    
  28 F28           -7.8173    -7.1297    -7.4199 F       
  29 H29            0.9882     1.8357     0.0394 H       
  30 H30           -0.5582     1.8209    -0.8419 H       
  31 H31           -0.5480     1.8077     0.9380 H       
  32 H32            1.4070     0.3331    -2.0331 H       
  33 H33           -1.4884    -1.8387    -2.0302 H       
  34 H34           -2.2270    -1.7485     1.0987 H       
  35 H35           -1.1800    -2.9460     1.9037 H       
  36 H36            1.2165    -2.7804     0.0704 H       
  37 H37            0.4311    -4.2908     0.5903 H       
  38 H38            0.6749    -3.9651    -1.1426 H       
  39 H39           -2.6962    -2.7508    -2.2655 H       
  40 H40           -4.6849    -6.4429    -1.4291 H       
  41 H41           -3.2011    -6.8004     0.5017 H       
  42 H42           -4.9098    -3.4709    -3.3020 H       
  43 H43           -6.0737    -7.2949    -5.4463 H       
  44 H44           -8.5633    -4.6140    -7.6659 H       
  45 H45           -7.7316    -2.7697    -6.2619 H       
@<TRIPOS>BOND
   1    1    7 1
   2    1   29 1
   3    1   30 1
   4    1   31 1
   5    2    8 2
   6    2   32 1
   7    3    4 1
   8    3    8 1
   9    3   33 1
  10    4    5 1
  11    4    9 1
  12    4   10 1
  13    5    6 1
  14    5   34 1
  15    5   35 1
  16    6    7 am
  17    6   16 2
  18    6   17 2
  19    7    8 1
  20    9   36 1
  21    9   37 1
  22    9   38 1
  23   10   11 ar
  24   10   15 ar
  25   11   12 ar
  26   11   39 1
  27   12   13 ar
  28   12   19 1
  29   13   14 ar
  30   13   40 1
  31   14   15 ar
  32   14   41 1
  33   15   18 1
  34   19   20 am
  35   19   42 1
  36   20   21 2
  37   20   22 1
  38   22   23 ar
  39   22   24 ar
  40   23   27 ar
  41   24   25 ar
  42   24   43 1
  43   25   26 ar
  44   25   28 1
  45   26   27 ar
  46   26   44 1
  47   27   45 1

#	End of record

