#	Name: ASD00311007
#	Creating user name:	WinNT
#	Creation time:	15. 06. 2019 18:34

#	Modifying user name:	WinNT
#	Modification time:	15. 06. 2019 18:34

#	Program:	/corina/corina34_cracker 3.40 0067  02.08.2006

@<TRIPOS>MOLECULE
ASD00311007
  33   35    0    0    0
SMALL
NO_CHARGES


@<TRIPOS>ATOM
   1 C1            -0.0158     1.3142     0.0093 C.ar    
   2 N2             0.0021    -0.0041     0.0020 N.ar    
   3 C3             1.1288    -0.6885    -0.0124 C.ar    
   4 C4             2.3501    -0.0438    -0.0206 C.ar    
   5 C5             2.3788     1.3545    -0.0133 C.ar    
   6 C6             1.1594     2.0394     0.0019 C.ar    
   7 C7             3.6714     3.5058    -0.0136 C.2     
   8 C8             3.6652     2.0898    -0.0212 C.2     
   9 C9             3.6599     6.3606     0.0018 C.ar    
  10 C10            4.8543     5.6437    -0.0130 C.ar    
  11 C11            4.8479     4.1783    -0.0208 C.2     
  12 C12            3.6707     7.7476     0.0086 C.ar    
  13 C13            4.8329     8.4578     0.0014 C.ar    
  14 C14            6.0757     7.8015    -0.0135 C.ar    
  15 C15            6.1158     6.3861    -0.0210 C.ar    
  16 O16            4.7168     1.4766    -0.0341 O.2     
  17 C17            7.2824     8.5221    -0.0207 C.ar    
  18 C18            8.4673     7.8509    -0.0347 C.ar    
  19 C19            8.5026     6.4589    -0.0430 C.ar    
  20 C20            7.3505     5.7290    -0.0354 C.ar    
  21 H21           -0.9624     1.8340     0.0165 H       
  22 H22            1.0963    -1.7680    -0.0175 H       
  23 H23            3.2692    -0.6109    -0.0320 H       
  24 H24            1.1373     3.1192     0.0076 H       
  25 H25            2.7385     4.0498    -0.0022 H       
  26 H26            2.7180     5.8323     0.0034 H       
  27 H27            5.7808     3.6343    -0.0322 H       
  28 H28            2.7309     8.2795     0.0197 H       
  29 H29            4.7990     9.5372     0.0067 H       
  30 H30            7.2700     9.6020    -0.0155 H       
  31 H31            9.3933     8.4065    -0.0402 H       
  32 H32            9.4553     5.9503    -0.0544 H       
  33 H33            7.3912     4.6498    -0.0409 H       
@<TRIPOS>BOND
   1    1    2 ar
   2    1    6 ar
   3    1   21 1
   4    2    3 ar
   5    3    4 ar
   6    3   22 1
   7    4    5 ar
   8    4   23 1
   9    5    6 ar
  10    5    8 1
  11    6   24 1
  12    7    8 1
  13    7   11 2
  14    7   25 1
  15    8   16 2
  16    9   10 ar
  17    9   12 ar
  18    9   26 1
  19   10   11 1
  20   10   15 ar
  21   11   27 1
  22   12   13 ar
  23   12   28 1
  24   13   14 ar
  25   13   29 1
  26   14   15 ar
  27   14   17 ar
  28   15   20 ar
  29   17   18 ar
  30   17   30 1
  31   18   19 ar
  32   18   31 1
  33   19   20 ar
  34   19   32 1
  35   20   33 1

#	End of record

