#	Name: ASD01913868
#	Creating user name:	WinNT
#	Creation time:	15. 06. 2019 20:02

#	Modifying user name:	WinNT
#	Modification time:	15. 06. 2019 20:02

#	Program:	/corina/corina34_cracker 3.40 0067  02.08.2006

@<TRIPOS>MOLECULE
ASD01913868
  40   43    0    0    0
SMALL
NO_CHARGES


@<TRIPOS>ATOM
   1 C1            -0.0173     1.4278     0.0099 C.ar    
   2 C2             0.0021    -0.0041     0.0020 C.1     
   3 C3             0.0180    -1.1779    -0.0044 C.1     
   4 C4             0.0374    -2.6098    -0.0123 C.ar    
   5 C5            -1.1615    -3.3383    -0.0048 C.ar    
   6 C6             0.1560    -5.3344    -0.0290 C.ar    
   7 N7             1.2706    -4.6189    -0.0412 N.ar    
   8 C8             1.2501    -3.3022    -0.0335 C.ar    
   9 C9            -1.0911    -4.7169    -0.0133 C.ar    
  10 C10            1.1812     2.1463     0.0023 C.ar    
  11 C11            1.1547     3.5252     0.0095 C.ar    
  12 C12           -1.2350     2.1134     0.0194 C.ar    
  13 N13            0.2331    -6.7251    -0.0380 N.am    
  14 C14           -0.0549     4.1972     0.0246 C.ar    
  15 C15           -1.2458     3.4925     0.0264 C.ar    
  16 C16           -0.8102    -7.5960    -0.1235 C.2     
  17 O17           -0.3974    -8.8961    -0.0895 O.3     
  18 C18            0.9521    -8.8621    -0.5864 C.3     
  19 C19            1.4371    -7.5228     0.0353 C.3     
  20 C20            1.9542    -9.9114    -0.1599 C.3     
  21 O21            3.2047    -9.5354    -0.7729 O.3     
  22 C22            3.7179    -8.2460    -0.4575 C.3     
  23 C23            2.6862    -7.1319    -0.7165 C.3     
  24 O24           -1.9726    -7.2552    -0.2184 O.2     
  25 H25           -2.1160    -2.8331     0.0078 H       
  26 H26            2.1798    -2.7527    -0.0440 H       
  27 H27           -1.9938    -5.3097    -0.0076 H       
  28 H28            2.1260     1.6231    -0.0088 H       
  29 H29            2.0801     4.0818     0.0036 H       
  30 H30           -2.1652     1.5647     0.0208 H       
  31 H31           -0.0696     5.2771     0.0305 H       
  32 H32           -2.1861     4.0237     0.0383 H       
  33 H33            0.9432    -8.7784    -1.6732 H       
  34 H34            1.6916    -7.6854     1.0827 H       
  35 H35            2.0543    -9.9160     0.9255 H       
  36 H36            1.6427   -10.8941    -0.5139 H       
  37 H37            4.0096    -8.2289     0.5926 H       
  38 H38            4.5993    -8.0569    -1.0703 H       
  39 H39            2.4786    -7.0558    -1.7839 H       
  40 H40            3.0610    -6.1805    -0.3390 H       
@<TRIPOS>BOND
   1    1    2 1
   2    1   10 ar
   3    1   12 ar
   4    2    3 3
   5    3    4 1
   6    4    5 ar
   7    4    8 ar
   8    5    9 ar
   9    5   25 1
  10    6    7 ar
  11    6   13 1
  12    6    9 ar
  13    7    8 ar
  14    8   26 1
  15    9   27 1
  16   10   11 ar
  17   10   28 1
  18   11   14 ar
  19   11   29 1
  20   12   15 ar
  21   12   30 1
  22   13   16 am
  23   13   19 1
  24   14   15 ar
  25   14   31 1
  26   15   32 1
  27   16   17 1
  28   16   24 2
  29   17   18 1
  30   18   19 1
  31   18   20 1
  32   18   33 1
  33   19   23 1
  34   19   34 1
  35   20   21 1
  36   20   35 1
  37   20   36 1
  38   21   22 1
  39   22   23 1
  40   22   37 1
  41   22   38 1
  42   23   39 1
  43   23   40 1

#	End of record

