#	Name: ASD02560251
#	Creating user name:	WinNT
#	Creation time:	15. 06. 2019 20:24

#	Modifying user name:	WinNT
#	Modification time:	15. 06. 2019 20:24

#	Program:	/corina/corina34_cracker 3.40 0067  02.08.2006

@<TRIPOS>MOLECULE
ASD02560251
  48   50    0    0    0
SMALL
NO_CHARGES


@<TRIPOS>ATOM
   1 N1             0.4639     1.3221    -0.0981 N.ar    
   2 C2             0.4524    -0.0062    -0.0970 C.ar    
   3 C3             1.6471    -0.6916     0.1172 C.ar    
   4 C4             2.7991     0.0450     0.3205 C.ar    
   5 N5             2.7309     1.3680     0.3053 N.ar    
   6 C6             1.5849     1.9857     0.0998 C.ar    
   7 O7            -0.7031    -0.6845    -0.3006 O.3     
   8 C8            -1.8368     0.0343    -0.5036 C.ar    
   9 C9            -4.1505     1.5017    -0.9179 C.ar    
  10 C10           -3.7742     1.1376     0.3778 C.ar    
  11 C11           -2.6230     0.4088     0.5794 C.ar    
  12 C12           -2.2048     0.3983    -1.7933 C.ar    
  13 C13           -3.3539     1.1279    -2.0037 C.ar    
  14 C14           -2.2157     0.0164     1.9763 C.3     
  15 C15           -1.3450    -0.0053    -2.9633 C.3     
  16 C16           -5.3466     2.2594    -1.1321 C.1     
  17 N17           -6.2954     2.8605    -1.3020 N.1     
  18 S18            1.5510     3.7473     0.0891 S.o2    
  19 C19            1.2341     4.2045     1.8157 C.3     
  20 C20            1.1821     5.7058     1.9363 C.2     
  21 N21            0.9569     6.2780     3.1356 N.am    
  22 C22            1.0053     7.6703     3.2666 C.ar    
  23 O23            1.3429     6.3990     0.9542 O.2     
  24 C24            1.5555     9.6175     4.5533 C.ar    
  25 C25            1.5087     8.2429     4.4273 C.ar    
  26 C26            0.5553     8.4824     2.2339 C.ar    
  27 C27            0.6049     9.8563     2.3661 C.ar    
  28 C28            1.1019    10.4234     3.5253 C.ar    
  29 O29            2.8680     4.1208    -0.2921 O.2     
  30 O30            0.4328     4.0713    -0.7258 O.2     
  31 H31            1.6720    -1.7713     0.1246 H       
  32 H32            3.7429    -0.4519     0.4900 H       
  33 H33           -4.3870     1.4244     1.2196 H       
  34 H34           -3.6411     1.4072    -3.0066 H       
  35 H35           -2.6541    -0.9502     2.2246 H       
  36 H36           -1.1293    -0.0522     2.0322 H       
  37 H37           -2.5692     0.7678     2.6823 H       
  38 H38           -1.6738    -0.9745    -3.3386 H       
  39 H39           -1.4343     0.7397    -3.7539 H       
  40 H40           -0.3051    -0.0732    -2.6438 H       
  41 H41            0.2817     3.7811     2.1347 H       
  42 H42            2.0338     3.8168     2.4468 H       
  43 H43            0.7612     5.7247     3.9079 H       
  44 H44            1.9466    10.0634     5.4559 H       
  45 H45            1.8628     7.6140     5.2308 H       
  46 H46            0.1674     8.0402     1.3282 H       
  47 H47            0.2555    10.4885     1.5632 H       
  48 H48            1.1396    11.4980     3.6262 H       
@<TRIPOS>BOND
   1    1    2 ar
   2    1    6 ar
   3    2    3 ar
   4    2    7 1
   5    3    4 ar
   6    3   31 1
   7    4    5 ar
   8    4   32 1
   9    5    6 ar
  10    6   18 1
  11    7    8 1
  12    8   12 ar
  13    8   11 ar
  14    9   10 ar
  15    9   13 ar
  16    9   16 1
  17   10   11 ar
  18   10   33 1
  19   11   14 1
  20   12   13 ar
  21   12   15 1
  22   13   34 1
  23   14   35 1
  24   14   36 1
  25   14   37 1
  26   15   38 1
  27   15   39 1
  28   15   40 1
  29   16   17 3
  30   18   19 1
  31   18   29 2
  32   18   30 2
  33   19   20 1
  34   19   41 1
  35   19   42 1
  36   20   21 am
  37   20   23 2
  38   21   22 1
  39   21   43 1
  40   22   26 ar
  41   22   25 ar
  42   24   25 ar
  43   24   28 ar
  44   24   44 1
  45   25   45 1
  46   26   27 ar
  47   26   46 1
  48   27   28 ar
  49   27   47 1
  50   28   48 1

#	End of record

