#	Name: ASD02030040
#	Creating user name:	WinNT
#	Creation time:	15. 06. 2019 20:14

#	Modifying user name:	WinNT
#	Modification time:	15. 06. 2019 20:14

#	Program:	/corina/corina34_cracker 3.40 0067  02.08.2006

@<TRIPOS>MOLECULE
ASD02030040
  13   13    0    0    0
SMALL
NO_CHARGES


@<TRIPOS>ATOM
   1 N1            -0.0162     1.3400     0.0094 N.am    
   2 C2             0.0021    -0.0041     0.0020 C.2     
   3 C3             1.4295    -0.5050    -0.0042 C.3     
   4 C4             2.2649     0.7251     0.4200 C.3     
   5 C5             1.3438     1.8917    -0.0006 C.3     
   6 O6            -0.9826    -0.7121     0.0009 O.2     
   7 H7            -0.8243     1.8763     0.0163 H       
   8 H8             1.5524    -1.3157     0.7140 H       
   9 H9             1.7143    -0.8332    -1.0039 H       
  10 H10            2.4332     0.7297     1.4970 H       
  11 H11            3.2104     0.7599    -0.1212 H       
  12 H12            1.6040     2.2356    -1.0017 H       
  13 H13            1.4235     2.7115     0.7133 H       
@<TRIPOS>BOND
   1    1    2 am
   2    1    5 1
   3    1    7 1
   4    2    3 1
   5    2    6 2
   6    3    4 1
   7    3    8 1
   8    3    9 1
   9    4    5 1
  10    4   10 1
  11    4   11 1
  12    5   12 1
  13    5   13 1

#	End of record

