#	Name: ASD01190120
#	Creating user name:	WinNT
#	Creation time:	15. 06. 2019 19:07

#	Modifying user name:	WinNT
#	Modification time:	15. 06. 2019 19:07

#	Program:	/corina/corina34_cracker 3.40 0067  02.08.2006

@<TRIPOS>MOLECULE
ASD01190120
  52   56    0    0    0
SMALL
NO_CHARGES


@<TRIPOS>ATOM
   1 C1            -0.0187     1.5258     0.0104 C.3     
   2 C2             0.5354     0.1170    -0.2114 C.3     
   3 N3             3.0960     3.1912     1.0507 N.pl3   
   4 C4             2.3783     2.0979     0.6484 C.2     
   5 C5             1.0945     2.4391     0.4551 C.2     
   6 C6             0.9808     3.8678     0.7584 C.ar    
   7 C7            -0.0746     4.7819     0.7446 C.ar    
   8 C8             0.1514     6.0841     1.0907 C.ar    
   9 C9             1.4224     6.5062     1.4563 C.ar    
  10 C10            2.4779     5.6214     1.4763 C.ar    
  11 C11            2.2705     4.2905     1.1280 C.ar    
  12 C12            4.5281     3.1908     1.3592 C.3     
  13 C13           -3.7699     3.3900    -4.2113 C.2     
  14 N14           -3.7856     2.9523    -2.9860 N.2     
  15 C15           -2.5175     2.6876    -2.5783 C.ar    
  16 C16           -1.6678     2.9942    -3.6550 C.ar    
  17 N17           -2.4896     3.4365    -4.6750 N.pl3   
  18 C18           -1.9702     2.2085    -1.3854 C.ar    
  19 C19           -0.6082     2.0421    -1.2767 C.ar    
  20 C20            0.2263     2.3464    -2.3426 C.ar    
  21 C21           -0.2973     2.8198    -3.5271 C.ar    
  22 C22           -4.9902     3.7820    -5.0040 C.3     
  23 C23           -2.0815     3.8552    -5.9494 C.ar    
  24 C24           -2.2672     5.1743    -6.3402 C.ar    
  25 C25           -1.8646     5.5848    -7.5959 C.ar    
  26 C26           -1.2760     4.6815    -8.4650 C.ar    
  27 C27           -1.0904     3.3652    -8.0771 C.ar    
  28 C28           -1.4861     2.9524    -6.8199 C.ar    
  29 F29           -0.8828     5.0849    -9.6929 F       
  30 F30            1.0828    -0.3624     0.9835 F       
  31 F31           -0.4979    -0.7309    -0.6242 F       
  32 F32            1.5282     0.1561    -1.1964 F       
  33 O33           -1.0327     1.4858     1.0165 O.3     
  34 H34            2.7846     1.1073     0.5070 H       
  35 H35           -1.0660     4.4608     0.4610 H       
  36 H36           -0.6652     6.7908     1.0796 H       
  37 H37            1.5854     7.5389     1.7273 H       
  38 H38            3.4631     5.9595     1.7617 H       
  39 H39            5.0947     3.4133     0.4550 H       
  40 H40            4.7373     3.9483     2.1146 H       
  41 H41            4.8180     2.2106     1.7377 H       
  42 H42           -2.6135     1.9701    -0.5514 H       
  43 H43            1.2932     2.2112    -2.2440 H       
  44 H44            0.3577     3.0545    -4.3531 H       
  45 H45           -5.1988     4.8407    -4.8499 H       
  46 H46           -4.8102     3.5974    -6.0630 H       
  47 H47           -5.8441     3.1913    -4.6722 H       
  48 H48           -2.7265     5.8790    -5.6628 H       
  49 H49           -2.0091     6.6109    -7.9004 H       
  50 H50           -0.6315     2.6620    -8.7564 H       
  51 H51           -1.3368     1.9269    -6.5160 H       
  52 H52           -1.4295     2.3463     1.2094 H       
@<TRIPOS>BOND
   1    1    2 1
   2    1    5 1
   3    1   19 1
   4    1   33 1
   5    2   30 1
   6    2   31 1
   7    2   32 1
   8    3    4 1
   9    3   11 1
  10    3   12 1
  11    4    5 2
  12    4   34 1
  13    5    6 1
  14    6    7 ar
  15    6   11 ar
  16    7    8 ar
  17    7   35 1
  18    8    9 ar
  19    8   36 1
  20    9   10 ar
  21    9   37 1
  22   10   11 ar
  23   10   38 1
  24   12   39 1
  25   12   40 1
  26   12   41 1
  27   13   14 2
  28   13   17 1
  29   13   22 1
  30   14   15 1
  31   15   16 ar
  32   15   18 ar
  33   16   17 1
  34   16   21 ar
  35   17   23 1
  36   18   19 ar
  37   18   42 1
  38   19   20 ar
  39   20   21 ar
  40   20   43 1
  41   21   44 1
  42   22   45 1
  43   22   46 1
  44   22   47 1
  45   23   24 ar
  46   23   28 ar
  47   24   25 ar
  48   24   48 1
  49   25   26 ar
  50   25   49 1
  51   26   27 ar
  52   26   29 1
  53   27   28 ar
  54   27   50 1
  55   28   51 1
  56   33   52 1

#	End of record

