#	Name: ASD00069107
#	Creating user name:	WinNT
#	Creation time:	15. 06. 2019 18:29

#	Modifying user name:	WinNT
#	Modification time:	15. 06. 2019 18:29

#	Program:	/corina/corina34_cracker 3.40 0067  02.08.2006

@<TRIPOS>MOLECULE
ASD00069107
  45   47    0    0    0
SMALL
NO_CHARGES


@<TRIPOS>ATOM
   1 C1            -0.1009     1.1824     0.5867 C.2     
   2 N2             0.0056     0.0013     0.0159 N.2     
   3 C3             1.2443    -0.4560     0.1834 C.2     
   4 C4             1.9492     0.4656     0.8844 C.2     
   5 N5             1.1067     1.5013     1.1419 N.pl3   
   6 C6            -1.3127     2.0204     0.6166 C.2     
   7 O7            -1.2920     3.0998     1.1767 O.2     
   8 N8            -2.4440     1.5906     0.0233 N.am    
   9 C9            -3.6180     2.3472     0.1234 C.ar    
  10 C10           -4.8617     1.7252     0.0129 C.ar    
  11 C11           -6.0224     2.4764     0.1128 C.ar    
  12 C12           -5.9485     3.8410     0.3218 C.ar    
  13 C13           -4.7122     4.4632     0.4318 C.ar    
  14 C14           -3.5466     3.7149     0.3382 C.ar    
  15 N15           -4.9377     0.3413    -0.1996 N.3     
  16 C16           -5.6652    -0.3195     0.8915 C.3     
  17 C17           -5.6030    -1.8368     0.7024 C.3     
  18 C18           -6.2260    -2.2040    -0.6473 C.3     
  19 C19           -5.4808    -1.4652    -1.7623 C.3     
  20 C20           -5.5466     0.0414    -1.5018 C.3     
  21 C21           -6.1120    -3.7135    -0.8692 C.3     
  22 N22           -6.8144    -4.0810    -2.1060 N.3     
  23 N23           -4.6411     5.8452     0.6429 N.pl3   
  24 H24            1.6232    -1.4008    -0.1775 H       
  25 H25            2.9845     0.3910     1.1826 H       
  26 H26            1.3221     2.3131     1.6271 H       
  27 H27           -2.4449     0.7572    -0.4730 H       
  28 H28           -6.9855     1.9952     0.0269 H       
  29 H29           -6.8542     4.4243     0.3993 H       
  30 H30           -2.5851     4.1984     0.4286 H       
  31 H31           -5.2096    -0.0533     1.8453 H       
  32 H32           -6.7057     0.0052     0.8832 H       
  33 H33           -4.5635    -2.1640     0.7245 H       
  34 H34           -6.1563    -2.3264     1.5038 H       
  35 H35           -7.2761    -1.9120    -0.6553 H       
  36 H36           -4.4394    -1.7865    -1.7791 H       
  37 H37           -5.9468    -1.6892    -2.7219 H       
  38 H38           -6.5876     0.3644    -1.4990 H       
  39 H39           -5.0048     0.5697    -2.2863 H       
  40 H40           -5.0610    -3.9902    -0.9524 H       
  41 H41           -6.5606    -4.2396    -0.0266 H       
  42 H42           -6.7537    -5.0739    -2.2750 H       
  43 H43           -7.7762    -3.7769    -2.0796 H       
  44 H44           -5.4553     6.3677     0.7123 H       
  45 H45           -3.7775     6.2802     0.7198 H       
@<TRIPOS>BOND
   1    1    2 2
   2    1    5 1
   3    1    6 1
   4    2    3 1
   5    3    4 2
   6    3   24 1
   7    4    5 1
   8    4   25 1
   9    5   26 1
  10    6    7 2
  11    6    8 am
  12    8    9 1
  13    8   27 1
  14    9   10 ar
  15    9   14 ar
  16   10   11 ar
  17   10   15 1
  18   11   12 ar
  19   11   28 1
  20   12   13 ar
  21   12   29 1
  22   13   14 ar
  23   13   23 1
  24   14   30 1
  25   15   16 1
  26   15   20 1
  27   16   17 1
  28   16   31 1
  29   16   32 1
  30   17   18 1
  31   17   33 1
  32   17   34 1
  33   18   19 1
  34   18   21 1
  35   18   35 1
  36   19   20 1
  37   19   36 1
  38   19   37 1
  39   20   38 1
  40   20   39 1
  41   21   22 1
  42   21   40 1
  43   21   41 1
  44   22   42 1
  45   22   43 1
  46   23   44 1
  47   23   45 1

#	End of record

