#	Name: ASD08850001
#	Creating user name:	WinNT
#	Creation time:	15. 06. 2019 21:20

#	Modifying user name:	WinNT
#	Modification time:	15. 06. 2019 21:20

#	Program:	/corina/corina34_cracker 3.40 0067  02.08.2006

@<TRIPOS>MOLECULE
ASD08850001
  53   56    0    0    0
SMALL
NO_CHARGES


@<TRIPOS>ATOM
   1 C1             3.8978     1.3697    -1.8123 C.ar    
   2 C2             3.9704    -0.0049    -1.8000 C.ar    
   3 C3             3.0894    -0.7433    -1.0057 C.ar    
   4 C4             2.1357    -0.0854    -0.2248 C.ar    
   5 C5             2.0651     1.2893    -0.2387 C.ar    
   6 C6             2.9452     2.0255    -1.0321 C.ar    
   7 C7             2.8684     3.5062    -1.0459 C.ar    
   8 C8             1.9177     4.1648    -0.2675 C.ar    
   9 C9             1.8512     5.5431    -0.2840 C.ar    
  10 C10            2.7253     6.2711    -1.0712 C.ar    
  11 C11            3.6707     5.6230    -1.8456 C.ar    
  12 C12            3.7504     4.2453    -1.8328 C.ar    
  13 C13            3.1660    -2.2181    -0.9920 C.2     
  14 O14            3.9957    -2.7902    -1.6721 O.2     
  15 N15            2.3159    -2.9299    -0.2257 N.am    
  16 C16            2.3231    -4.3270    -0.2857 C.ar    
  17 C17            3.5186    -5.0086    -0.4647 C.ar    
  18 C18            3.5215    -6.3938    -0.5238 C.ar    
  19 C19            2.3298    -7.0952    -0.4038 C.ar    
  20 C20            1.1403    -6.4145    -0.2255 C.ar    
  21 C21            1.1339    -5.0348    -0.1604 C.ar    
  22 O22            4.6903    -7.0643    -0.6995 O.3     
  23 C23            5.8187    -6.3368    -0.8965 C.ar    
  24 C24            6.3471    -6.2123    -2.1756 C.ar    
  25 C25            7.4940    -5.4750    -2.3876 C.ar    
  26 C26            8.1303    -4.8501    -1.3166 C.ar    
  27 C27            7.5969    -4.9744    -0.0180 C.ar    
  28 C28            6.4378    -5.7147     0.1811 C.ar    
  29 C29            9.3577    -4.0619    -1.5413 C.2     
  30 C30            8.2639    -4.3160     1.1257 C.2     
  31 O31           10.4166    -4.6245    -2.1558 O.3     
  32 O32            9.4132    -2.9058    -1.1723 O.2     
  33 O33            9.3345    -3.7645     0.9688 O.2     
  34 O34            7.6841    -4.3279     2.3415 O.3     
  35 H35            4.5816     1.9409    -2.4228 H       
  36 H36            4.7077    -0.5124    -2.4043 H       
  37 H37            1.4541    -0.6552     0.3893 H       
  38 H38            1.3280     1.7980     0.3648 H       
  39 H39            1.2344     3.5974     0.3469 H       
  40 H40            1.1151     6.0544     0.3186 H       
  41 H41            2.6691     7.3496    -1.0815 H       
  42 H42            4.3506     6.1965    -2.4583 H       
  43 H43            4.4915     3.7406    -2.4347 H       
  44 H44            1.6992    -2.4731     0.3675 H       
  45 H45            4.4448    -4.4611    -0.5583 H       
  46 H46            2.3321    -8.1742    -0.4501 H       
  47 H47            0.2144    -6.9627    -0.1324 H       
  48 H48            0.2030    -4.5055    -0.0207 H       
  49 H49            5.8576    -6.6956    -3.0082 H       
  50 H50            7.8993    -5.3825    -3.3844 H       
  51 H51            6.0236    -5.8141     1.1736 H       
  52 H52           11.1981    -4.0688    -2.2806 H       
  53 H53            8.1581    -3.8844     3.0582 H       
@<TRIPOS>BOND
   1    1    2 ar
   2    1    6 ar
   3    1   35 1
   4    2    3 ar
   5    2   36 1
   6    3    4 ar
   7    3   13 1
   8    4    5 ar
   9    4   37 1
  10    5    6 ar
  11    5   38 1
  12    6    7 1
  13    7    8 ar
  14    7   12 ar
  15    8    9 ar
  16    8   39 1
  17    9   10 ar
  18    9   40 1
  19   10   11 ar
  20   10   41 1
  21   11   12 ar
  22   11   42 1
  23   12   43 1
  24   13   14 2
  25   13   15 am
  26   15   16 1
  27   15   44 1
  28   16   17 ar
  29   16   21 ar
  30   17   18 ar
  31   17   45 1
  32   18   19 ar
  33   18   22 1
  34   19   20 ar
  35   19   46 1
  36   20   21 ar
  37   20   47 1
  38   21   48 1
  39   22   23 1
  40   23   24 ar
  41   23   28 ar
  42   24   25 ar
  43   24   49 1
  44   25   26 ar
  45   25   50 1
  46   26   27 ar
  47   26   29 1
  48   27   28 ar
  49   27   30 1
  50   28   51 1
  51   29   31 1
  52   29   32 2
  53   30   33 2
  54   30   34 1
  55   31   52 1
  56   34   53 1

#	End of record

