#	Name: ASD01150047
#	Creating user name:	WinNT
#	Creation time:	15. 06. 2019 19:03

#	Modifying user name:	WinNT
#	Modification time:	15. 06. 2019 19:03

#	Program:	/corina/corina34_cracker 3.40 0067  02.08.2006

@<TRIPOS>MOLECULE
ASD01150047
  53   53    0    0    0
SMALL
NO_CHARGES


@<TRIPOS>ATOM
   1 C1            -0.0167     1.3831     0.0096 C.ar    
   2 C2             0.0021    -0.0041     0.0020 C.ar    
   3 C3             1.2083    -0.6773    -0.0131 C.ar    
   4 C4             2.3962     0.0303    -0.0207 C.ar    
   5 C5             2.3801     1.4128    -0.0131 C.ar    
   6 C6             1.1765     2.0907     0.0021 C.ar    
   7 O7            -1.2021     2.0477     0.0189 O.3     
   8 C8             3.7106    -0.7066    -0.0367 C.3     
   9 C9             4.1419    -0.9488    -1.4845 C.3     
  10 C10            5.4764    -1.6969    -1.5008 C.3     
  11 C11            3.0794    -1.7854    -2.2001 C.3     
  12 C12            4.3013     0.3939    -2.2005 C.3     
  13 O13            5.8793    -1.9231    -2.8530 O.3     
  14 C14            1.1598     3.5976     0.0098 C.3     
  15 C15            2.5964     4.1237    -0.0010 C.3     
  16 C16            0.4212     4.1058    -1.2300 C.3     
  17 C17            0.4446     4.0932     1.2683 C.3     
  18 C18           -1.2922    -0.7759     0.0107 C.3     
  19 C19           -0.9916    -2.2760    -0.0003 C.3     
  20 C20           -2.0872    -0.4243     1.2698 C.3     
  21 C21           -2.1120    -0.4109    -1.2285 C.3     
  22 H22            1.2235    -1.7571    -0.0187 H       
  23 H23            3.3093     1.9633    -0.0186 H       
  24 H24           -1.5410     2.2352     0.9049 H       
  25 H25            4.4675    -0.1106     0.4731 H       
  26 H26            3.5971    -1.6632     0.4734 H       
  27 H27            6.2334    -1.1009    -0.9910 H       
  28 H28            5.3629    -2.6535    -0.9907 H       
  29 H29            2.1287    -1.2524    -2.1885 H       
  30 H30            3.3867    -1.9579    -3.2315 H       
  31 H31            2.9659    -2.7420    -1.6900 H       
  32 H32            5.0582     0.9900    -1.6907 H       
  33 H33            4.6086     0.2214    -3.2320 H       
  34 H34            3.3506     0.9270    -2.1889 H       
  35 H35            6.7194    -2.3941    -2.9396 H       
  36 H36            3.1059     3.7706    -0.8976 H       
  37 H37            2.5843     5.2136     0.0046 H       
  38 H38            3.1226     3.7617     0.8823 H       
  39 H39           -0.6023     3.7310    -1.2224 H       
  40 H40            0.4091     5.1957    -1.2244 H       
  41 H41            0.9307     3.7527    -2.1266 H       
  42 H42            0.9707     3.7312     2.1516 H       
  43 H43            0.4325     5.1831     1.2739 H       
  44 H44           -0.5789     3.7184     1.2760 H       
  45 H45           -0.4076    -2.5360     0.8825 H       
  46 H46           -1.9278    -2.8343     0.0060 H       
  47 H47           -0.4252    -2.5265    -0.8973 H       
  48 H48           -2.3014     0.6444     1.2777 H       
  49 H49           -3.0234    -0.9826     1.2761 H       
  50 H50           -1.5032    -0.6843     2.1527 H       
  51 H51           -1.5457    -0.6614    -2.1255 H       
  52 H52           -3.0482    -0.9692    -1.2222 H       
  53 H53           -2.3262     0.6578    -1.2206 H       
@<TRIPOS>BOND
   1    1    2 ar
   2    1    6 ar
   3    1    7 1
   4    2    3 ar
   5    2   18 1
   6    3    4 ar
   7    3   22 1
   8    4    5 ar
   9    4    8 1
  10    5    6 ar
  11    5   23 1
  12    6   14 1
  13    7   24 1
  14    8    9 1
  15    8   25 1
  16    8   26 1
  17    9   10 1
  18    9   11 1
  19    9   12 1
  20   10   13 1
  21   10   27 1
  22   10   28 1
  23   11   29 1
  24   11   30 1
  25   11   31 1
  26   12   32 1
  27   12   33 1
  28   12   34 1
  29   13   35 1
  30   14   15 1
  31   14   17 1
  32   14   16 1
  33   15   36 1
  34   15   37 1
  35   15   38 1
  36   16   39 1
  37   16   40 1
  38   16   41 1
  39   17   42 1
  40   17   43 1
  41   17   44 1
  42   18   19 1
  43   18   21 1
  44   18   20 1
  45   19   45 1
  46   19   46 1
  47   19   47 1
  48   20   48 1
  49   20   49 1
  50   20   50 1
  51   21   51 1
  52   21   52 1
  53   21   53 1

#	End of record

