#	Name: ASD01810766
#	Creating user name:	WinNT
#	Creation time:	15. 06. 2019 19:25

#	Modifying user name:	WinNT
#	Modification time:	15. 06. 2019 19:25

#	Program:	/corina/corina34_cracker 3.40 0067  02.08.2006

@<TRIPOS>MOLECULE
ASD01810766
  18   17    0    0    0
SMALL
NO_CHARGES


@<TRIPOS>ATOM
   1 C1            -0.1865     1.5049     0.0292 C.2     
   2 C2            -0.3754     0.0224     0.0388 C.2     
   3 O3             0.9327     1.9739     0.0209 O.2     
   4 N4            -1.2592     2.3209     0.0241 N.am    
   5 O5            -1.4890    -0.4466     0.1504 O.2     
   6 C6            -1.0774     3.7704     0.1346 C.3     
   7 C7            -2.6069     1.7584    -0.0919 C.3     
   8 N8             0.6910    -0.7936    -0.0763 N.am    
   9 N9             0.5184    -2.1486    -0.0675 N.3     
  10 H10           -0.4726     4.1254    -0.6998 H       
  11 H11           -2.0504     4.2613     0.1128 H       
  12 H12           -0.5741     4.0030     1.0730 H       
  13 H13           -2.9600     1.4550     0.8937 H       
  14 H14           -3.2802     2.5103    -0.5035 H       
  15 H15           -2.5832     0.8914    -0.7521 H       
  16 H16            1.5812    -0.4186    -0.1655 H       
  17 H17           -0.1265    -2.4356    -0.7885 H       
  18 H18            1.4021    -2.6263    -0.1616 H       
@<TRIPOS>BOND
   1    1    2 1
   2    1    3 2
   3    1    4 am
   4    2    5 2
   5    2    8 am
   6    4    6 1
   7    4    7 1
   8    6   10 1
   9    6   11 1
  10    6   12 1
  11    7   13 1
  12    7   14 1
  13    7   15 1
  14    8    9 1
  15    8   16 1
  16    9   17 1
  17    9   18 1

#	End of record

