#	Name: ASD01940526
#	Creating user name:	WinNT
#	Creation time:	15. 06. 2019 20:12

#	Modifying user name:	WinNT
#	Modification time:	15. 06. 2019 20:12

#	Program:	/corina/corina34_cracker 3.40 0067  02.08.2006

@<TRIPOS>MOLECULE
ASD01940526
  51   54    0    0    0
SMALL
NO_CHARGES


@<TRIPOS>ATOM
   1 C1            -0.9365     2.4558    -1.8150 C.ar    
   2 C2            -1.1297     1.1013    -2.0701 C.ar    
   3 C3            -0.0740     0.2069    -1.9631 C.ar    
   4 C4             1.1795     0.6636    -1.6010 C.ar    
   5 C5             1.3732     2.0321    -1.3441 C.ar    
   6 C6             0.3076     2.9237    -1.4534 C.ar    
   7 O7             2.2310    -0.1813    -1.4868 O.3     
   8 C8             3.4458     0.2643    -1.1350 C.2     
   9 N9             3.7009     1.5569    -0.8751 N.am    
  10 C10            2.7218     2.4853    -0.9600 C.2     
  11 O11            2.9468     3.6573    -0.7267 O.2     
  12 O12            4.3554    -0.5365    -1.0470 O.2     
  13 C13            5.0556     1.9657    -0.4959 C.3     
  14 C14            5.8391     2.3179    -1.7341 C.ar    
  15 C15            6.7267     1.4047    -2.2732 C.ar    
  16 C16            7.4479     1.7241    -3.4089 C.ar    
  17 C17            7.2841     2.9571    -4.0100 C.ar    
  18 C18            6.3940     3.8772    -3.4730 C.ar    
  19 C19            5.6658     3.5519    -2.3336 C.ar    
  20 F20            4.7984     4.4440    -1.8073 F       
  21 N21            6.2261     5.1262    -4.0793 N.am    
  22 O22           -2.3602     0.6516    -2.4258 O.3     
  23 S23            6.2956     5.2622    -5.7282 S.o2    
  24 C24            4.9799     4.1672    -6.3286 C.3     
  25 O25            5.9676     6.6214    -5.9818 O.2     
  26 O26            7.5727     4.7408    -6.0693 O.2     
  27 C27           -3.0044    -0.1331    -1.5397 C.2     
  28 C28           -4.2924    -0.7570    -1.9055 C.ar    
  29 O29           -2.5260    -0.3275    -0.4402 O.2     
  30 C30           -4.9627    -1.5707    -0.9898 C.ar    
  31 C31           -6.1653    -2.1497    -1.3378 C.ar    
  32 C32           -6.7075    -1.9262    -2.5911 C.ar    
  33 C33           -6.0484    -1.1213    -3.5035 C.ar    
  34 C34           -4.8481    -0.5310    -3.1664 C.ar    
  35 H35           -1.7644     3.1434    -1.9054 H       
  36 H36           -0.2314    -0.8430    -2.1618 H       
  37 H37            0.4563     3.9750    -1.2557 H       
  38 H38            5.0027     2.8346     0.1600 H       
  39 H39            5.5498     1.1461     0.0258 H       
  40 H40            6.8572     0.4399    -1.8058 H       
  41 H41            8.1407     1.0085    -3.8265 H       
  42 H42            7.8484     3.2052    -4.8968 H       
  43 H43            6.0689     5.9128    -3.5339 H       
  44 H44            4.0206     4.5009    -5.9328 H       
  45 H45            4.9530     4.1949    -7.4179 H       
  46 H46            5.1754     3.1479    -5.9958 H       
  47 H47           -4.5403    -1.7465    -0.0115 H       
  48 H48           -6.6848    -2.7793    -0.6305 H       
  49 H49           -7.6492    -2.3823    -2.8585 H       
  50 H50           -6.4769    -0.9513    -4.4801 H       
  51 H51           -4.3349     0.0973    -3.8794 H       
@<TRIPOS>BOND
   1    1    2 ar
   2    1    6 ar
   3    1   35 1
   4    2    3 ar
   5    2   22 1
   6    3    4 ar
   7    3   36 1
   8    4    5 ar
   9    4    7 1
  10    5    6 ar
  11    5   10 1
  12    6   37 1
  13    7    8 1
  14    8    9 am
  15    8   12 2
  16    9   10 am
  17    9   13 1
  18   10   11 2
  19   13   14 1
  20   13   38 1
  21   13   39 1
  22   14   15 ar
  23   14   19 ar
  24   15   16 ar
  25   15   40 1
  26   16   17 ar
  27   16   41 1
  28   17   18 ar
  29   17   42 1
  30   18   19 ar
  31   18   21 1
  32   19   20 1
  33   21   23 am
  34   21   43 1
  35   22   27 1
  36   23   24 1
  37   23   25 2
  38   23   26 2
  39   24   44 1
  40   24   45 1
  41   24   46 1
  42   27   28 1
  43   27   29 2
  44   28   30 ar
  45   28   34 ar
  46   30   31 ar
  47   30   47 1
  48   31   32 ar
  49   31   48 1
  50   32   33 ar
  51   32   49 1
  52   33   34 ar
  53   33   50 1
  54   34   51 1

#	End of record

