#	Name: ASD03930053
#	Creating user name:	WinNT
#	Creation time:	15. 06. 2019 20:47

#	Modifying user name:	WinNT
#	Modification time:	15. 06. 2019 20:47

#	Program:	/corina/corina34_cracker 3.40 0067  02.08.2006

@<TRIPOS>MOLECULE
ASD03930053
  26   28    0    0    0
SMALL
NO_CHARGES


@<TRIPOS>ATOM
   1 C1            -0.0166     1.3724     0.0096 C.ar    
   2 C2             0.0021    -0.0041     0.0020 C.ar    
   3 C3             1.1986    -0.7089    -0.0017 C.ar    
   4 C4             2.3924    -0.0478     0.0008 C.ar    
   5 C5             2.3807     1.3635    -0.0152 C.ar    
   6 C6             1.1927     2.0770     0.0018 C.ar    
   7 C7             3.6934    -0.7975     0.0517 C.3     
   8 N8             4.7878    -0.0940    -0.6230 N.am    
   9 S9             5.1673     1.4616    -0.1390 S.o2    
  10 C10            3.5638     2.2373    -0.0702 C.2     
  11 S11            1.5458     3.7990     0.0053 S.3     
  12 C12            3.2774     3.5173    -0.0565 C.2     
  13 O13            5.6509     1.3796     1.1947 O.2     
  14 O14            5.8820     2.0702    -1.2058 O.2     
  15 C15            5.5369    -0.7422    -1.7024 C.3     
  16 N16           -1.2779    -0.7472    -0.0018 N.pl3   
  17 O17           -2.3342    -0.1408     0.0018 O.2     
  18 O18           -1.2750    -1.9652    -0.0085 O.2     
  19 H19           -0.9566     1.9042     0.0169 H       
  20 H20            1.1843    -1.7888    -0.0062 H       
  21 H21            3.9675    -0.9539     1.0950 H       
  22 H22            3.5566    -1.7697    -0.4220 H       
  23 H23            4.0178     4.3032    -0.0799 H       
  24 H24            5.0574    -0.5272    -2.6574 H       
  25 H25            6.5583    -0.3620    -1.7150 H       
  26 H26            5.5522    -1.8196    -1.5379 H       
@<TRIPOS>BOND
   1    1    2 ar
   2    1    6 ar
   3    1   19 1
   4    2    3 ar
   5    2   16 1
   6    3    4 ar
   7    3   20 1
   8    4    5 ar
   9    4    7 1
  10    5    6 ar
  11    5   10 1
  12    6   11 1
  13    7    8 1
  14    7   21 1
  15    7   22 1
  16    8    9 am
  17    8   15 1
  18    9   10 1
  19    9   13 2
  20    9   14 2
  21   10   12 2
  22   11   12 1
  23   12   23 1
  24   15   24 1
  25   15   25 1
  26   15   26 1
  27   16   17 2
  28   16   18 2

#	End of record

