#	Name: ASD01120359
#	Creating user name:	WinNT
#	Creation time:	15. 06. 2019 18:59

#	Modifying user name:	WinNT
#	Modification time:	15. 06. 2019 18:59

#	Program:	/corina/corina34_cracker 3.40 0067  02.08.2006

@<TRIPOS>MOLECULE
ASD01120359
  40   42    0    0    0
SMALL
NO_CHARGES


@<TRIPOS>ATOM
   1 C1             0.3582     1.4225     0.0287 C.ar    
   2 C2             0.3047     0.0400     0.1088 C.ar    
   3 C3             1.4604    -0.7095     0.1573 C.ar    
   4 C4             2.7033    -0.0835     0.1266 C.ar    
   5 C5             2.7732     1.3203     0.0453 C.ar    
   6 C6             1.5820     2.0755    -0.0040 C.ar    
   7 N7             3.9939    -0.5578     0.1593 N.pl3   
   8 C8             4.8627     0.5153     0.1005 C.2     
   9 C9             4.1419     1.6674     0.0307 C.2     
  10 C10            4.7037     3.0636    -0.0477 C.3     
  11 C11            5.0075     3.4099    -1.5067 C.3     
  12 C12            5.4569     4.8454    -1.5992 C.2     
  13 O13            5.7792     5.3723    -2.7909 O.3     
  14 O14            5.5270     5.5220    -0.6006 O.2     
  15 C15            6.3283     0.4265     0.1120 C.2     
  16 O16            6.9991     1.4390     0.0563 O.2     
  17 O17            6.9303    -0.7781     0.1843 O.3     
  18 C18            1.6377     3.5530    -0.0891 C.ar    
  19 C19            1.2470     4.2022    -1.2596 C.ar    
  20 C20            1.3006     5.5792    -1.3329 C.ar    
  21 C21            1.7412     6.3170    -0.2487 C.ar    
  22 C22            2.1311     5.6810     0.9160 C.ar    
  23 C23            2.0765     4.3028     1.0050 C.ar    
  24 F24            2.4569     3.6818     2.1429 F       
  25 N25            1.3796    -2.1852     0.2426 N.pl3   
  26 O26            0.2931    -2.7350     0.2700 O.2     
  27 O27            2.3996    -2.8495     0.2855 O.2     
  28 H28           -0.5572     1.9941    -0.0129 H       
  29 H29           -0.6543    -0.4561     0.1340 H       
  30 H30            4.2516    -1.4913     0.2146 H       
  31 H31            3.9759     3.7710     0.3497 H       
  32 H32            5.6216     3.1193     0.5376 H       
  33 H33            5.7974     2.7572    -1.8782 H       
  34 H34            4.1088     3.2711    -2.1078 H       
  35 H35            6.0618     6.2970    -2.8001 H       
  36 H36            7.8972    -0.7860     0.1890 H       
  37 H37            0.9033     3.6283    -2.1075 H       
  38 H38            0.9980     6.0823    -2.2394 H       
  39 H39            1.7813     7.3943    -0.3122 H       
  40 H40            2.4749     6.2624     1.7587 H       
@<TRIPOS>BOND
   1    1    2 ar
   2    1    6 ar
   3    1   28 1
   4    2    3 ar
   5    2   29 1
   6    3   25 1
   7    3    4 ar
   8    4    5 ar
   9    4    7 1
  10    5    6 ar
  11    5    9 1
  12    6   18 1
  13    7    8 1
  14    7   30 1
  15    8    9 2
  16    8   15 1
  17    9   10 1
  18   10   11 1
  19   10   31 1
  20   10   32 1
  21   11   12 1
  22   11   33 1
  23   11   34 1
  24   12   13 1
  25   12   14 2
  26   13   35 1
  27   15   16 2
  28   15   17 1
  29   17   36 1
  30   18   19 ar
  31   18   23 ar
  32   19   20 ar
  33   19   37 1
  34   20   21 ar
  35   20   38 1
  36   21   22 ar
  37   21   39 1
  38   22   23 ar
  39   22   40 1
  40   23   24 1
  41   25   26 2
  42   25   27 2

#	End of record

