#	Name: ASD04910104
#	Creating user name:	WinNT
#	Creation time:	15. 06. 2019 20:55

#	Modifying user name:	WinNT
#	Modification time:	15. 06. 2019 20:55

#	Program:	/corina/corina34_cracker 3.40 0067  02.08.2006

@<TRIPOS>MOLECULE
ASD04910104
  59   61    0    0    0
SMALL
NO_CHARGES


@<TRIPOS>ATOM
   1 C1            -0.2694     1.4347     0.2405 C.2     
   2 C2            -0.2091    -0.0707     0.2044 C.3     
   3 C3             1.2518    -0.5212     0.1427 C.3     
   4 O4             0.7512     2.0809     0.2191 O.2     
   5 O5            -1.4573     2.0577     0.2909 O.3     
   6 C6             2.5031    -2.6100     0.0514 C.2     
   7 C7             2.5623    -4.0868     0.0160 C.ar    
   8 C8             3.7957    -4.7377    -0.0422 C.ar    
   9 C9             3.8440    -6.1160    -0.0745 C.ar    
  10 C10            2.6733    -6.8530    -0.0499 C.ar    
  11 C11            1.4474    -6.2141     0.0078 C.ar    
  12 C12            1.3853    -4.8365     0.0464 C.ar    
  13 O13            3.5299    -1.9599     0.0299 O.2     
  14 N14            1.3105    -1.9846     0.1076 N.am    
  15 C15            2.7337    -8.3584    -0.0864 C.3     
  16 C16            2.5543    -8.9105     1.3291 C.3     
  17 C17            2.7396   -10.4292     1.3115 C.3     
  18 C18            2.5603   -10.9813     2.7270 C.3     
  19 O19            1.6915    -8.8566    -0.9276 O.3     
  20 C20            1.9543    -9.9903    -1.6303 C.ar    
  21 C21            3.2167   -10.5632    -1.5753 C.ar    
  22 C22            3.4842   -11.7146    -2.2888 C.ar    
  23 C23            2.4897   -12.2990    -3.0614 C.ar    
  24 C24            1.2265   -11.7253    -3.1161 C.ar    
  25 C25            0.9585   -10.5770    -2.3977 C.ar    
  26 N26            2.7610   -13.4685    -3.7868 N.pl3   
  27 N27            3.9835   -14.1513    -3.8237 N.2     
  28 C28            3.8511   -15.1932    -4.6049 C.2     
  29 C29            2.5371   -15.2140    -5.0964 C.2     
  30 C30            1.8810   -14.1452    -4.5759 C.2     
  31 S31            1.8573   -16.4170    -6.1897 S.3     
  32 C32            3.2508   -17.5427    -6.4752 C.3     
  33 H33           -0.6762    -0.4747     1.1025 H       
  34 H34           -0.7390    -0.4346    -0.6759 H       
  35 H35            1.7190    -0.1172    -0.7554 H       
  36 H36            1.7817    -0.1573     1.0230 H       
  37 H37           -1.4455     3.0244     0.3125 H       
  38 H38            4.7102    -4.1635    -0.0622 H       
  39 H39            4.7977    -6.6208    -0.1196 H       
  40 H40            0.5373    -6.7952     0.0268 H       
  41 H41            0.4280    -4.3390     0.0959 H       
  42 H42            0.4911    -2.5034     0.1248 H       
  43 H43            3.7001    -8.6738    -0.4798 H       
  44 H44            3.2953    -8.4618     1.9907 H       
  45 H45            1.5537    -8.6707     1.6886 H       
  46 H46            1.9986   -10.8779     0.6499 H       
  47 H47            3.7403   -10.6690     0.9520 H       
  48 H48            3.3012   -10.5326     3.3886 H       
  49 H49            1.5596   -10.7415     3.0865 H       
  50 H50            2.6922   -12.0633     2.7145 H       
  51 H51            3.9904   -10.1083    -0.9746 H       
  52 H52            4.4670   -12.1603    -2.2462 H       
  53 H53            0.4526   -12.1795    -3.7170 H       
  54 H54           -0.0254   -10.1333    -2.4364 H       
  55 H55            4.6223   -15.9142    -4.8328 H       
  56 H56            0.8500   -13.8790    -4.7565 H       
  57 H57            4.0781   -16.9909    -6.9216 H       
  58 H58            3.5709   -17.9726    -5.5261 H       
  59 H59            2.9407   -18.3410    -7.1495 H       
@<TRIPOS>BOND
   1    1    2 1
   2    1    4 2
   3    1    5 1
   4    2    3 1
   5    2   33 1
   6    2   34 1
   7    3   14 1
   8    3   35 1
   9    3   36 1
  10    5   37 1
  11    6    7 1
  12    6   13 2
  13    6   14 am
  14    7    8 ar
  15    7   12 ar
  16    8    9 ar
  17    8   38 1
  18    9   10 ar
  19    9   39 1
  20   10   11 ar
  21   10   15 1
  22   11   12 ar
  23   11   40 1
  24   12   41 1
  25   14   42 1
  26   15   16 1
  27   15   19 1
  28   15   43 1
  29   16   17 1
  30   16   44 1
  31   16   45 1
  32   17   18 1
  33   17   46 1
  34   17   47 1
  35   18   48 1
  36   18   49 1
  37   18   50 1
  38   19   20 1
  39   20   21 ar
  40   20   25 ar
  41   21   22 ar
  42   21   51 1
  43   22   23 ar
  44   22   52 1
  45   23   24 ar
  46   23   26 1
  47   24   25 ar
  48   24   53 1
  49   25   54 1
  50   26   27 1
  51   26   30 1
  52   27   28 2
  53   28   29 1
  54   28   55 1
  55   29   30 2
  56   29   31 1
  57   30   56 1
  58   31   32 1
  59   32   57 1
  60   32   58 1
  61   32   59 1

#	End of record

