#	Name: ASD06660119
#	Creating user name:	WinNT
#	Creation time:	15. 06. 2019 21:08

#	Modifying user name:	WinNT
#	Modification time:	15. 06. 2019 21:08

#	Program:	/corina/corina34_cracker 3.40 0067  02.08.2006

@<TRIPOS>MOLECULE
ASD06660119
  77   81    0    0    0
SMALL
NO_CHARGES


@<TRIPOS>ATOM
   1 C1             0.2704     1.9454     1.0542 C.2     
   2 C2             0.0319     0.5522     0.5315 C.3     
   3 C3            -1.1078     0.5786    -0.4890 C.3     
   4 O4             1.3484     2.4702     0.9053 O.2     
   5 O5            -0.7166     2.6053     1.6804 O.3     
   6 C6             2.2768    -0.3887     0.6419 C.2     
   7 C7             3.5407    -0.8037    -0.0018 C.ar    
   8 C8             3.7799    -2.1527    -0.2716 C.ar    
   9 C9             4.9607    -2.5338    -0.8727 C.ar    
  10 C10            5.9091    -1.5814    -1.2086 C.ar    
  11 C11            5.6775    -0.2420    -0.9435 C.ar    
  12 C12            4.4976     0.1519    -0.3478 C.ar    
  13 O13            2.1619    -0.4488     1.8505 O.2     
  14 N14            1.2515     0.0564    -0.1112 N.am    
  15 C15            4.2445     1.6105    -0.0656 C.3     
  16 C16            2.7497    -3.1900     0.0940 C.3     
  17 C17            1.7338    -3.3226    -1.0424 C.3     
  18 Cl18           7.3940    -2.0690    -1.9642 Cl      
  19 C19           -1.4344    -0.8299    -0.9138 C.ar    
  20 C20           -2.3565    -1.5704    -0.1970 C.ar    
  21 C21           -2.6581    -2.8614    -0.5836 C.ar    
  22 C22           -2.0340    -3.4162    -1.6937 C.ar    
  23 C23           -1.1082    -2.6696    -2.4115 C.ar    
  24 C24           -0.8154    -1.3771    -2.0228 C.ar    
  25 N25           -2.3364    -4.7218    -2.0871 N.3     
  26 C26           -1.5667    -5.1042    -3.2778 C.3     
  27 C27           -2.0277    -6.4799    -3.7647 C.3     
  28 C28           -1.8201    -7.5070    -2.6482 C.3     
  29 C29           -2.5931    -7.0602    -1.4042 C.3     
  30 C30           -2.1157    -5.6677    -0.9858 C.3     
  31 C31           -2.3354    -8.8725    -3.1073 C.3     
  32 N32           -2.0288    -9.8783    -2.0873 N.pl3   
  33 C33           -2.3994   -11.1923    -2.2813 C.2     
  34 N34           -3.0538   -11.6685    -3.3811 N.pl3   
  35 C35           -3.2398   -13.0282    -3.1918 C.ar    
  36 C36           -2.6712   -13.3300    -1.9430 C.ar    
  37 N37           -2.1712   -12.1703    -1.4407 N.2     
  38 C38           -2.7052   -14.6442    -1.4717 C.ar    
  39 C39           -3.2941   -15.6291    -2.2334 C.ar    
  40 C40           -3.8534   -15.3258    -3.4654 C.ar    
  41 C41           -3.8287   -14.0319    -3.9449 C.ar    
  42 H42           -0.2361    -0.1053     1.3585 H       
  43 H43           -1.9887     1.0356    -0.0382 H       
  44 H44           -0.8025     1.1591    -1.3597 H       
  45 H45           -0.5162     3.4963     1.9983 H       
  46 H46            5.1469    -3.5768    -1.0819 H       
  47 H47            6.4207     0.4959    -1.2072 H       
  48 H48            1.3210     0.0484    -1.0786 H       
  49 H49            4.6204     1.8592     0.9268 H       
  50 H50            4.7564     2.2189    -0.8111 H       
  51 H51            3.1734     1.8082    -0.1085 H       
  52 H52            3.2414    -4.1493     0.2555 H       
  53 H53            2.2365    -2.8866     1.0065 H       
  54 H54            1.3139    -2.3429    -1.2705 H       
  55 H55            2.2292    -3.7207    -1.9280 H       
  56 H56            0.9347    -3.9986    -0.7383 H       
  57 H57           -2.8411    -1.1386     0.6662 H       
  58 H58           -3.3781    -3.4393    -0.0231 H       
  59 H59           -0.6212    -3.0979    -3.2751 H       
  60 H60           -0.0993    -0.7945    -2.5832 H       
  61 H61           -1.7265    -4.3679    -4.0655 H       
  62 H62           -0.5066    -5.1440    -3.0277 H       
  63 H63           -3.0845    -6.4374    -4.0281 H       
  64 H64           -1.4455    -6.7703    -4.6392 H       
  65 H65           -0.7585    -7.5780    -2.4114 H       
  66 H66           -3.6588    -7.0268    -1.6305 H       
  67 H67           -2.4148    -7.7653    -0.5923 H       
  68 H68           -1.0530    -5.7048    -0.7464 H       
  69 H69           -2.6742    -5.3407    -0.1087 H       
  70 H70           -3.4141    -8.8226    -3.2558 H       
  71 H71           -1.8519    -9.1468    -4.0449 H       
  72 H72           -1.5650    -9.6200    -1.2754 H       
  73 H73           -3.3364   -11.1509    -4.1513 H       
  74 H74           -2.2708   -14.8875    -0.5133 H       
  75 H75           -3.3202   -16.6452    -1.8685 H       
  76 H76           -4.3120   -16.1071    -4.0534 H       
  77 H77           -4.2662   -13.8021    -4.9052 H       
@<TRIPOS>BOND
   1    1    2 1
   2    1    4 2
   3    1    5 1
   4    2    3 1
   5    2   14 1
   6    2   42 1
   7    3   19 1
   8    3   43 1
   9    3   44 1
  10    5   45 1
  11    6    7 1
  12    6   13 2
  13    6   14 am
  14    7    8 ar
  15    7   12 ar
  16    8    9 ar
  17    8   16 1
  18    9   10 ar
  19    9   46 1
  20   10   11 ar
  21   10   18 1
  22   11   12 ar
  23   11   47 1
  24   12   15 1
  25   14   48 1
  26   15   49 1
  27   15   50 1
  28   15   51 1
  29   16   17 1
  30   16   52 1
  31   16   53 1
  32   17   54 1
  33   17   55 1
  34   17   56 1
  35   19   20 ar
  36   19   24 ar
  37   20   21 ar
  38   20   57 1
  39   21   22 ar
  40   21   58 1
  41   22   23 ar
  42   22   25 1
  43   23   24 ar
  44   23   59 1
  45   24   60 1
  46   25   26 1
  47   25   30 1
  48   26   27 1
  49   26   61 1
  50   26   62 1
  51   27   28 1
  52   27   63 1
  53   27   64 1
  54   28   29 1
  55   28   31 1
  56   28   65 1
  57   29   30 1
  58   29   66 1
  59   29   67 1
  60   30   68 1
  61   30   69 1
  62   31   32 1
  63   31   70 1
  64   31   71 1
  65   32   33 1
  66   32   72 1
  67   33   34 1
  68   33   37 2
  69   34   35 1
  70   34   73 1
  71   35   36 ar
  72   35   41 ar
  73   36   37 1
  74   36   38 ar
  75   38   39 ar
  76   38   74 1
  77   39   40 ar
  78   39   75 1
  79   40   41 ar
  80   40   76 1
  81   41   77 1

#	End of record

