#	Name: ASD01918139
#	Creating user name:	WinNT
#	Creation time:	15. 06. 2019 20:10

#	Modifying user name:	WinNT
#	Modification time:	15. 06. 2019 20:10

#	Program:	/corina/corina34_cracker 3.40 0067  02.08.2006

@<TRIPOS>MOLECULE
ASD01918139
  27   29    0    0    0
SMALL
NO_CHARGES


@<TRIPOS>ATOM
   1 C1            -0.0168     1.3853     0.0097 C.ar    
   2 C2             0.0021    -0.0041     0.0020 C.ar    
   3 C3             1.2197    -0.6657    -0.0132 C.ar    
   4 N4             2.3527     0.0054    -0.0199 N.ar    
   5 C5             2.3763     1.3312    -0.0130 C.ar    
   6 C6             1.1907     2.0618     0.0018 C.ar    
   7 C7             3.6789     2.0436    -0.0206 C.2     
   8 N8             4.9017     1.4730    -0.0344 N.2     
   9 C9             5.7591     2.4760    -0.0366 C.2     
  10 O10            5.0361     3.6065    -0.0242 O.3     
  11 N11            3.8530     3.3401    -0.0209 N.2     
  12 C12            7.2342     2.3739    -0.0496 C.ar    
  13 C13            7.8485     1.1198    -0.0613 C.ar    
  14 C14            9.2278     1.0224    -0.0730 C.ar    
  15 C15           10.0070     2.1651    -0.0733 C.ar    
  16 C16            9.4035     3.4248    -0.0617 C.ar    
  17 C17            8.0134     3.5285    -0.0561 C.ar    
  18 C18           10.2112     4.6073    -0.0614 C.1     
  19 N19           10.8519     5.5453    -0.0612 N.1     
  20 F20           -1.1543    -0.7025     0.0098 F       
  21 F21            9.8165    -0.1935    -0.0839 F       
  22 H22           -0.9522     1.9250     0.0170 H       
  23 H23            1.2397    -1.7455    -0.0192 H       
  24 H24            1.2132     3.1415     0.0070 H       
  25 H25            7.2450     0.2241    -0.0608 H       
  26 H26           11.0838     2.0833    -0.0821 H       
  27 H27            7.5423     4.5003    -0.0516 H       
@<TRIPOS>BOND
   1    1    2 ar
   2    1    6 ar
   3    1   22 1
   4    2    3 ar
   5    2   20 1
   6    3    4 ar
   7    3   23 1
   8    4    5 ar
   9    5    6 ar
  10    5    7 1
  11    6   24 1
  12    7    8 1
  13    7   11 2
  14    8    9 2
  15    9   10 1
  16    9   12 1
  17   10   11 1
  18   12   13 ar
  19   12   17 ar
  20   13   14 ar
  21   13   25 1
  22   14   15 ar
  23   14   21 1
  24   15   16 ar
  25   15   26 1
  26   16   17 ar
  27   16   18 1
  28   17   27 1
  29   18   19 3

#	End of record

