#	Name: ASD00111027
#	Creating user name:	WinNT
#	Creation time:	15. 06. 2019 18:30

#	Modifying user name:	WinNT
#	Modification time:	15. 06. 2019 18:30

#	Program:	/corina/corina34_cracker 3.40 0067  02.08.2006

@<TRIPOS>MOLECULE
ASD00111027
  37   39    0    0    0
SMALL
NO_CHARGES


@<TRIPOS>ATOM
   1 C1             0.1325     1.1684    -0.6806 C.ar    
   2 C2             0.0695    -0.1990    -0.4128 C.ar    
   3 C3             1.2442    -0.9524    -0.3724 C.ar    
   4 C4             2.4569    -0.3337    -0.5984 C.ar    
   5 C5             2.5125     1.0145    -0.8624 C.ar    
   6 C6             1.3545     1.7709    -0.9049 C.ar    
   7 C7             3.7341    -1.1471    -0.5536 C.3     
   8 C8             4.2936    -1.2429    -1.9764 C.3     
   9 N9             5.1012    -0.0767    -2.2945 N.3     
  10 C10            4.3936     1.1831    -2.4540 C.3     
  11 C11            3.8517     1.6788    -1.1094 C.3     
  12 C12            3.6736     3.1977    -1.1536 C.3     
  13 C13           -1.2379    -0.8489    -0.1719 C.2     
  14 C14           -2.4610    -0.3720    -0.5505 C.2     
  15 C15           -3.4258    -1.2876    -0.1300 C.2     
  16 N16           -2.8241    -2.2787     0.4773 N.2     
  17 N17           -1.4444    -2.0369     0.4634 N.pl3   
  18 C18           -0.4099    -2.9008     1.0376 C.3     
  19 H19           -0.7739     1.7545    -0.7168 H       
  20 H20            1.2042    -2.0117    -0.1655 H       
  21 H21            1.4063     2.8294    -1.1134 H       
  22 H22            4.4600    -0.6558     0.0943 H       
  23 H23            3.5201    -2.1465    -0.1749 H       
  24 H24            4.9089    -2.1388    -2.0600 H       
  25 H25            3.4665    -1.3098    -2.6831 H       
  26 H26            5.8688     0.0191    -1.6467 H       
  27 H27            5.0763     1.9285    -2.8619 H       
  28 H28            3.5629     1.0426    -3.1455 H       
  29 H29            4.5464     1.4128    -0.3128 H       
  30 H30            2.9705     3.4583    -1.9447 H       
  31 H31            3.2880     3.5463    -0.1955 H       
  32 H32            4.6353     3.6707    -1.3519 H       
  33 H33           -2.6477     0.5502    -1.0807 H       
  34 H34           -4.4912    -1.1940    -0.2799 H       
  35 H35           -0.0050    -3.5488     0.2602 H       
  36 H36            0.3894    -2.2854     1.4505 H       
  37 H37           -0.8445    -3.5110     1.8293 H       
@<TRIPOS>BOND
   1    1    2 ar
   2    1    6 ar
   3    1   19 1
   4    2    3 ar
   5    2   13 1
   6    3    4 ar
   7    3   20 1
   8    4    5 ar
   9    4    7 1
  10    5    6 ar
  11    5   11 1
  12    6   21 1
  13    7    8 1
  14    7   22 1
  15    7   23 1
  16    8    9 1
  17    8   24 1
  18    8   25 1
  19    9   10 1
  20    9   26 1
  21   10   11 1
  22   10   27 1
  23   10   28 1
  24   11   12 1
  25   11   29 1
  26   12   30 1
  27   12   31 1
  28   12   32 1
  29   13   14 2
  30   13   17 1
  31   14   15 1
  32   14   33 1
  33   15   16 2
  34   15   34 1
  35   16   17 1
  36   17   18 1
  37   18   35 1
  38   18   36 1
  39   18   37 1

#	End of record

