#	Name: ASD07930423
#	Creating user name:	WinNT
#	Creation time:	15. 06. 2019 21:12

#	Modifying user name:	WinNT
#	Modification time:	15. 06. 2019 21:12

#	Program:	/corina/corina34_cracker 3.40 0067  02.08.2006

@<TRIPOS>MOLECULE
ASD07930423
  47   49    0    0    0
SMALL
NO_CHARGES


@<TRIPOS>ATOM
   1 N1            -0.0202     1.3052    -0.0069 N.2     
   2 N2            -1.1711    -0.7286     0.0032 N.pl3   
   3 C3            -1.3933    -1.7678    -1.0076 C.3     
   4 C4            -0.2700    -2.8100    -0.9173 C.3     
   5 S5             1.3233    -1.9506    -1.1099 S.o2    
   6 N6             1.1982    -0.6969    -0.0193 N.am    
   7 C7            -0.0006     0.0020    -0.0075 C.2     
   8 C8             2.2991    -0.3500     0.8827 C.3     
   9 C9            -1.3918    -1.1345    -2.4004 C.3     
  10 C10           -2.7209    -2.4361    -0.7590 C.ar    
  11 C11           -2.9224    -3.7651    -1.1052 C.ar    
  12 C12           -4.1512    -4.3478    -0.8640 C.ar    
  13 N13           -5.1302    -3.6579    -0.3114 N.ar    
  14 C14           -4.9771    -2.3887     0.0328 C.ar    
  15 C15           -3.7651    -1.7402    -0.1752 C.ar    
  16 O16            2.3899    -2.7490    -0.6159 O.2     
  17 O17            1.4032    -1.3146    -2.3781 O.2     
  18 N18           -6.0386    -1.6982     0.6134 N.am    
  19 C19           -7.2461    -2.2867     0.7228 C.2     
  20 O20           -7.4348    -3.3820     0.2315 O.2     
  21 C21           -8.3431    -1.5985     1.4417 C.ar    
  22 N22           -8.1309    -0.4022     1.9762 N.ar    
  23 C23           -9.0779     0.2427     2.6221 C.ar    
  24 C24          -10.3410    -0.3077     2.7690 C.ar    
  25 C25          -10.6059    -1.5555     2.2262 C.ar    
  26 C26           -9.5908    -2.2097     1.5464 C.ar    
  27 C27          -11.4161     0.4426     3.5120 C.3     
  28 F28          -10.9063     1.6659     3.9604 F       
  29 F29          -12.4991     0.6740     2.6572 F       
  30 F30          -11.8411    -0.3154     4.6084 F       
  31 H31            0.8124     1.8029    -0.0149 H       
  32 H32           -1.8476    -0.5525     0.6756 H       
  33 H33           -0.3054    -3.3053     0.0530 H       
  34 H34           -0.3881    -3.5473    -1.7114 H       
  35 H35            2.9443     0.3856     0.4025 H       
  36 H36            1.8953     0.0679     1.8049 H       
  37 H37            2.8769    -1.2455     1.1120 H       
  38 H38           -0.4304    -0.6533    -2.5797 H       
  39 H39           -1.5570    -1.9073    -3.1511 H       
  40 H40           -2.1871    -0.3917    -2.4626 H       
  41 H41           -2.1267    -4.3374    -1.5588 H       
  42 H42           -4.3126    -5.3816    -1.1317 H       
  43 H43           -3.6429    -0.7048     0.1065 H       
  44 H44           -5.9086    -0.7937     0.9391 H       
  45 H45           -8.8680     1.2145     3.0441 H       
  46 H46          -11.5824    -2.0057     2.3272 H       
  47 H47           -9.7621    -3.1830     1.1108 H       
@<TRIPOS>BOND
   1    1    7 2
   2    1   31 1
   3    2    3 1
   4    2    7 1
   5    2   32 1
   6    3    4 1
   7    3    9 1
   8    3   10 1
   9    4    5 1
  10    4   33 1
  11    4   34 1
  12    5    6 am
  13    5   16 2
  14    5   17 2
  15    6    7 1
  16    6    8 1
  17    8   35 1
  18    8   36 1
  19    8   37 1
  20    9   38 1
  21    9   39 1
  22    9   40 1
  23   10   11 ar
  24   10   15 ar
  25   11   12 ar
  26   11   41 1
  27   12   13 ar
  28   12   42 1
  29   13   14 ar
  30   14   15 ar
  31   14   18 1
  32   15   43 1
  33   18   19 am
  34   18   44 1
  35   19   20 2
  36   19   21 1
  37   21   22 ar
  38   21   26 ar
  39   22   23 ar
  40   23   24 ar
  41   23   45 1
  42   24   25 ar
  43   24   27 1
  44   25   26 ar
  45   25   46 1
  46   26   47 1
  47   27   28 1
  48   27   29 1
  49   27   30 1

#	End of record

