#	Name: ASD01900411
#	Creating user name:	WinNT
#	Creation time:	15. 06. 2019 19:51

#	Modifying user name:	WinNT
#	Modification time:	15. 06. 2019 19:51

#	Program:	/corina/corina34_cracker 3.40 0067  02.08.2006

@<TRIPOS>MOLECULE
ASD01900411
  36   38    0    0    0
SMALL
NO_CHARGES


@<TRIPOS>ATOM
   1 N1            -0.0162     1.3436     0.0094 N.am    
   2 C2            -0.1463     0.0022     0.0233 C.2     
   3 O3             0.8381    -0.7052    -0.0718 O.2     
   4 N4            -1.3676    -0.5552     0.1425 N.am    
   5 C5            -2.7580    -2.6935     0.2795 C.ar    
   6 C6            -2.4079    -4.0569     0.2467 C.ar    
   7 C7            -3.4148    -5.0168     0.3407 C.ar    
   8 C8            -4.7206    -4.5842     0.4628 C.ar    
   9 C9            -4.9936    -3.2227     0.4884 C.ar    
  10 N10           -4.0332    -2.3311     0.3984 N.ar    
  11 N11           -0.5312    -2.8179     0.0714 N.2     
  12 N12           -1.0453    -4.1178     0.1193 N.pl3   
  13 C13           -1.5028    -1.9490     0.1569 C.2     
  14 C14            1.2575     1.9229    -0.0005 C.ar    
  15 C15            1.4798     3.1034    -0.6977 C.ar    
  16 C16            2.7379     3.6725    -0.7056 C.ar    
  17 C17            3.7761     3.0683    -0.0201 C.ar    
  18 C18            3.5583     1.8929     0.6745 C.ar    
  19 C19            2.3006     1.3218     0.6914 C.ar    
  20 C20            5.1479     3.6922    -0.0308 C.3     
  21 C21            2.9800     4.9531    -1.4622 C.3     
  22 H22           -0.8055     1.9073     0.0023 H       
  23 H23           -2.1530     0.0090     0.2183 H       
  24 H24           -3.1798    -6.0707     0.3183 H       
  25 H25           -5.5252    -5.3007     0.5376 H       
  26 H26           -6.0167    -2.8902     0.5837 H       
  27 H27           -0.5208    -4.9323     0.0705 H       
  28 H28            0.6695     3.5755    -1.2335 H       
  29 H29            4.3711     1.4233     1.2085 H       
  30 H30            2.1298     0.4064     1.2384 H       
  31 H31            5.2390     4.3839     0.8066 H       
  32 H32            5.9029     2.9112     0.0592 H       
  33 H33            5.2939     4.2327    -0.9660 H       
  34 H34            2.7986     5.8034    -0.8048 H       
  35 H35            4.0118     4.9785    -1.8128 H       
  36 H36            2.3047     5.0037    -2.3164 H       
@<TRIPOS>BOND
   1    1    2 am
   2    1   14 1
   3    1   22 1
   4    2    3 2
   5    2    4 am
   6    4   13 1
   7    4   23 1
   8    5    6 ar
   9    5   10 ar
  10    5   13 1
  11    6    7 ar
  12    6   12 1
  13    7    8 ar
  14    7   24 1
  15    8    9 ar
  16    8   25 1
  17    9   10 ar
  18    9   26 1
  19   11   12 1
  20   11   13 2
  21   12   27 1
  22   14   15 ar
  23   14   19 ar
  24   15   16 ar
  25   15   28 1
  26   16   17 ar
  27   16   21 1
  28   17   18 ar
  29   17   20 1
  30   18   19 ar
  31   18   29 1
  32   19   30 1
  33   20   31 1
  34   20   32 1
  35   20   33 1
  36   21   34 1
  37   21   35 1
  38   21   36 1

#	End of record

