#	Name: ASD03090455
#	Creating user name:	WinNT
#	Creation time:	15. 06. 2019 20:28

#	Modifying user name:	WinNT
#	Modification time:	15. 06. 2019 20:28

#	Program:	/corina/corina34_cracker 3.40 0067  02.08.2006

@<TRIPOS>MOLECULE
ASD03090455
  43   45    0    0    0
SMALL
NO_CHARGES


@<TRIPOS>ATOM
   1 C1             0.0372     1.5168    -0.0217 C.2     
   2 C2             0.0685     0.0102    -0.0344 C.3     
   3 O3             1.0748     2.1448    -0.0033 O.2     
   4 N4            -1.1435     2.1665    -0.0362 N.am    
   5 C5            -1.1772     3.5614     0.0913 C.ar    
   6 C6            -2.1399     4.2977    -0.5861 C.ar    
   7 C7            -2.1729     5.6724    -0.4595 C.ar    
   8 C8            -1.2441     6.3178     0.3438 C.ar    
   9 C9            -0.2817     5.5827     1.0205 C.ar    
  10 C10           -0.2515     4.2075     0.8997 C.ar    
  11 O11           -1.2768     7.6714     0.4676 O.3     
  12 C12           -2.2300     8.3733    -0.3329 C.3     
  13 C13           -2.5569     9.7162     0.3232 C.3     
  14 C14           -1.6463     8.6151    -1.7264 C.3     
  15 N15            4.3925    -1.3921    -2.1935 N.pl3   
  16 C16            5.5769    -1.7907    -1.6362 C.2     
  17 C17            5.4807    -1.7753    -0.2973 C.2     
  18 C18            4.1238    -1.3305     0.0295 C.ar    
  19 C19            3.4338    -1.1169     1.2244 C.ar    
  20 C20            2.1367    -0.6889     1.1915 C.ar    
  21 C21            1.4993    -0.4627    -0.0208 C.ar    
  22 C22            2.1613    -0.6667    -1.2115 C.ar    
  23 C23            3.4822    -1.1032    -1.2016 C.ar    
  24 H24           -0.4487    -0.3714     0.8459 H       
  25 H25           -0.4267    -0.3559    -0.9339 H       
  26 H26           -1.9700     1.6684    -0.1350 H       
  27 H27           -2.8626     3.7955    -1.2121 H       
  28 H28           -2.9216     6.2453    -0.9864 H       
  29 H29            0.4415     6.0859     1.6451 H       
  30 H30            0.4950     3.6350     1.4301 H       
  31 H31           -3.1402     7.7796    -0.4183 H       
  32 H32           -1.6467    10.3099     0.4086 H       
  33 H33           -3.2839    10.2516    -0.2874 H       
  34 H34           -2.9727     9.5439     1.3159 H       
  35 H35           -0.7362     9.2088    -1.6410 H       
  36 H36           -1.4135     7.6583    -2.1938 H       
  37 H37           -2.3734     9.1504    -2.3370 H       
  38 H38            4.2209    -1.3199    -3.1455 H       
  39 H39            6.4584    -2.0757    -2.1912 H       
  40 H40            6.2566    -2.0405     0.4056 H       
  41 H41            3.9232    -1.2908     2.1713 H       
  42 H42            1.6034    -0.5242     2.1161 H       
  43 H43            1.6566    -0.4883    -2.1495 H       
@<TRIPOS>BOND
   1    1    2 1
   2    1    3 2
   3    1    4 am
   4    2   21 1
   5    2   24 1
   6    2   25 1
   7    4    5 1
   8    4   26 1
   9    5    6 ar
  10    5   10 ar
  11    6    7 ar
  12    6   27 1
  13    7    8 ar
  14    7   28 1
  15    8    9 ar
  16    8   11 1
  17    9   10 ar
  18    9   29 1
  19   10   30 1
  20   11   12 1
  21   12   13 1
  22   12   14 1
  23   12   31 1
  24   13   32 1
  25   13   33 1
  26   13   34 1
  27   14   35 1
  28   14   36 1
  29   14   37 1
  30   15   16 1
  31   15   23 1
  32   15   38 1
  33   16   17 2
  34   16   39 1
  35   17   18 1
  36   17   40 1
  37   18   19 ar
  38   18   23 ar
  39   19   20 ar
  40   19   41 1
  41   20   21 ar
  42   20   42 1
  43   21   22 ar
  44   22   23 ar
  45   22   43 1

#	End of record

