#	Name: ASD01208447
#	Creating user name:	WinNT
#	Creation time:	15. 06. 2019 19:09

#	Modifying user name:	WinNT
#	Modification time:	15. 06. 2019 19:09

#	Program:	/corina/corina34_cracker 3.40 0067  02.08.2006

@<TRIPOS>MOLECULE
ASD01208447
  66   68    0    0    0
SMALL
NO_CHARGES


@<TRIPOS>ATOM
   1 N1             0.7547     1.6876    -1.2053 N.am    
   2 C2             0.7186     0.3244    -1.3375 C.2     
   3 C3             1.8630    -0.1832    -0.8338 C.2     
   4 C4             2.6439     0.8911    -0.3703 C.2     
   5 C5             1.9471     2.0353    -0.6066 C.2     
   6 C6            -0.2090     2.5436    -1.5989 C.2     
   7 O7            -1.0991     2.8501    -0.8319 O.2     
   8 O8            -0.1848     3.0587    -2.8418 O.3     
   9 C9             2.3898     3.4072    -0.2805 C.ar    
  10 C10            3.6693     3.6263     0.2321 C.ar    
  11 C11            4.0803     4.9133     0.5359 C.ar    
  12 C12            3.2222     5.9844     0.3313 C.ar    
  13 C13            1.9491     5.7711    -0.1778 C.ar    
  14 C14            1.5319     4.4874    -0.4897 C.ar    
  15 O15            1.1123     6.8234    -0.3754 O.3     
  16 C16            1.5772     8.0694    -0.0963 C.ar    
  17 C17            2.4305     8.7080    -0.9848 C.ar    
  18 C18            2.9013     9.9748    -0.6988 C.ar    
  19 C19            2.5232    10.6063     0.4717 C.ar    
  20 C20            1.6730     9.9721     1.3588 C.ar    
  21 C21            1.1948     8.7076     1.0749 C.ar    
  22 S22            3.1265    12.2217     0.8339 S.o2    
  23 O23            3.0887    12.3000     2.2522 O.2     
  24 O24            4.3572    12.3026     0.1282 O.2     
  25 C25            1.8984    13.3381     0.1018 C.3     
  26 O26            5.3259     5.1276     1.0355 O.3     
  27 C27            6.1245     3.9735     1.3044 C.3     
  28 C28            7.1711     4.3138     2.3673 C.3     
  29 C29            6.8276     3.5293     0.0202 C.3     
  30 O30            8.0780     5.2884     1.8479 O.3     
  31 C31            9.1011     5.6781     2.7664 C.3     
  32 Br32          -0.6954    -0.6761    -2.0961 Br      
  33 C33           -1.2546     3.9739    -3.1970 C.3     
  34 C34           -1.2305     5.1775    -2.2527 C.3     
  35 C35           -1.0597     4.4518    -4.6373 C.3     
  36 C36           -2.6007     3.2570    -3.0752 C.3     
  37 H37            2.1315    -1.2286    -0.7934 H       
  38 H38            3.6186     0.8204     0.0895 H       
  39 H39            4.3377     2.7933     0.3921 H       
  40 H40            3.5460     6.9869     0.5692 H       
  41 H41            0.5426     4.3226    -0.8904 H       
  42 H42            2.7267     8.2149    -1.8988 H       
  43 H43            3.5655    10.4723    -1.3900 H       
  44 H44            1.3795    10.4674     2.2725 H       
  45 H45            0.5275     8.2144     1.7661 H       
  46 H46            0.9248    13.1558     0.5568 H       
  47 H47            2.1950    14.3717     0.2802 H       
  48 H48            1.8374    13.1577    -0.9714 H       
  49 H49            5.4871     3.1671     1.6672 H       
  50 H50            6.6744     4.7143     3.2511 H       
  51 H51            7.7215     3.4125     2.6369 H       
  52 H52            7.4650     4.3357    -0.3426 H       
  53 H53            7.4367     2.6490     0.2253 H       
  54 H54            6.0820     3.2869    -0.7370 H       
  55 H55            8.6445     6.1068     3.6584 H       
  56 H56            9.6916     4.8050     3.0442 H       
  57 H57            9.7475     6.4196     2.2969 H       
  58 H58           -0.2715     5.6883    -2.3394 H       
  59 H59           -2.0336     5.8646    -2.5193 H       
  60 H60           -1.3694     4.8371    -1.2266 H       
  61 H61           -1.0768     3.5943    -5.3101 H       
  62 H62           -1.8627     5.1389    -4.9040 H       
  63 H63           -0.1007     4.9626    -4.7241 H       
  64 H64           -2.7395     2.9165    -2.0491 H       
  65 H65           -3.4037     3.9440    -3.3419 H       
  66 H66           -2.6178     2.3995    -3.7480 H       
@<TRIPOS>BOND
   1    1    2 1
   2    1    5 1
   3    1    6 am
   4    2    3 2
   5    2   32 1
   6    3    4 1
   7    3   37 1
   8    4    5 2
   9    4   38 1
  10    5    9 1
  11    6    7 2
  12    6    8 1
  13    8   33 1
  14    9   10 ar
  15    9   14 ar
  16   10   11 ar
  17   10   39 1
  18   11   12 ar
  19   11   26 1
  20   12   13 ar
  21   12   40 1
  22   13   14 ar
  23   13   15 1
  24   14   41 1
  25   15   16 1
  26   16   17 ar
  27   16   21 ar
  28   17   18 ar
  29   17   42 1
  30   18   19 ar
  31   18   43 1
  32   19   20 ar
  33   19   22 1
  34   20   21 ar
  35   20   44 1
  36   21   45 1
  37   22   23 2
  38   22   24 2
  39   22   25 1
  40   25   46 1
  41   25   47 1
  42   25   48 1
  43   26   27 1
  44   27   28 1
  45   27   29 1
  46   27   49 1
  47   28   30 1
  48   28   50 1
  49   28   51 1
  50   29   52 1
  51   29   53 1
  52   29   54 1
  53   30   31 1
  54   31   55 1
  55   31   56 1
  56   31   57 1
  57   33   34 1
  58   33   36 1
  59   33   35 1
  60   34   58 1
  61   34   59 1
  62   34   60 1
  63   35   61 1
  64   35   62 1
  65   35   63 1
  66   36   64 1
  67   36   65 1
  68   36   66 1

#	End of record

