#	Name: ASD01917200
#	Creating user name:	WinNT
#	Creation time:	15. 06. 2019 20:08

#	Modifying user name:	WinNT
#	Modification time:	15. 06. 2019 20:08

#	Program:	/corina/corina34_cracker 3.40 0067  02.08.2006

@<TRIPOS>MOLECULE
ASD01917200
  58   59    0    0    0
SMALL
NO_CHARGES


@<TRIPOS>ATOM
   1 N1            -0.0169     1.3961     0.0097 N.2     
   2 N2             0.0021    -0.0041     0.0020 N.pl3   
   3 C3             1.3093    -0.4042    -0.0126 C.2     
   4 C4             2.0839     0.7387    -0.0139 C.2     
   5 C5             1.2196     1.8356     0.0003 C.2     
   6 C6             1.7982    -1.7906    -0.0240 C.2     
   7 O7             2.9931    -2.0136    -0.0367 O.2     
   8 O8             0.9214    -2.8147    -0.0204 O.3     
   9 O9             1.5968     3.1422     0.0033 O.3     
  10 C10            1.4752    -4.1568    -0.0322 C.3     
  11 C11            0.3364    -5.1786    -0.0260 C.3     
  12 C12           -1.1697    -0.8833     0.0085 C.3     
  13 C13           -1.5911    -1.1821    -1.4317 C.3     
  14 C14            0.5534     4.1186     0.0186 C.3     
  15 C15            1.1574     5.4993     0.0197 C.ar    
  16 C16            1.4227     6.1386    -1.1768 C.ar    
  17 C17            1.9768     7.4051    -1.1758 C.ar    
  18 C18            2.2652     8.0323     0.0219 C.ar    
  19 C19            1.9991     7.3933     1.2184 C.ar    
  20 C20            1.4410     6.1286     1.2174 C.ar    
  21 C21           -2.7353    -2.1978    -1.4280 C.3     
  22 N22           -2.0384     0.0551    -2.0763 N.am    
  23 O23           -2.3891     1.3131    -4.0097 O.3     
  24 C24           -2.2954     1.3732    -5.4575 C.3     
  25 C25           -3.1467     0.2594    -6.0703 C.3     
  26 C26           -2.8042     2.7311    -5.9455 C.3     
  27 C27           -0.8367     1.1925    -5.8821 C.3     
  28 C28           -1.9780     0.1761    -3.4173 C.2     
  29 O29           -1.5527    -0.7409    -4.0916 O.2     
  30 H30            3.1632     0.7774    -0.0237 H       
  31 H31            2.0801    -4.2924    -0.9287 H       
  32 H32            2.0974    -4.3009     0.8511 H       
  33 H33           -0.2685    -5.0430     0.8706 H       
  34 H34           -0.2858    -5.0345    -0.9093 H       
  35 H35            0.7522    -6.1861    -0.0348 H       
  36 H36           -0.9215    -1.8158     0.5154 H       
  37 H37           -1.9897    -0.3920     0.5324 H       
  38 H38           -0.7433    -1.5919    -1.9807 H       
  39 H39           -0.0717     3.9962    -0.8659 H       
  40 H40           -0.0542     3.9871     0.9139 H       
  41 H41            1.1973     5.6486    -2.1125 H       
  42 H42            2.1847     7.9043    -2.1106 H       
  43 H43            2.6987     9.0215     0.0227 H       
  44 H44            2.2248     7.8832     2.1541 H       
  45 H45            1.2331     5.6294     2.1522 H       
  46 H46           -3.0355    -2.4107    -2.4540 H       
  47 H47           -2.4026    -3.1183    -0.9484 H       
  48 H48           -3.5831    -1.7880    -0.8790 H       
  49 H49           -2.3779     0.7871    -1.5381 H       
  50 H50           -4.1860     0.3881    -5.7677 H       
  51 H51           -3.0764     0.3045    -7.1571 H       
  52 H52           -2.7842    -0.7080    -5.7226 H       
  53 H53           -2.1978     3.5246    -5.5089 H       
  54 H54           -2.7339     2.7762    -7.0323 H       
  55 H55           -3.8435     2.8598    -5.6430 H       
  56 H56           -0.4742     0.2252    -5.5344 H       
  57 H57           -0.7664     1.2376    -6.9689 H       
  58 H58           -0.2302     1.9861    -5.4455 H       
@<TRIPOS>BOND
   1    1    2 1
   2    1    5 2
   3    2    3 1
   4    2   12 1
   5    3    4 2
   6    3    6 1
   7    4    5 1
   8    4   30 1
   9    5    9 1
  10    6    7 2
  11    6    8 1
  12    8   10 1
  13    9   14 1
  14   10   11 1
  15   10   31 1
  16   10   32 1
  17   11   33 1
  18   11   34 1
  19   11   35 1
  20   12   13 1
  21   12   36 1
  22   12   37 1
  23   13   21 1
  24   13   22 1
  25   13   38 1
  26   14   15 1
  27   14   39 1
  28   14   40 1
  29   15   16 ar
  30   15   20 ar
  31   16   17 ar
  32   16   41 1
  33   17   18 ar
  34   17   42 1
  35   18   19 ar
  36   18   43 1
  37   19   20 ar
  38   19   44 1
  39   20   45 1
  40   21   46 1
  41   21   47 1
  42   21   48 1
  43   22   28 am
  44   22   49 1
  45   23   24 1
  46   23   28 1
  47   24   25 1
  48   24   26 1
  49   24   27 1
  50   25   50 1
  51   25   51 1
  52   25   52 1
  53   26   53 1
  54   26   54 1
  55   26   55 1
  56   27   56 1
  57   27   57 1
  58   27   58 1
  59   28   29 2

#	End of record

