#	Name: ASD02030316
#	Creating user name:	WinNT
#	Creation time:	15. 06. 2019 20:15

#	Modifying user name:	WinNT
#	Modification time:	15. 06. 2019 20:15

#	Program:	/corina/corina34_cracker 3.40 0067  02.08.2006

@<TRIPOS>MOLECULE
ASD02030316
  55   58    0    0    0
SMALL
NO_CHARGES


@<TRIPOS>ATOM
   1 N1             5.6522    -0.1340    -9.9228 N.am    
   2 C2             4.8577     0.1418   -11.1280 C.3     
   3 C3             5.5074     1.3049   -11.8878 C.3     
   4 N4             5.7622     2.4000   -10.9415 N.am    
   5 C5             6.5568     2.1242    -9.7363 C.3     
   6 C6             5.9023     0.9598    -8.9737 C.3     
   7 C7             6.1381    -1.3692    -9.6894 C.2     
   8 C8             6.2106    -1.8858    -8.3061 C.2     
   9 N9             5.7110    -1.3055    -7.2363 N.2     
  10 N10            6.7941    -3.0354    -7.9202 N.2     
  11 C11            6.6439    -3.1317    -6.6237 C.2     
  12 N12            5.9644    -2.0423    -6.2101 N.pl3   
  13 C13            5.5970    -1.7594    -4.8876 C.ar    
  14 O14            6.5168    -2.0586   -10.6163 O.2     
  15 C15            5.2763     3.6353   -11.1749 C.2     
  16 C16            4.6114     3.9384   -12.4637 C.ar    
  17 O17            5.3835     4.5004   -10.3283 O.2     
  18 C18            3.8084     5.0696   -12.5757 C.ar    
  19 C19            4.8958    -0.5980    -4.5943 C.ar    
  20 C20            4.5342    -0.3219    -3.2877 C.ar    
  21 C21            4.8716    -1.2036    -2.2744 C.ar    
  22 C22            5.5704    -2.3605    -2.5658 C.ar    
  23 C23            5.9287    -2.6434    -3.8692 C.ar    
  24 F24            3.8521     0.8082    -3.0002 F       
  25 N25            4.7915     3.1310   -13.5028 N.ar    
  26 C26            4.2178     3.3659   -14.6674 C.ar    
  27 C27            3.3984     4.4773   -14.8465 C.ar    
  28 C28            3.1911     5.3437   -13.7876 C.ar    
  29 O29            4.4291     2.5149   -15.7026 O.3     
  30 C30            5.2798     1.3932   -15.4571 C.3     
  31 C31            6.8444     0.4748    -7.8701 C.3     
  32 C32            4.8285    -1.1013   -12.0194 C.3     
  33 H33            3.8416     0.4139   -10.8420 H       
  34 H34            6.4487     0.9745   -12.3270 H       
  35 H35            4.8352     1.6494   -12.6737 H       
  36 H36            7.5728     1.8522   -10.0223 H       
  37 H37            6.5776     3.0099    -9.1013 H       
  38 H38            4.9616     1.2927    -8.5349 H       
  39 H39            6.9972    -3.9385    -5.9988 H       
  40 H40            3.6673     5.7257   -11.7296 H       
  41 H41            4.6333     0.0894    -5.3849 H       
  42 H42            4.5887    -0.9869    -1.2549 H       
  43 H43            5.8329    -3.0459    -1.7735 H       
  44 H44            6.4746    -3.5475    -4.0952 H       
  45 H45            2.9324     4.6632   -15.8029 H       
  46 H46            2.5599     6.2127   -13.9012 H       
  47 H47            6.2680     1.7447   -15.1606 H       
  48 H48            4.8562     0.7838   -14.6588 H       
  49 H49            5.3640     0.7955   -16.3648 H       
  50 H50            7.2156    -0.5191    -8.1201 H       
  51 H51            7.6840     1.1641    -7.7801 H       
  52 H52            6.3050     0.4337    -6.9238 H       
  53 H53            4.5253    -1.9654   -11.4281 H       
  54 H54            4.1176    -0.9494   -12.8316 H       
  55 H55            5.8217    -1.2749   -12.4336 H       
@<TRIPOS>BOND
   1    1    2 1
   2    1    7 am
   3    1    6 1
   4    2    3 1
   5    2   32 1
   6    2   33 1
   7    3    4 1
   8    3   34 1
   9    3   35 1
  10    4    5 1
  11    4   15 am
  12    5    6 1
  13    5   36 1
  14    5   37 1
  15    6   31 1
  16    6   38 1
  17    7    8 1
  18    7   14 2
  19    8    9 2
  20    8   10 1
  21    9   12 1
  22   10   11 2
  23   11   12 1
  24   11   39 1
  25   12   13 1
  26   13   19 ar
  27   13   23 ar
  28   15   16 1
  29   15   17 2
  30   16   25 ar
  31   16   18 ar
  32   18   28 ar
  33   18   40 1
  34   19   20 ar
  35   19   41 1
  36   20   21 ar
  37   20   24 1
  38   21   22 ar
  39   21   42 1
  40   22   23 ar
  41   22   43 1
  42   23   44 1
  43   25   26 ar
  44   26   27 ar
  45   26   29 1
  46   27   28 ar
  47   27   45 1
  48   28   46 1
  49   29   30 1
  50   30   47 1
  51   30   48 1
  52   30   49 1
  53   31   50 1
  54   31   51 1
  55   31   52 1
  56   32   53 1
  57   32   54 1
  58   32   55 1

#	End of record

