#	Name: ASD02030236
#	Creating user name:	WinNT
#	Creation time:	15. 06. 2019 20:14

#	Modifying user name:	WinNT
#	Modification time:	15. 06. 2019 20:14

#	Program:	/corina/corina34_cracker 3.40 0067  02.08.2006

@<TRIPOS>MOLECULE
ASD02030236
  48   51    0    0    0
SMALL
NO_CHARGES


@<TRIPOS>ATOM
   1 N1            -0.4456     2.2981    -0.7988 N.am    
   2 C2            -0.1906     0.8771    -1.0736 C.3     
   3 C3            -0.6047     0.0583     0.1554 C.3     
   4 N4            -1.9561     0.4699     0.5603 N.am    
   5 C5            -2.2112     1.8909     0.8351 C.3     
   6 C6            -1.7957     2.7089    -0.3884 C.3     
   7 C7             0.5423     3.2074    -0.9156 C.2     
   8 C8             1.9263     2.7645    -1.1873 C.2     
   9 N9             2.9971     3.5289    -1.1888 N.2     
  10 N10            2.3136     1.5074    -1.4709 N.2     
  11 C11            3.6105     1.5299    -1.6449 C.2     
  12 N12            4.0239     2.8012    -1.4652 N.pl3   
  13 C13            5.3466     3.2540    -1.5625 C.ar    
  14 O14            0.2953     4.3918    -0.7974 O.2     
  15 C15           -2.9440    -0.4395     0.6771 C.2     
  16 C16           -2.7507    -1.7480     0.2127 C.2     
  17 O17           -4.0053    -0.1242     1.1863 O.2     
  18 C18            5.6398     4.5946    -1.3534 C.ar    
  19 C19            6.9456     5.0381    -1.4502 C.ar    
  20 C20            7.9591     4.1469    -1.7557 C.ar    
  21 C21            7.6689     2.8111    -1.9648 C.ar    
  22 C22            6.3672     2.3613    -1.8628 C.ar    
  23 C23           -3.7009     2.1007     1.1137 C.3     
  24 S24           -1.3884    -2.4896     0.0653 S.o     
  25 Cl25           7.3140     6.7143    -1.1890 Cl      
  26 C26           -1.9322    -4.0481    -0.5581 C.2     
  27 C27           -3.2303    -4.0132    -0.6648 C.2     
  28 C28           -3.8194    -2.7086    -0.2330 C.3     
  29 Cl29          -0.9136    -5.3951    -0.9604 Cl      
  30 H30           -0.7749     0.5610    -1.9377 H       
  31 H31            0.8707     0.7276    -1.2721 H       
  32 H32           -0.6050    -1.0026    -0.0951 H       
  33 H33            0.0941     0.2439     0.9711 H       
  34 H34           -1.6268     2.2070     1.6992 H       
  35 H35           -1.7958     3.7694    -0.1366 H       
  36 H36           -2.4928     2.5244    -1.2058 H       
  37 H37            4.2367     0.6834    -1.8855 H       
  38 H38            4.8487     5.2903    -1.1157 H       
  39 H39            8.9786     4.4952    -1.8313 H       
  40 H40            8.4619     2.1179    -2.2038 H       
  41 H41            6.1417     1.3178    -2.0260 H       
  42 H42           -3.9512     1.6798     2.0875 H       
  43 H43           -3.9244     3.1675     1.1106 H       
  44 H44           -4.2884     1.6041     0.3414 H       
  45 H45           -0.8414    -1.9055    -1.0157 H       
  46 H46           -3.8206    -4.8430    -1.0244 H       
  47 H47           -4.5145    -2.8848     0.5879 H       
  48 H48           -4.3617    -2.2673    -1.0692 H       
@<TRIPOS>BOND
   1    1    2 1
   2    1    7 am
   3    1    6 1
   4    2    3 1
   5    2   30 1
   6    2   31 1
   7    3    4 1
   8    3   32 1
   9    3   33 1
  10    4    5 1
  11    4   15 am
  12    5    6 1
  13    5   23 1
  14    5   34 1
  15    6   35 1
  16    6   36 1
  17    7    8 1
  18    7   14 2
  19    8    9 2
  20    8   10 1
  21    9   12 1
  22   10   11 2
  23   11   12 1
  24   11   37 1
  25   12   13 1
  26   13   18 ar
  27   13   22 ar
  28   15   16 1
  29   15   17 2
  30   16   24 2
  31   16   28 1
  32   18   19 ar
  33   18   38 1
  34   19   20 ar
  35   19   25 1
  36   20   21 ar
  37   20   39 1
  38   21   22 ar
  39   21   40 1
  40   22   41 1
  41   23   42 1
  42   23   43 1
  43   23   44 1
  44   24   26 1
  45   24   45 1
  46   26   27 2
  47   26   29 1
  48   27   28 1
  49   27   46 1
  50   28   47 1
  51   28   48 1

#	End of record

