#	Name: ASD03091179
#	Creating user name:	WinNT
#	Creation time:	15. 06. 2019 20:30

#	Modifying user name:	WinNT
#	Modification time:	15. 06. 2019 20:30

#	Program:	/corina/corina34_cracker 3.40 0067  02.08.2006

@<TRIPOS>MOLECULE
ASD03091179
  68   72    0    0    0
SMALL
NO_CHARGES


@<TRIPOS>ATOM
   1 C1            -0.0263     1.4660     0.0339 C.2     
   2 C2             0.0068    -0.0404     0.0123 C.3     
   3 O3             1.0104     2.0954     0.0359 O.2     
   4 N4            -1.2081     2.1140     0.0453 N.am    
   5 C5            -1.2403     3.5785     0.0662 C.3     
   6 C6            -1.1284     4.1116    -1.3635 C.3     
   7 C7            -2.5574     4.0509     0.6851 C.3     
   8 N8             3.3334    -1.0135     1.2324 N.2     
   9 C9             2.0904    -0.6123     1.1721 C.2     
  10 N10            1.3983    -0.4981    -0.0034 N.am    
  11 C11            1.9920    -0.8060    -1.1801 C.2     
  12 C12            3.3900    -1.2601    -1.1363 C.ar    
  13 C13            4.0876    -1.6006    -2.2929 C.ar    
  14 C14            5.4027    -2.0226    -2.1931 C.ar    
  15 C15            6.0248    -2.1065    -0.9473 C.ar    
  16 C16            5.3540    -1.7762     0.1948 C.ar    
  17 C17            4.0250    -1.3469     0.1238 C.ar    
  18 C18            1.4004    -0.2647     2.4324 C.ar    
  19 C19            0.1923    -0.8802     2.7619 C.ar    
  20 C20           -0.4480    -0.5499     3.9442 C.ar    
  21 C21            0.1115     0.3914     4.7981 C.ar    
  22 C22            1.3084     1.0020     4.4730 C.ar    
  23 C23            1.9580     0.6761     3.2997 C.ar    
  24 O24           -1.6249    -1.1470     4.2690 O.3     
  25 C25           -2.2303    -0.7587     5.5038 C.3     
  26 F26           -2.4992     0.6140     5.4799 F       
  27 F27           -3.4250    -1.4649     5.6799 F       
  28 F28           -1.3593    -1.0449     6.5606 F       
  29 O29            1.3914    -0.7111    -2.2346 O.2     
  30 N30            7.1094    -2.0676    -6.1196 N.3     
  31 C31            5.9256    -2.8687    -5.7728 C.3     
  32 C32            5.2452    -2.3125    -4.5317 C.3     
  33 N33            6.1110    -2.3668    -3.3476 N.3     
  34 C34            7.2845    -1.4999    -3.5238 C.3     
  35 C35            8.4594    -2.3004    -4.0653 C.3     
  36 C36            8.3136    -2.6683    -5.5281 C.3     
  37 C37            7.0127    -0.6441    -5.8772 C.3     
  38 C38            6.9037    -0.3181    -4.3967 C.3     
  39 H39           -0.4930    -0.4276     0.9003 H       
  40 H40           -0.5049    -0.4024    -0.8795 H       
  41 H41           -2.0372     1.6107     0.0396 H       
  42 H42           -0.4056     3.9518     0.6595 H       
  43 H43           -1.9631     3.7383    -1.9568 H       
  44 H44           -1.1524     5.2012    -1.3479 H       
  45 H45           -0.1901     3.7751    -1.8044 H       
  46 H46           -2.6371     3.6711     1.7037 H       
  47 H47           -2.5813     5.1405     0.7007 H       
  48 H48           -3.3921     3.6776     0.0918 H       
  49 H49            3.6073    -1.5364    -3.2581 H       
  50 H50            7.0509    -2.4377    -0.8856 H       
  51 H51            5.8490    -1.8467     1.1521 H       
  52 H52           -0.2422    -1.6116     2.0967 H       
  53 H53           -0.3904     0.6476     5.7194 H       
  54 H54            1.7384     1.7336     5.1410 H       
  55 H55            2.8951     1.1517     3.0509 H       
  56 H56            5.2231    -2.8505    -6.6060 H       
  57 H57            6.2312    -3.8978    -5.5841 H       
  58 H58            4.9654    -1.2755    -4.7172 H       
  59 H59            4.3420    -2.8903    -4.3354 H       
  60 H60            7.5639    -1.1080    -2.5458 H       
  61 H61            9.3692    -1.7129    -3.9417 H       
  62 H62            8.5563    -3.2164    -3.4825 H       
  63 H63            8.2510    -3.7528    -5.6177 H       
  64 H64            9.1903    -2.3174    -6.0724 H       
  65 H65            7.8989    -0.1555    -6.2825 H       
  66 H66            6.1322    -0.2572    -6.3902 H       
  67 H67            5.8772    -0.0282    -4.1725 H       
  68 H68            7.5643     0.5183    -4.1686 H       
@<TRIPOS>BOND
   1    1    2 1
   2    1    3 2
   3    1    4 am
   4    2   10 1
   5    2   39 1
   6    2   40 1
   7    4    5 1
   8    4   41 1
   9    5    6 1
  10    5    7 1
  11    5   42 1
  12    6   43 1
  13    6   44 1
  14    6   45 1
  15    7   46 1
  16    7   47 1
  17    7   48 1
  18    8    9 2
  19    8   17 1
  20    9   10 1
  21    9   18 1
  22   10   11 am
  23   11   12 1
  24   11   29 2
  25   12   13 ar
  26   12   17 ar
  27   13   14 ar
  28   13   49 1
  29   14   15 ar
  30   14   33 1
  31   15   16 ar
  32   15   50 1
  33   16   17 ar
  34   16   51 1
  35   18   19 ar
  36   18   23 ar
  37   19   20 ar
  38   19   52 1
  39   20   21 ar
  40   20   24 1
  41   21   22 ar
  42   21   53 1
  43   22   23 ar
  44   22   54 1
  45   23   55 1
  46   24   25 1
  47   25   26 1
  48   25   27 1
  49   25   28 1
  50   30   31 1
  51   30   36 1
  52   30   37 1
  53   31   32 1
  54   31   56 1
  55   31   57 1
  56   32   33 1
  57   32   58 1
  58   32   59 1
  59   33   34 1
  60   34   35 1
  61   34   38 1
  62   34   60 1
  63   35   36 1
  64   35   61 1
  65   35   62 1
  66   36   63 1
  67   36   64 1
  68   37   38 1
  69   37   65 1
  70   37   66 1
  71   38   67 1
  72   38   68 1

#	End of record

