#	Name: ASD02401013
#	Creating user name:	WinNT
#	Creation time:	15. 06. 2019 20:20

#	Modifying user name:	WinNT
#	Modification time:	15. 06. 2019 20:20

#	Program:	/corina/corina34_cracker 3.40 0067  02.08.2006

@<TRIPOS>MOLECULE
ASD02401013
  29   30    0    0    0
SMALL
NO_CHARGES


@<TRIPOS>ATOM
   1 C1            -0.0168     1.3889     0.0097 C.ar    
   2 C2             0.0021    -0.0041     0.0020 C.ar    
   3 C3            -1.1898    -0.7095     0.0101 C.ar    
   4 C4            -2.3949    -0.0315     0.0253 C.ar    
   5 C5            -2.4146     1.3509     0.0324 C.ar    
   6 C6            -1.2295     2.0623     0.0307 C.ar    
   7 C7            -3.7313     2.0838     0.0484 C.3     
   8 C8            -4.1568     2.3210     1.4745 C.ar    
   9 C9            -3.7690     3.4764     2.1274 C.ar    
  10 C10           -4.1578     3.6961     3.4347 C.ar    
  11 C11           -4.9381     2.7563     4.0924 C.ar    
  12 C12           -5.3259     1.5978     3.4351 C.ar    
  13 C13           -4.9392     1.3854     2.1260 C.ar    
  14 O14           -5.3215     2.9699     5.3786 O.3     
  15 N15            1.1845     2.1071     0.0021 N.pl3   
  16 O16            1.1881    -0.6697    -0.0138 O.3     
  17 H17           -1.1780    -1.7894     0.0042 H       
  18 H18           -3.3233    -0.5833     0.0312 H       
  19 H19           -1.2477     3.1421     0.0363 H       
  20 H20           -3.6207     3.0407    -0.4616 H       
  21 H21           -4.4864     1.4855    -0.4614 H       
  22 H22           -3.1613     4.2076     1.6151 H       
  23 H23           -3.8544     4.5986     3.9444 H       
  24 H24           -5.9333     0.8646     3.9449 H       
  25 H25           -5.2408     0.4836     1.6138 H       
  26 H26           -6.1629     3.4385     5.4655 H       
  27 H27            2.0318     1.6349    -0.0086 H       
  28 H28            1.1699     3.0769     0.0074 H       
  29 H29            1.5402    -0.8669     0.8650 H       
@<TRIPOS>BOND
   1    1    2 ar
   2    1   15 1
   3    1    6 ar
   4    2    3 ar
   5    2   16 1
   6    3    4 ar
   7    3   17 1
   8    4    5 ar
   9    4   18 1
  10    5    6 ar
  11    5    7 1
  12    6   19 1
  13    7    8 1
  14    7   20 1
  15    7   21 1
  16    8    9 ar
  17    8   13 ar
  18    9   10 ar
  19    9   22 1
  20   10   11 ar
  21   10   23 1
  22   11   12 ar
  23   11   14 1
  24   12   13 ar
  25   12   24 1
  26   13   25 1
  27   14   26 1
  28   15   27 1
  29   15   28 1
  30   16   29 1

#	End of record

