#	Name: ASD00843580
#	Creating user name:	WinNT
#	Creation time:	15. 06. 2019 18:47

#	Modifying user name:	WinNT
#	Modification time:	15. 06. 2019 18:47

#	Program:	/corina/corina34_cracker 3.40 0067  02.08.2006

@<TRIPOS>MOLECULE
ASD00843580
  91   96    0    0    0
SMALL
NO_CHARGES


@<TRIPOS>ATOM
   1 F1             5.7353    -2.5356    -1.8807 F       
   2 N2             0.9941     1.0777    -0.2011 N.ar    
   3 C3             1.1474    -0.2017    -0.4989 C.ar    
   4 C4             0.9682    -1.1804     0.4705 C.ar    
   5 C5             0.6260    -0.7999     1.7562 C.ar    
   6 C6             0.4744     0.5530     2.0281 C.ar    
   7 C7             0.6681     1.4712     1.0156 C.ar    
   8 C8             1.1435    -2.6371     0.1264 C.3     
   9 C9             0.7574    -3.5098     1.3016 C.2     
  10 C10            0.3123    -2.9992    -1.1060 C.3     
  11 C11           -1.1265    -2.6176    -0.8713 C.2     
  12 N12           -2.0674    -2.9459    -1.7787 N.am    
  13 O13           -1.4378    -2.0150     0.1342 O.2     
  14 C14           -3.4566    -2.4876    -1.6254 C.3     
  15 C15           -3.8995    -1.8294    -2.9364 C.3     
  16 N16           -3.6719    -2.7607    -4.0495 N.3     
  17 C17           -2.2432    -3.0633    -4.2074 C.3     
  18 C18           -1.7310    -3.7670    -2.9517 C.3     
  19 C19           -4.2404    -2.2369    -5.2987 C.3     
  20 C20           -3.8772    -3.1702    -6.4569 C.3     
  21 C21           -4.5227    -2.6526    -7.7444 C.3     
  22 N22           -5.9803    -2.5978    -7.5749 N.3     
  23 C23           -6.3553    -1.6713    -6.4990 C.3     
  24 C24           -5.7645    -2.1596    -5.1744 C.3     
  25 C25           -6.6437    -2.2374    -8.8350 C.3     
  26 O26           -0.3356    -3.5727     1.8237 O.2     
  27 N27            1.8527    -4.2020     1.6573 N.am    
  28 C28            2.6032    -2.9548    -0.1038 C.ar    
  29 C29            2.9532    -3.8996     0.8526 C.ar    
  30 C30            3.5273    -2.4976    -1.0163 C.ar    
  31 C31            4.8254    -2.9812    -0.9869 C.ar    
  32 C32            5.1871    -3.9245    -0.0370 C.ar    
  33 C33            4.2594    -4.3830     0.8784 C.ar    
  34 F34            6.4523    -4.3973    -0.0066 F       
  35 C35            1.4707    -6.8642     2.2414 C.ar    
  36 C36            0.2019    -7.0804     1.7232 C.ar    
  37 C37            2.4053    -7.8822     2.2309 C.ar    
  38 C38            2.0791    -9.1171     1.7044 C.ar    
  39 C39            0.8112    -9.3384     1.1849 C.ar    
  40 C40           -0.1281    -8.3191     1.1947 C.ar    
  41 O41            0.4908   -10.5535     0.6675 O.3     
  42 O42           -0.7169    -6.0791     1.7342 O.3     
  43 C43           -2.0028    -6.3725     1.1843 C.3     
  44 C44            1.5077   -11.5571     0.6908 C.3     
  45 O45            1.4826    -0.5617    -1.7633 O.3     
  46 C46            1.6053     0.4875    -2.7257 C.3     
  47 C47            2.0871    -0.0945    -4.0561 C.3     
  48 F48            3.2886    -0.7828    -3.8562 F       
  49 F49            1.1225    -0.9758    -4.5562 F       
  50 S50            1.8931    -5.2883     2.9066 S.o2    
  51 O51            3.2505    -5.3769     3.3175 O.2     
  52 O52            0.8368    -4.9278     3.7861 O.2     
  53 H53            0.4798    -1.5386     2.5303 H       
  54 H54            0.2075     0.8836     3.0210 H       
  55 H55            0.5518     2.5249     1.2220 H       
  56 H56            0.6943    -2.4603    -1.9730 H       
  57 H57            0.3788    -4.0720    -1.2867 H       
  58 H58           -4.1011    -3.3391    -1.4071 H       
  59 H59           -3.5155    -1.7627    -0.8135 H       
  60 H60           -4.9597    -1.5827    -2.8795 H       
  61 H61           -3.3222    -0.9194    -3.0997 H       
  62 H62           -2.1021    -3.7115    -5.0723 H       
  63 H63           -1.6889    -2.1361    -4.3530 H       
  64 H64           -0.6500    -3.8904    -3.0163 H       
  65 H65           -2.2088    -4.7421    -2.8578 H       
  66 H66           -3.8389    -1.2423    -5.4927 H       
  67 H67           -2.7942    -3.1960    -6.5777 H       
  68 H68           -4.2442    -4.1742    -6.2440 H       
  69 H69           -4.1448    -1.6540    -7.9641 H       
  70 H70           -4.2778    -3.3228    -8.5683 H       
  71 H71           -5.9689    -0.6773    -6.7246 H       
  72 H72           -7.4415    -1.6288    -6.4185 H       
  73 H73           -6.1612    -3.1477    -4.9414 H       
  74 H74           -6.0300    -1.4633    -4.3789 H       
  75 H75           -6.4080    -2.9818    -9.5955 H       
  76 H76           -7.7223    -2.2039    -8.6812 H       
  77 H77           -6.2930    -1.2590    -9.1634 H       
  78 H78            3.2407    -1.7631    -1.7544 H       
  79 H79            4.5476    -5.1175     1.6159 H       
  80 H80            3.3924    -7.7120     2.6346 H       
  81 H81            2.8114    -9.9109     1.6966 H       
  82 H82           -1.1153    -8.4894     0.7912 H       
  83 H83           -2.6383    -5.4898     1.2553 H       
  84 H84           -1.8940    -6.6586     0.1382 H       
  85 H85           -2.4570    -7.1929     1.7400 H       
  86 H86            2.3702   -11.2137     0.1195 H       
  87 H87            1.8070   -11.7473     1.7215 H       
  88 H88            1.1217   -12.4758     0.2491 H       
  89 H89            0.6360     0.9653    -2.8679 H       
  90 H90            2.3250     1.2247    -2.3697 H       
  91 H91            2.2459     0.7137    -4.7700 H       
@<TRIPOS>BOND
   1    1   31 1
   2    2    3 ar
   3    2    7 ar
   4    3    4 ar
   5    3   45 1
   6    4    5 ar
   7    4    8 1
   8    5    6 ar
   9    5   53 1
  10    6    7 ar
  11    6   54 1
  12    7   55 1
  13    8    9 1
  14    8   10 1
  15    8   28 1
  16    9   26 2
  17    9   27 am
  18   10   11 1
  19   10   56 1
  20   10   57 1
  21   11   12 am
  22   11   13 2
  23   12   14 1
  24   12   18 1
  25   14   15 1
  26   14   58 1
  27   14   59 1
  28   15   16 1
  29   15   60 1
  30   15   61 1
  31   16   17 1
  32   16   19 1
  33   17   18 1
  34   17   62 1
  35   17   63 1
  36   18   64 1
  37   18   65 1
  38   19   20 1
  39   19   24 1
  40   19   66 1
  41   20   21 1
  42   20   67 1
  43   20   68 1
  44   21   22 1
  45   21   69 1
  46   21   70 1
  47   22   23 1
  48   22   25 1
  49   23   24 1
  50   23   71 1
  51   23   72 1
  52   24   73 1
  53   24   74 1
  54   25   75 1
  55   25   76 1
  56   25   77 1
  57   27   50 am
  58   27   29 1
  59   28   29 ar
  60   28   30 ar
  61   29   33 ar
  62   30   31 ar
  63   30   78 1
  64   31   32 ar
  65   32   33 ar
  66   32   34 1
  67   33   79 1
  68   35   36 ar
  69   35   37 ar
  70   35   50 1
  71   36   42 1
  72   36   40 ar
  73   37   38 ar
  74   37   80 1
  75   38   39 ar
  76   38   81 1
  77   39   40 ar
  78   39   41 1
  79   40   82 1
  80   41   44 1
  81   42   43 1
  82   43   83 1
  83   43   84 1
  84   43   85 1
  85   44   86 1
  86   44   87 1
  87   44   88 1
  88   45   46 1
  89   46   47 1
  90   46   89 1
  91   46   90 1
  92   47   48 1
  93   47   49 1
  94   47   91 1
  95   50   51 2
  96   50   52 2

#	End of record

