#	Name: ASD04590757
#	Creating user name:	WinNT
#	Creation time:	15. 06. 2019 20:51

#	Modifying user name:	WinNT
#	Modification time:	15. 06. 2019 20:51

#	Program:	/corina/corina34_cracker 3.40 0067  02.08.2006

@<TRIPOS>MOLECULE
ASD04590757
  43   46    0    0    0
SMALL
NO_CHARGES


@<TRIPOS>ATOM
   1 N1             0.5622     2.8521     1.4372 N.ar    
   2 C2             0.5950     1.6542     2.0096 C.ar    
   3 N3             1.3429     0.6687     1.5410 N.ar    
   4 C4             2.0992     0.8463     0.4635 C.ar    
   5 C5             2.0884     2.1109    -0.1714 C.ar    
   6 C6             1.2838     3.1153     0.3619 C.ar    
   7 N7             2.9560     0.0346    -0.2388 N.pl3   
   8 C8             3.4920     0.7133    -1.2877 C.2     
   9 C9             2.9988     1.9917    -1.2993 C.2     
  10 C10            3.2503    -1.3613     0.0947 C.3     
  11 C11            3.7090    -1.4678     1.5596 C.3     
  12 C12            2.6931    -2.3829     2.2740 C.3     
  13 C13            2.0791    -3.2321     1.1335 C.3     
  14 C14            1.9716    -2.2152    -0.0300 C.3     
  15 S15           -0.3905     1.3680     3.4419 S.3     
  16 C16            4.4755     0.2741    -2.3461 C.3     
  17 O17            4.2653     1.0794    -3.5100 O.3     
  18 C18            4.0605     2.4101    -3.3998 C.2     
  19 C19            3.4241     2.9448    -2.3442 C.2     
  20 C20           -1.1666     2.9934     3.6194 C.3     
  21 C21            5.9047     0.4674    -1.8354 C.3     
  22 C22            4.2430    -1.1989    -2.6881 C.3     
  23 H23            1.2504     4.0929    -0.0958 H       
  24 H24            4.0245    -1.7479    -0.5681 H       
  25 H25            4.7055    -1.9070     1.6078 H       
  26 H26            3.7127    -0.4810     2.0224 H       
  27 H27            3.1988    -3.0233     2.9967 H       
  28 H28            1.9224    -1.7878     2.7639 H       
  29 H29            2.7406    -4.0562     0.8664 H       
  30 H30            1.0934    -3.6023     1.4152 H       
  31 H31            1.0844    -1.5931     0.0878 H       
  32 H32            1.9509    -2.7333    -0.9887 H       
  33 H33            4.4181     3.0627    -4.1826 H       
  34 H34            3.2359     4.0052    -2.2644 H       
  35 H35           -0.3953     3.7513     3.7567 H       
  36 H36           -1.7435     3.2205     2.7229 H       
  37 H37           -1.8283     2.9875     4.4855 H       
  38 H38            6.0775    -0.1886    -0.9822 H       
  39 H39            6.6105     0.2240    -2.6296 H       
  40 H40            6.0445     1.5045    -1.5305 H       
  41 H41            3.1723    -1.4021    -2.7104 H       
  42 H42            4.6747    -1.4177    -3.6648 H       
  43 H43            4.7163    -1.8264    -1.9329 H       
@<TRIPOS>BOND
   1    1    2 ar
   2    1    6 ar
   3    2    3 ar
   4    2   15 1
   5    3    4 ar
   6    4    5 ar
   7    4    7 1
   8    5    6 ar
   9    5    9 1
  10    6   23 1
  11    7    8 1
  12    7   10 1
  13    8    9 2
  14    8   16 1
  15    9   19 1
  16   10   11 1
  17   10   14 1
  18   10   24 1
  19   11   12 1
  20   11   25 1
  21   11   26 1
  22   12   13 1
  23   12   27 1
  24   12   28 1
  25   13   14 1
  26   13   29 1
  27   13   30 1
  28   14   31 1
  29   14   32 1
  30   15   20 1
  31   16   17 1
  32   16   21 1
  33   16   22 1
  34   17   18 1
  35   18   19 2
  36   18   33 1
  37   19   34 1
  38   20   35 1
  39   20   36 1
  40   20   37 1
  41   21   38 1
  42   21   39 1
  43   21   40 1
  44   22   41 1
  45   22   42 1
  46   22   43 1

#	End of record

