#	Name: ASD01900171
#	Creating user name:	WinNT
#	Creation time:	15. 06. 2019 19:51

#	Modifying user name:	WinNT
#	Modification time:	15. 06. 2019 19:51

#	Program:	/corina/corina34_cracker 3.40 0067  02.08.2006

@<TRIPOS>MOLECULE
ASD01900171
  31   34    0    0    0
SMALL
NO_CHARGES


@<TRIPOS>ATOM
   1 N1             0.3048     0.8419     1.6303 N.pl3   
   2 C2             0.1629    -0.2779     0.8128 C.ar    
   3 C3             1.1812    -0.6277    -0.0857 C.ar    
   4 C4             1.0277    -1.7506    -0.8988 C.ar    
   5 C5            -0.1218    -2.5091    -0.8153 C.ar    
   6 C6            -1.1254    -2.1610     0.0722 C.ar    
   7 C7            -0.9839    -1.0548     0.8881 C.ar    
   8 N8             2.4451     1.4868    -0.2487 N.2     
   9 C9             2.4094     0.1888    -0.1708 C.2     
  10 S10            4.0530    -0.4438    -0.1821 S.3     
  11 C11            4.6869     1.1906    -0.2916 C.2     
  12 C12            6.1315     1.6115    -0.3342 C.3     
  13 C13            6.3325     2.8817    -1.1603 C.3     
  14 C14            5.2613     3.8938    -0.8523 C.2     
  15 N15            5.2989     5.1892    -0.8759 N.2     
  16 N16            4.0313     5.6808    -0.5238 N.pl3   
  17 C17            3.2185     4.6235    -0.2783 C.2     
  18 C18            3.9466     3.5131    -0.4640 C.2     
  19 C19            3.6277     2.0586    -0.3239 C.2     
  20 H20            1.1443     1.3276     1.6461 H       
  21 H21           -0.4372     1.1378     2.1805 H       
  22 H22            1.8077    -2.0258    -1.5933 H       
  23 H23           -0.2392    -3.3783    -1.4455 H       
  24 H24           -2.0221    -2.7600     0.1305 H       
  25 H25           -1.7690    -0.7920     1.5816 H       
  26 H26            6.4785     1.7916     0.6833 H       
  27 H27            6.7226     0.8068    -0.7715 H       
  28 H28            7.3078     3.3097    -0.9288 H       
  29 H29            6.2943     2.6301    -2.2202 H       
  30 H30            3.7805     6.6160    -0.4658 H       
  31 H31            2.1792     4.6677     0.0124 H       
@<TRIPOS>BOND
   1    1    2 1
   2    1   20 1
   3    1   21 1
   4    2    3 ar
   5    2    7 ar
   6    3    4 ar
   7    3    9 1
   8    4    5 ar
   9    4   22 1
  10    5    6 ar
  11    5   23 1
  12    6    7 ar
  13    6   24 1
  14    7   25 1
  15    8    9 2
  16    8   19 1
  17    9   10 1
  18   10   11 1
  19   11   12 1
  20   11   19 2
  21   12   13 1
  22   12   26 1
  23   12   27 1
  24   13   14 1
  25   13   28 1
  26   13   29 1
  27   14   15 2
  28   14   18 1
  29   15   16 1
  30   16   17 1
  31   16   30 1
  32   17   18 2
  33   17   31 1
  34   18   19 1

#	End of record

