#	Name: ASD00069405
#	Creating user name:	WinNT
#	Creation time:	15. 06. 2019 18:29

#	Modifying user name:	WinNT
#	Modification time:	15. 06. 2019 18:29

#	Program:	/corina/corina34_cracker 3.40 0067  02.08.2006

@<TRIPOS>MOLECULE
ASD00069405
  28   29    0    0    0
SMALL
NO_CHARGES


@<TRIPOS>ATOM
   1 C1            -0.0168     1.3912     0.0097 C.ar    
   2 C2             0.0021    -0.0041     0.0020 C.ar    
   3 N3             1.1731    -0.6338    -0.0125 N.ar    
   4 C4             2.3073     0.0500    -0.0197 C.ar    
   5 N5             2.3207     1.3748    -0.0127 N.ar    
   6 C6             1.1900     2.0673     0.0018 C.ar    
   7 Cl7            1.2237     3.8029     0.0102 Cl      
   8 N8            -1.1823    -0.7230     0.0099 N.3     
   9 C9            -0.9206    -2.1696    -0.0004 C.3     
  10 C10           -2.0384    -0.3403    -1.1223 C.3     
  11 C11           -3.3576    -1.1130    -1.0416 C.3     
  12 O12           -3.0820    -2.5162    -1.0212 O.3     
  13 C13           -2.2510    -2.9239     0.0691 C.3     
  14 N14            3.5088    -0.6366    -0.0344 N.pl3   
  15 C15            4.7742     0.1015    -0.0425 C.3     
  16 H16           -0.9523     1.9309     0.0171 H       
  17 H17           -0.3974    -2.4382    -0.9181 H       
  18 H18           -0.3066    -2.4346     0.8603 H       
  19 H19           -2.2403     0.7300    -1.0805 H       
  20 H20           -1.5331    -0.5798    -2.0579 H       
  21 H21           -3.8883    -0.8331    -0.1315 H       
  22 H22           -3.9723    -0.8754    -1.9098 H       
  23 H23           -2.0654    -3.9960     0.0041 H       
  24 H24           -2.7495    -2.6966     1.0114 H       
  25 H25            3.5130    -1.6066    -0.0393 H       
  26 H26            5.6058    -0.6031    -0.0538 H       
  27 H27            4.8209     0.7329    -0.9298 H       
  28 H28            4.8375     0.7239     0.8501 H       
@<TRIPOS>BOND
   1    1    2 ar
   2    1    6 ar
   3    1   16 1
   4    2    3 ar
   5    2    8 1
   6    3    4 ar
   7    4    5 ar
   8    4   14 1
   9    5    6 ar
  10    6    7 1
  11    8    9 1
  12    8   10 1
  13    9   13 1
  14    9   17 1
  15    9   18 1
  16   10   11 1
  17   10   19 1
  18   10   20 1
  19   11   12 1
  20   11   21 1
  21   11   22 1
  22   12   13 1
  23   13   23 1
  24   13   24 1
  25   14   15 1
  26   14   25 1
  27   15   26 1
  28   15   27 1
  29   15   28 1

#	End of record

