#	Name: ASD03240673
#	Creating user name:	WinNT
#	Creation time:	15. 06. 2019 20:35

#	Modifying user name:	WinNT
#	Modification time:	15. 06. 2019 20:35

#	Program:	/corina/corina34_cracker 3.40 0067  02.08.2006

@<TRIPOS>MOLECULE
ASD03240673
  58   63    0    0    0
SMALL
NO_CHARGES


@<TRIPOS>ATOM
   1 C1             0.7435     1.7582     0.1520 C.3     
   2 C2             0.3171     0.2812     0.1117 C.3     
   3 C3             1.7195    -0.0567     0.6448 C.3     
   4 C4             2.1923     1.2622     0.0108 C.3     
   5 O5             0.2864     2.5167    -0.9695 O.3     
   6 C6             2.3266    -1.2823     0.0122 C.ar    
   7 C7             3.2103    -2.0643     0.7344 C.ar    
   8 C8             3.7692    -3.1880     0.1609 C.ar    
   9 C9             3.4415    -3.5348    -1.1498 C.ar    
  10 C10            2.5499    -2.7423    -1.8728 C.ar    
  11 C11            1.9936    -1.6240    -1.2864 C.ar    
  12 C12            7.7279    -7.6003    -2.2453 C.2     
  13 N13            7.0613    -8.3813    -3.1138 N.2     
  14 C14            5.8290    -8.1268    -3.4712 C.2     
  15 C15            5.1537    -6.9587    -2.9099 C.ar    
  16 C16            5.8588    -6.1428    -1.9993 C.ar    
  17 N17            7.1577    -6.4910    -1.6819 N.pl3   
  18 C18            3.8370    -6.6348    -3.2529 C.ar    
  19 C19            3.2717    -5.5042    -2.6717 C.ar    
  20 C20            4.0382    -4.7392    -1.7714 C.ar    
  21 N21            5.2830    -5.0776    -1.4701 N.ar    
  22 N22            8.1051    -5.9054    -0.8336 N.2     
  23 C23            9.2050    -6.6185    -0.8722 C.2     
  24 C24            9.0197    -7.6842    -1.7438 C.2     
  25 C25            1.8800    -5.1094    -2.9965 C.ar    
  26 C26            1.4711    -5.0170    -4.3259 C.ar    
  27 C27            0.1743    -4.6496    -4.6222 C.ar    
  28 C28           -0.7190    -4.3728    -3.6030 C.ar    
  29 C29           -0.3187    -4.4624    -2.2819 C.ar    
  30 C30            0.9738    -4.8349    -1.9735 C.ar    
  31 C31           10.4663    -6.3264    -0.1009 C.3     
  32 C32            0.4576     2.4424     1.4902 C.3     
  33 N33            1.8045    -0.0684     2.1113 N.3     
  34 H34           -0.4850     0.0392     0.8089 H       
  35 H35            0.1311    -0.0923    -0.8953 H       
  36 H36            2.5190     1.1569    -1.0237 H       
  37 H37            2.9040     1.8121     0.6266 H       
  38 H38            0.5514     3.4465    -0.9498 H       
  39 H39            3.4635    -1.7945     1.7491 H       
  40 H40            4.4592    -3.7974     0.7256 H       
  41 H41            2.2927    -3.0055    -2.8882 H       
  42 H42            1.3000    -1.0119    -1.8438 H       
  43 H43            5.3177    -8.7711    -4.1711 H       
  44 H44            3.2769    -7.2429    -3.9478 H       
  45 H45            9.7491    -8.4429    -1.9864 H       
  46 H46            2.1679    -5.2322    -5.1225 H       
  47 H47           -0.1436    -4.5776    -5.6519 H       
  48 H48           -1.7328    -4.0852    -3.8395 H       
  49 H49           -1.0204    -4.2448    -1.4902 H       
  50 H50            1.2840    -4.9089    -0.9416 H       
  51 H51           10.4263    -6.8296     0.8652 H       
  52 H52           11.3277    -6.6871    -0.6630 H       
  53 H53           10.5573    -5.2511     0.0530 H       
  54 H54            1.2463     2.1949     2.2007 H       
  55 H55            0.4240     3.5223     1.3463 H       
  56 H56           -0.5013     2.0974     1.8771 H       
  57 H57            2.7655    -0.0480     2.4179 H       
  58 H58            1.2814     0.6968     2.5099 H       
@<TRIPOS>BOND
   1    1    2 1
   2    1    4 1
   3    1    5 1
   4    1   32 1
   5    2    3 1
   6    2   34 1
   7    2   35 1
   8    3    4 1
   9    3    6 1
  10    3   33 1
  11    4   36 1
  12    4   37 1
  13    5   38 1
  14    6    7 ar
  15    6   11 ar
  16    7    8 ar
  17    7   39 1
  18    8    9 ar
  19    8   40 1
  20    9   10 ar
  21    9   20 1
  22   10   11 ar
  23   10   41 1
  24   11   42 1
  25   12   13 1
  26   12   17 1
  27   12   24 2
  28   13   14 2
  29   14   15 1
  30   14   43 1
  31   15   16 ar
  32   15   18 ar
  33   16   17 1
  34   16   21 ar
  35   17   22 1
  36   18   19 ar
  37   18   44 1
  38   19   20 ar
  39   19   25 1
  40   20   21 ar
  41   22   23 2
  42   23   24 1
  43   23   31 1
  44   24   45 1
  45   25   26 ar
  46   25   30 ar
  47   26   27 ar
  48   26   46 1
  49   27   28 ar
  50   27   47 1
  51   28   29 ar
  52   28   48 1
  53   29   30 ar
  54   29   49 1
  55   30   50 1
  56   31   51 1
  57   31   52 1
  58   31   53 1
  59   32   54 1
  60   32   55 1
  61   32   56 1
  62   33   57 1
  63   33   58 1

#	End of record

