#	Name: ASD09116189
#	Creating user name:	WinNT
#	Creation time:	15. 06. 2019 21:21

#	Modifying user name:	WinNT
#	Modification time:	15. 06. 2019 21:21

#	Program:	/corina/corina34_cracker 3.40 0067  02.08.2006

@<TRIPOS>MOLECULE
ASD09116189
  61   66    0    0    0
SMALL
NO_CHARGES


@<TRIPOS>ATOM
   1 N1            -0.0266     1.4808     0.1054 N.2     
   2 C2            -0.0140     0.0097     0.1914 C.3     
   3 C3             1.2224     1.8593     0.0815 C.2     
   4 N4             2.0841     0.8236     0.1408 N.2     
   5 C5             1.4646    -0.3258     0.2089 C.2     
   6 N6             1.6190     3.1792     0.0037 N.pl3   
   7 C7             2.9769     3.5091     0.0982 C.ar    
   8 C8             3.4714     4.6165    -0.5781 C.ar    
   9 C9             3.8282     2.7324     0.8728 C.ar    
  10 C10            5.1669     3.0583     0.9655 C.ar    
  11 C11            5.6613     4.1613     0.2850 C.ar    
  12 C12            4.8104     4.9411    -0.4845 C.ar    
  13 N13            2.0277    -1.5619     0.2808 N.pl3   
  14 C14           -0.6795    -0.4542     1.4615 C.ar    
  15 C15           -1.5565    -1.5145     1.4492 C.ar    
  16 N16           -0.4285     0.1474     2.6176 N.ar    
  17 C17           -1.0083    -0.2549     3.7307 C.ar    
  18 N18           -1.8592    -1.2656     3.7517 N.ar    
  19 C19           -2.1498    -1.9107     2.6435 C.ar    
  20 O20            6.9797     4.4816     0.3767 O.3     
  21 C21            8.9206     5.8307    -0.1265 C.3     
  22 C22            7.4203     5.6303    -0.3502 C.3     
  23 C23           -3.0665    -3.0914     2.3261 C.3     
  24 C24           -2.0875    -4.2609     1.9894 C.3     
  25 C25           -1.4217    -3.8234     0.6626 C.3     
  26 C26           -2.0774    -2.4361     0.3490 C.3     
  27 C27           -3.5345    -2.6935     0.8775 C.3     
  28 N28            9.6574     4.6989    -0.7044 N.3     
  29 C29           11.1073     4.9658    -0.7217 C.3     
  30 C30           11.7920     3.8224     0.0561 C.3     
  31 C31           10.7491     2.6762    -0.0173 C.3     
  32 C32            9.4158     3.4605     0.0663 C.3     
  33 H33           -0.5005    -0.4305    -0.6790 H       
  34 H34            0.9573     3.8782    -0.1165 H       
  35 H35            2.8091     5.2235    -1.1775 H       
  36 H36            3.4433     1.8737     1.4030 H       
  37 H37            5.8291     2.4544     1.5682 H       
  38 H38            5.1961     5.7996    -1.0143 H       
  39 H39            2.9932    -1.6555     0.2849 H       
  40 H40            1.4638    -2.3497     0.3280 H       
  41 H41           -0.7807     0.2570     4.6540 H       
  42 H42            9.2393     6.7554    -0.6076 H       
  43 H43            9.1239     5.8887     0.9428 H       
  44 H44            7.2278     5.4835    -1.4130 H       
  45 H45            6.8801     6.5103    -0.0012 H       
  46 H46           -3.8430    -3.3093     3.0594 H       
  47 H47           -1.3391    -4.3705     2.7743 H       
  48 H48           -2.6374    -5.1919     1.8520 H       
  49 H49           -0.3446    -3.7178     0.7923 H       
  50 H50           -1.6437    -4.5381    -0.1299 H       
  51 H51           -1.9720    -2.0734    -0.6735 H       
  52 H52           -4.0237    -3.5184     0.3596 H       
  53 H53           -4.1432    -1.7893     0.8725 H       
  54 H54           11.4689     4.9834    -1.7499 H       
  55 H55           11.3145     5.9200    -0.2372 H       
  56 H56           12.7223     3.5286    -0.4300 H       
  57 H57           11.9720     4.1139     1.0909 H       
  58 H58           10.8267     2.1376    -0.9618 H       
  59 H59           10.8558     1.9964     0.8280 H       
  60 H60            9.1802     3.6989     1.1034 H       
  61 H61            8.6078     2.8845    -0.3846 H       
@<TRIPOS>BOND
   1    1    2 1
   2    1    3 2
   3    2   14 1
   4    2    5 1
   5    2   33 1
   6    3    4 1
   7    3    6 1
   8    4    5 2
   9    5   13 1
  10    6    7 1
  11    6   34 1
  12    7    8 ar
  13    7    9 ar
  14    8   12 ar
  15    8   35 1
  16    9   10 ar
  17    9   36 1
  18   10   11 ar
  19   10   37 1
  20   11   12 ar
  21   11   20 1
  22   12   38 1
  23   13   39 1
  24   13   40 1
  25   14   15 ar
  26   14   16 ar
  27   15   19 ar
  28   15   26 1
  29   16   17 ar
  30   17   18 ar
  31   17   41 1
  32   18   19 ar
  33   19   23 1
  34   20   22 1
  35   21   22 1
  36   21   28 1
  37   21   42 1
  38   21   43 1
  39   22   44 1
  40   22   45 1
  41   23   24 1
  42   23   27 1
  43   23   46 1
  44   24   25 1
  45   24   47 1
  46   24   48 1
  47   25   26 1
  48   25   49 1
  49   25   50 1
  50   26   27 1
  51   26   51 1
  52   27   52 1
  53   27   53 1
  54   28   29 1
  55   28   32 1
  56   29   30 1
  57   29   54 1
  58   29   55 1
  59   30   31 1
  60   30   56 1
  61   30   57 1
  62   31   32 1
  63   31   58 1
  64   31   59 1
  65   32   60 1
  66   32   61 1

#	End of record

