#	Name: ASD08150492
#	Creating user name:	WinNT
#	Creation time:	15. 06. 2019 21:16

#	Modifying user name:	WinNT
#	Modification time:	15. 06. 2019 21:16

#	Program:	/corina/corina34_cracker 3.40 0067  02.08.2006

@<TRIPOS>MOLECULE
ASD08150492
  49   53    0    0    0
SMALL
NO_CHARGES


@<TRIPOS>ATOM
   1 N1             0.8851     2.9148    -1.6981 N.am    
   2 C2             1.3158     2.2899    -2.8111 C.2     
   3 C3             2.5252     1.5656    -2.8125 C.2     
   4 C4             3.2764     1.4884    -1.6847 C.2     
   5 C5             2.8267     2.1451    -0.5118 C.ar    
   6 C6             3.5681     2.0969     0.6842 C.ar    
   7 N7             3.1512     2.7039     1.7645 N.ar    
   8 C8             2.0054     3.4010     1.7990 C.ar    
   9 C9             1.1951     3.5031     0.6414 C.ar    
  10 C10            1.6180     2.8573    -0.5440 C.ar    
  11 C11           -0.3750     4.8470     1.8705 C.ar    
  12 C12            0.4322     4.7421     3.0118 C.ar    
  13 C13            1.5950     4.0374     2.9820 C.ar    
  14 O14            0.6504     2.3513    -3.8309 O.2     
  15 C15           -0.3166     3.6321    -1.7239 C.ar    
  16 C16           -0.3101     4.9903    -2.0130 C.ar    
  17 C17           -1.4977     5.6952    -2.0382 C.ar    
  18 C18           -2.6921     5.0499    -1.7759 C.ar    
  19 C19           -2.7020     3.6973    -1.4876 C.ar    
  20 C20           -1.5187     2.9857    -1.4660 C.ar    
  21 C21           -1.4916     7.1693    -2.3514 C.3     
  22 C22           -3.9859     5.8222    -1.8037 C.3     
  23 C23            0.0023     4.2313     0.6882 C.ar    
  24 C24           -1.6390     5.6211     1.9290 C.ar    
  25 C25           -2.7622     5.1931     1.2267 C.ar    
  26 N26           -3.8873     5.8778     1.2764 N.ar    
  27 C27           -3.9963     6.9880     1.9874 C.ar    
  28 C28           -2.9182     7.4784     2.7153 C.ar    
  29 C29           -1.7213     6.7889     2.6956 C.ar    
  30 O30           -5.1761     7.6574     2.0061 O.3     
  31 H31            2.8548     1.0701    -3.7138 H       
  32 H32            4.2035     0.9344    -1.6809 H       
  33 H33            4.4980     1.5484     0.7097 H       
  34 H34            0.1269     5.2277     3.9269 H       
  35 H35            2.2045     3.9666     3.8707 H       
  36 H36            0.6225     5.4950    -2.2177 H       
  37 H37           -3.6365     3.1962    -1.2828 H       
  38 H38           -1.5271     1.9295    -1.2408 H       
  39 H39           -1.5948     7.3127    -3.4270 H       
  40 H40           -2.3231     7.6531    -1.8389 H       
  41 H41           -0.5524     7.6084    -2.0148 H       
  42 H42           -4.4028     5.7964    -2.8105 H       
  43 H43           -4.6925     5.3726    -1.1061 H       
  44 H44           -3.7980     6.8563    -1.5147 H       
  45 H45           -0.6199     4.3134    -0.1907 H       
  46 H46           -2.7110     4.2911     0.6349 H       
  47 H47           -3.0165     8.3856     3.2929 H       
  48 H48           -0.8675     7.1469     3.2517 H       
  49 H49           -5.7757     7.3780     2.7114 H       
@<TRIPOS>BOND
   1    1    2 am
   2    1   10 1
   3    1   15 1
   4    2    3 1
   5    2   14 2
   6    3    4 2
   7    3   31 1
   8    4    5 1
   9    4   32 1
  10    5    6 ar
  11    5   10 ar
  12    6    7 ar
  13    6   33 1
  14    7    8 ar
  15    8    9 ar
  16    8   13 ar
  17    9   10 ar
  18    9   23 ar
  19   11   12 ar
  20   11   24 1
  21   11   23 ar
  22   12   13 ar
  23   12   34 1
  24   13   35 1
  25   15   16 ar
  26   15   20 ar
  27   16   17 ar
  28   16   36 1
  29   17   18 ar
  30   17   21 1
  31   18   19 ar
  32   18   22 1
  33   19   20 ar
  34   19   37 1
  35   20   38 1
  36   21   39 1
  37   21   40 1
  38   21   41 1
  39   22   42 1
  40   22   43 1
  41   22   44 1
  42   23   45 1
  43   24   25 ar
  44   24   29 ar
  45   25   26 ar
  46   25   46 1
  47   26   27 ar
  48   27   28 ar
  49   27   30 1
  50   28   29 ar
  51   28   47 1
  52   29   48 1
  53   30   49 1

#	End of record

