#	Name: ASD01870444
#	Creating user name:	WinNT
#	Creation time:	15. 06. 2019 19:39

#	Modifying user name:	WinNT
#	Modification time:	15. 06. 2019 19:39

#	Program:	/corina/corina34_cracker 3.40 0067  02.08.2006

@<TRIPOS>MOLECULE
ASD01870444
  54   59    0    0    0
SMALL
NO_CHARGES


@<TRIPOS>ATOM
   1 N1            -0.6067     1.2333     0.3954 N.am    
   2 C2            -0.7713    -0.0969     0.5370 C.2     
   3 C3            -2.1526    -0.6694     0.7246 C.3     
   4 O4             0.1922    -0.8330     0.5134 O.2     
   5 C5            -2.1738    -2.2017     0.8714 C.3     
   6 N6            -3.1662    -1.9851     1.9419 N.am    
   7 C7            -2.6503    -0.6231     2.1806 C.3     
   8 S8            -4.3738    -2.9019     2.6079 S.o2    
   9 C9            -3.6672    -3.8006     3.9487 C.ar    
  10 O10           -5.3008    -1.9898     3.1805 O.2     
  11 O11           -4.7351    -3.8638     1.6263 O.2     
  12 C12           -4.0758    -3.5587     5.2179 C.ar    
  13 C13            0.6769     1.9203     0.2064 C.3     
  14 C14            0.4007     3.4338     0.1609 C.3     
  15 C15           -1.0121     3.5636     0.8156 C.3     
  16 C16           -1.6850     2.2352     0.3984 C.3     
  17 C17            1.3242     4.1437     1.1677 C.3     
  18 N18            0.6215     4.1971     2.4609 N.3     
  19 C19           -0.6760     3.5061     2.3220 C.3     
  20 C20            1.3881     3.6207     3.4693 C.ar    
  21 C21            2.7759     3.7594     3.4810 C.ar    
  22 C22            3.4992     3.1728     4.4979 C.ar    
  23 N23            2.8946     2.4876     5.4504 N.ar    
  24 C24            1.5838     2.3337     5.4745 C.ar    
  25 C25            0.7881     2.8942     4.4976 C.ar    
  26 C26           -3.5383    -4.2512     6.3029 C.ar    
  27 C27           -2.5828    -5.1979     6.1378 C.ar    
  28 C28           -2.1080    -5.5034     4.8375 C.ar    
  29 C29           -2.6747    -4.7820     3.7007 C.ar    
  30 N30           -1.1973    -6.3715     4.4274 N.2     
  31 S31           -1.0681    -6.2931     2.8794 S.3     
  32 N32           -2.1205    -5.1901     2.5705 N.2     
  33 H33           -2.8727    -0.2880     0.0006 H       
  34 H34           -2.5734    -2.7211     0.0004 H       
  35 H35           -1.2320    -2.6223     1.2239 H       
  36 H36           -1.8485    -0.5800     2.9178 H       
  37 H37           -3.4304     0.1179     2.3549 H       
  38 H38           -4.8355    -2.8115     5.3936 H       
  39 H39            1.3435     1.6917     1.0379 H       
  40 H40            1.1322     1.6000    -0.7307 H       
  41 H41            0.4497     3.8474    -0.8463 H       
  42 H42           -1.5661     4.4506     0.5084 H       
  43 H43           -2.1224     2.3302    -0.5954 H       
  44 H44           -2.4505     1.9568     1.1227 H       
  45 H45            2.2533     3.5838     1.2751 H       
  46 H46            1.5393     5.1548     0.8222 H       
  47 H47           -1.4425     4.0226     2.8997 H       
  48 H48           -0.5891     2.4703     2.6500 H       
  49 H49            3.2770     4.3180     2.7043 H       
  50 H50            4.5743     3.2749     4.5151 H       
  51 H51            1.1283     1.7655     6.2720 H       
  52 H52           -0.2838     2.7647     4.5234 H       
  53 H53           -3.8919    -4.0273     7.2985 H       
  54 H54           -2.1834    -5.7185     6.9956 H       
@<TRIPOS>BOND
   1    1    2 am
   2    1   13 1
   3    1   16 1
   4    2    3 1
   5    2    4 2
   6    3    5 1
   7    3    7 1
   8    3   33 1
   9    5    6 1
  10    5   34 1
  11    5   35 1
  12    6    7 1
  13    6    8 am
  14    7   36 1
  15    7   37 1
  16    8    9 1
  17    8   10 2
  18    8   11 2
  19    9   12 ar
  20    9   29 ar
  21   12   26 ar
  22   12   38 1
  23   13   14 1
  24   13   39 1
  25   13   40 1
  26   14   15 1
  27   14   17 1
  28   14   41 1
  29   15   16 1
  30   15   19 1
  31   15   42 1
  32   16   43 1
  33   16   44 1
  34   17   18 1
  35   17   45 1
  36   17   46 1
  37   18   19 1
  38   18   20 1
  39   19   47 1
  40   19   48 1
  41   20   21 ar
  42   20   25 ar
  43   21   22 ar
  44   21   49 1
  45   22   23 ar
  46   22   50 1
  47   23   24 ar
  48   24   25 ar
  49   24   51 1
  50   25   52 1
  51   26   27 ar
  52   26   53 1
  53   27   28 ar
  54   27   54 1
  55   28   29 ar
  56   28   30 2
  57   29   32 2
  58   30   31 1
  59   31   32 1

#	End of record

