#	Name: ASD01900881
#	Creating user name:	WinNT
#	Creation time:	15. 06. 2019 19:52

#	Modifying user name:	WinNT
#	Modification time:	15. 06. 2019 19:52

#	Program:	/corina/corina34_cracker 3.40 0067  02.08.2006

@<TRIPOS>MOLECULE
ASD01900881
  62   66    0    0    0
SMALL
NO_CHARGES


@<TRIPOS>ATOM
   1 C1             0.0672     0.9395    -0.3585 C.ar    
   2 C2             0.2224    -0.4309    -0.3843 C.ar    
   3 C3             1.4872    -0.9944    -0.4483 C.ar    
   4 C4             2.6121    -0.1930    -0.4816 C.ar    
   5 C5             2.4740     1.1846    -0.4541 C.ar    
   6 C6             1.1921     1.7597    -0.3988 C.ar    
   7 N7             3.5767     2.0312    -0.4700 N.pl3   
   8 C8             3.4305     3.3721    -1.0474 C.3     
   9 N9             2.1744     3.9801    -0.6065 N.am    
  10 C10            1.0798     3.2285    -0.3744 C.2     
  11 C11            4.6043     4.2474    -0.5983 C.3     
  12 C12            3.4384     3.2692    -2.5752 C.3     
  13 C13            3.3531     4.6744    -3.1756 C.3     
  14 N14            4.4944     5.4755    -2.7150 N.3     
  15 C15            4.4847     5.6250    -1.2543 C.3     
  16 C16            2.1087     5.3667    -0.4216 C.ar    
  17 C17            1.4760     6.1642    -1.3660 C.ar    
  18 C18            1.4117     7.5314    -1.1830 C.ar    
  19 C19            1.9789     8.1082    -0.0561 C.ar    
  20 C20            2.6112     7.3121     0.8878 C.ar    
  21 C21            2.6713     5.9442     0.7090 C.ar    
  22 C22            4.5195     6.7861    -3.3782 C.3     
  23 C23            5.6411     7.6159    -2.8085 C.ar    
  24 C24            6.9257     7.4716    -3.2999 C.ar    
  25 C25            7.9567     8.2313    -2.7794 C.ar    
  26 C26            7.7059     9.1371    -1.7666 C.ar    
  27 C27            6.4182     9.2840    -1.2724 C.ar    
  28 C28            5.3841     8.5240    -1.8000 C.ar    
  29 O29            6.1690    10.1739    -0.2759 O.3     
  30 C30            7.2806    10.9253     0.2158 C.3     
  31 F31            7.8351    11.6746    -0.8274 F       
  32 F32            6.8492    11.7864     1.2304 F       
  33 F33            8.2459    10.0504     0.7258 F       
  34 O34            0.0089     3.7581    -0.1468 O.2     
  35 O35            1.9156     9.4545     0.1231 O.3     
  36 C36            2.5207     9.9807     1.3059 C.3     
  37 H37           -0.9205     1.3737    -0.3119 H       
  38 H38           -0.6480    -1.0696    -0.3541 H       
  39 H39            1.5942    -2.0689    -0.4720 H       
  40 H40            3.5947    -0.6389    -0.5285 H       
  41 H41            4.4274     1.7407    -0.1056 H       
  42 H42            4.5827     4.3573     0.4859 H       
  43 H43            5.5424     3.7810    -0.8993 H       
  44 H44            4.3603     2.7887    -2.9030 H       
  45 H45            2.5828     2.6799    -2.9049 H       
  46 H46            3.3725     4.6064    -4.2633 H       
  47 H47            2.4246     5.1491    -2.8582 H       
  48 H48            3.5519     6.0955    -0.9436 H       
  49 H49            5.3252     6.2476    -0.9474 H       
  50 H50            1.0346     5.7153    -2.2435 H       
  51 H51            0.9199     8.1518    -1.9176 H       
  52 H52            3.0526     7.7619     1.7648 H       
  53 H53            3.1597     5.3241     1.4461 H       
  54 H54            4.6762     6.6489    -4.4481 H       
  55 H55            3.5702     7.2954    -3.2123 H       
  56 H56            7.1238     6.7639    -4.0913 H       
  57 H57            8.9591     8.1166    -3.1646 H       
  58 H58            8.5118     9.7299    -1.3599 H       
  59 H59            4.3799     8.6396    -1.4197 H       
  60 H60            2.3991    11.0637     1.3253 H       
  61 H61            2.0421     9.5456     2.1833 H       
  62 H62            3.5824     9.7342     1.3114 H       
@<TRIPOS>BOND
   1    1    2 ar
   2    1    6 ar
   3    1   37 1
   4    2    3 ar
   5    2   38 1
   6    3    4 ar
   7    3   39 1
   8    4    5 ar
   9    4   40 1
  10    5    7 1
  11    5    6 ar
  12    6   10 1
  13    7    8 1
  14    7   41 1
  15    8    9 1
  16    8   12 1
  17    8   11 1
  18    9   10 am
  19    9   16 1
  20   10   34 2
  21   11   15 1
  22   11   42 1
  23   11   43 1
  24   12   13 1
  25   12   44 1
  26   12   45 1
  27   13   14 1
  28   13   46 1
  29   13   47 1
  30   14   15 1
  31   14   22 1
  32   15   48 1
  33   15   49 1
  34   16   17 ar
  35   16   21 ar
  36   17   18 ar
  37   17   50 1
  38   18   19 ar
  39   18   51 1
  40   19   20 ar
  41   19   35 1
  42   20   21 ar
  43   20   52 1
  44   21   53 1
  45   22   23 1
  46   22   54 1
  47   22   55 1
  48   23   24 ar
  49   23   28 ar
  50   24   25 ar
  51   24   56 1
  52   25   26 ar
  53   25   57 1
  54   26   27 ar
  55   26   58 1
  56   27   28 ar
  57   27   29 1
  58   28   59 1
  59   29   30 1
  60   30   31 1
  61   30   32 1
  62   30   33 1
  63   35   36 1
  64   36   60 1
  65   36   61 1
  66   36   62 1

#	End of record

