#	Name: ASD03080033
#	Creating user name:	WinNT
#	Creation time:	15. 06. 2019 20:26

#	Modifying user name:	WinNT
#	Modification time:	15. 06. 2019 20:26

#	Program:	/corina/corina34_cracker 3.40 0067  02.08.2006

@<TRIPOS>MOLECULE
ASD03080033
  26   28    0    0    0
SMALL
NO_CHARGES


@<TRIPOS>ATOM
   1 O1            -0.0144     1.2085     0.0087 O.3     
   2 N2             0.0021    -0.0041     0.0020 N.2     
   3 C3             1.2352    -0.4419    -0.0121 C.2     
   4 N4             2.0457     0.6371    -0.0141 N.2     
   5 C5             1.2409     1.6829    -0.0008 C.2     
   6 C6             2.9948     3.4592    -0.0091 C.ar    
   7 C7             1.6450     3.1050     0.0023 C.ar    
   8 C8             0.6801     4.1189     0.0162 C.ar    
   9 C9             1.1108     5.4342     0.0180 C.ar    
  10 C10            2.4676     5.7023     0.0062 C.ar    
  11 N11            3.3548     4.7258    -0.0068 N.ar    
  12 C12            1.6633    -1.8627    -0.0231 C.ar    
  13 C13            0.7099    -2.8812    -0.0192 C.ar    
  14 C14            1.1168    -4.2049    -0.0300 C.ar    
  15 C15            2.4661    -4.5153    -0.0441 C.ar    
  16 C16            3.4130    -3.5071    -0.0476 C.ar    
  17 C17            3.0187    -2.1844    -0.0432 C.ar    
  18 F18            0.1966    -5.1940    -0.0262 F       
  19 F19           -0.6063    -2.5771    -0.0045 F       
  20 H20            3.7507     2.6878    -0.0154 H       
  21 H21           -0.3733     3.8810     0.0249 H       
  22 H22            0.3949     6.2428     0.0282 H       
  23 H23            2.8064     6.7278     0.0075 H       
  24 H24            2.7804    -5.5485    -0.0521 H       
  25 H25            4.4640    -3.7555    -0.0579 H       
  26 H26            3.7604    -1.3994    -0.0504 H       
@<TRIPOS>BOND
   1    1    2 1
   2    1    5 1
   3    2    3 2
   4    3    4 1
   5    3   12 1
   6    4    5 2
   7    5    7 1
   8    6    7 ar
   9    6   11 ar
  10    6   20 1
  11    7    8 ar
  12    8    9 ar
  13    8   21 1
  14    9   10 ar
  15    9   22 1
  16   10   11 ar
  17   10   23 1
  18   12   13 ar
  19   12   17 ar
  20   13   14 ar
  21   13   19 1
  22   14   15 ar
  23   14   18 1
  24   15   16 ar
  25   15   24 1
  26   16   17 ar
  27   16   25 1
  28   17   26 1

#	End of record

