#	Name: ASD01151057
#	Creating user name:	WinNT
#	Creation time:	15. 06. 2019 19:05

#	Modifying user name:	WinNT
#	Modification time:	15. 06. 2019 19:05

#	Program:	/corina/corina34_cracker 3.40 0067  02.08.2006

@<TRIPOS>MOLECULE
ASD01151057
  61   63    0    0    0
SMALL
NO_CHARGES


@<TRIPOS>ATOM
   1 C1            -0.8533     3.8523     1.1526 C.3     
   2 C2            -0.7476     2.4154     0.6378 C.3     
   3 C3             0.2871     1.6516     1.4664 C.3     
   4 C4            -0.1977     1.5310     2.8882 C.ar    
   5 C5            -1.3866     0.8832     3.1605 C.ar    
   6 C6            -1.8327     0.7719     4.4648 C.ar    
   7 C7            -1.0906     1.3084     5.5007 C.ar    
   8 C8             0.0998     1.9584     5.2354 C.ar    
   9 C9             0.5535     2.0663     3.9265 C.ar    
  10 N10            1.7582     2.7230     3.6540 N.am    
  11 C11            2.0235     3.9114     4.2316 C.2     
  12 O12            1.1893     4.4438     4.9376 O.2     
  13 C13            3.3289     4.5676     4.0067 C.ar    
  14 C14            4.2886     3.9583     3.1964 C.ar    
  15 C15            5.5066     4.5730     2.9879 C.ar    
  16 C16            5.7813     5.7915     3.5795 C.ar    
  17 C17            4.8327     6.4063     4.3886 C.ar    
  18 C18            3.6038     5.8004     4.5988 C.ar    
  19 N19            5.1158     7.6393     4.9854 N.am    
  20 C20            4.6155     7.9294     6.2027 C.2     
  21 O21            4.0057     7.0830     6.8268 O.2     
  22 C22            4.8081     9.2769     6.7789 C.ar    
  23 C23            4.2911     9.5808     8.0395 C.ar    
  24 C24            4.4744    10.8404     8.5714 C.ar    
  25 C25            5.1688    11.8015     7.8584 C.ar    
  26 C26            5.6838    11.5069     6.6085 C.ar    
  27 C27            5.5126    10.2495     6.0674 C.ar    
  28 Br28           1.1137     2.6930     6.6525 Br      
  29 C29           -3.1308     0.0647     4.7576 C.3     
  30 C30           -2.9683    -1.4324     4.4872 C.3     
  31 F31           -1.8886    -1.9255     5.2276 F       
  32 F32           -4.1368    -2.1037     4.8629 F       
  33 F33           -2.7309    -1.6369     3.1237 F       
  34 C34           -3.5093     0.2798     6.2244 C.3     
  35 F35           -3.5207     1.6500     6.5069 F       
  36 F36           -4.7797    -0.2559     6.4616 F       
  37 F37           -2.5734    -0.3579     7.0458 F       
  38 F38           -4.1386     0.5804     3.9356 F       
  39 C39            0.4840     0.2545     0.8745 C.3     
  40 H40            0.1164     4.3422     1.0641 H       
  41 H41           -1.5905     4.3965     0.5622 H       
  42 H42           -1.1611     3.8419     2.1982 H       
  43 H43           -1.7173     1.9255     0.7262 H       
  44 H44           -0.4399     2.4258    -0.4078 H       
  45 H45            1.2348     2.1899     1.4501 H       
  46 H46           -1.9690     0.4633     2.3537 H       
  47 H47           -1.4418     1.2198     6.5182 H       
  48 H48            2.4026     2.3230     3.0493 H       
  49 H49            4.0780     3.0059     2.7328 H       
  50 H50            6.2478     4.1001     2.3607 H       
  51 H51            6.7364     6.2674     3.4130 H       
  52 H52            2.8655     6.2764     5.2270 H       
  53 H53            5.6723     8.2854     4.5231 H       
  54 H54            3.7485     8.8316     8.5969 H       
  55 H55            4.0746    11.0769     9.5465 H       
  56 H56            5.3092    12.7862     8.2793 H       
  57 H57            6.2249    12.2616     6.0571 H       
  58 H58            5.9151    10.0208     5.0916 H       
  59 H59            0.8346     0.3417    -0.1539 H       
  60 H60            1.2212    -0.2897     1.4648 H       
  61 H61           -0.4637    -0.2838     0.8908 H       
@<TRIPOS>BOND
   1    1    2 1
   2    1   40 1
   3    1   41 1
   4    1   42 1
   5    2    3 1
   6    2   43 1
   7    2   44 1
   8    3    4 1
   9    3   39 1
  10    3   45 1
  11    4    5 ar
  12    4    9 ar
  13    5    6 ar
  14    5   46 1
  15    6    7 ar
  16    6   29 1
  17    7    8 ar
  18    7   47 1
  19    8    9 ar
  20    8   28 1
  21    9   10 1
  22   10   11 am
  23   10   48 1
  24   11   12 2
  25   11   13 1
  26   13   14 ar
  27   13   18 ar
  28   14   15 ar
  29   14   49 1
  30   15   16 ar
  31   15   50 1
  32   16   17 ar
  33   16   51 1
  34   17   18 ar
  35   17   19 1
  36   18   52 1
  37   19   20 am
  38   19   53 1
  39   20   21 2
  40   20   22 1
  41   22   23 ar
  42   22   27 ar
  43   23   24 ar
  44   23   54 1
  45   24   25 ar
  46   24   55 1
  47   25   26 ar
  48   25   56 1
  49   26   27 ar
  50   26   57 1
  51   27   58 1
  52   29   30 1
  53   29   34 1
  54   29   38 1
  55   30   31 1
  56   30   32 1
  57   30   33 1
  58   34   35 1
  59   34   36 1
  60   34   37 1
  61   39   59 1
  62   39   60 1
  63   39   61 1

#	End of record

