#	Name: ASD04882236
#	Creating user name:	WinNT
#	Creation time:	15. 06. 2019 20:54

#	Modifying user name:	WinNT
#	Modification time:	15. 06. 2019 20:54

#	Program:	/corina/corina34_cracker 3.40 0067  02.08.2006

@<TRIPOS>MOLECULE
ASD04882236
  83   89    0    0    0
SMALL
NO_CHARGES


@<TRIPOS>ATOM
   1 N1            -0.1371     1.5565    -0.0346 N.am    
   2 C2            -0.0771     0.1569    -0.0447 C.ar    
   3 C3            -1.2535    -0.5942     0.0292 C.ar    
   4 C4            -1.1954    -1.9831     0.0193 C.ar    
   5 C5             0.0209    -2.6240    -0.0628 C.ar    
   6 C6             1.2011    -1.8789    -0.1369 C.ar    
   7 C7             1.1451    -0.4824    -0.1334 C.ar    
   8 N8            -2.4854     0.0496     0.1133 N.3     
   9 C9            -2.6133     0.7782     1.3831 C.3     
  10 C10           -3.5906    -0.9038    -0.0572 C.3     
  11 C11           -4.9209    -0.1473    -0.0380 C.3     
  12 N12           -5.0488     0.5813     1.2319 N.3     
  13 C13           -3.9436     1.5347     1.4023 C.3     
  14 C14            2.5038    -2.5657    -0.2249 C.2     
  15 O15            3.5301    -1.9168    -0.2893 O.2     
  16 C16            0.8436     2.2689     0.5546 C.2     
  17 O17            1.7269     1.6977     1.1668 O.2     
  18 C18            0.8464     3.7326     0.4581 C.2     
  19 N19            2.5564    -3.9124    -0.2337 N.am    
  20 C20           -6.2845     1.2270     1.3162 C.ar    
  21 C21           -7.1642     0.9149     2.3446 C.ar    
  22 C22           -6.6339     2.1872     0.3748 C.ar    
  23 C23           -7.8563     2.8236     0.4610 C.ar    
  24 C24           -8.7321     2.5066     1.4834 C.ar    
  25 C25           -8.3853     1.5554     2.4250 C.ar    
  26 C26           -0.0704     4.5073    -0.1890 C.2     
  27 N27            0.3005     5.7823    -0.0330 N.2     
  28 C28            1.3966     5.8225     0.6763 C.2     
  29 O29            1.7562     4.5761     0.9990 O.3     
  30 C30            2.1350     7.0750     1.0726 C.3     
  31 C31           -6.7871    -0.1218     3.3713 C.3     
  32 C32            2.6577     7.9724    -0.0510 C.3     
  33 C33            1.4562     8.4159     0.7861 C.3     
  34 C34            3.8501    -4.5944    -0.3211 C.3     
  35 C35            3.6300    -6.1085    -0.3128 C.3     
  36 C36            4.9810    -6.8207    -0.4040 C.3     
  37 C37            5.6392    -6.5540    -1.7770 C.3     
  38 C38            4.7849    -8.3668    -0.3546 C.3     
  39 C39            4.4947    -8.6709    -1.8668 C.3     
  40 C40            5.7788    -7.9640    -2.4279 C.3     
  41 C41            6.8869    -8.6725    -1.5905 C.3     
  42 C42            6.2287    -8.9393    -0.2175 C.3     
  43 H43            5.9025    -7.9788    -3.5108 H       
  44 H44            4.0469    -8.7309     0.3601 H       
  45 H45           -0.8825     2.0131    -0.4552 H       
  46 H46           -2.1061    -2.5609     0.0766 H       
  47 H47            0.0627    -3.7031    -0.0695 H       
  48 H48            2.0554     0.0959    -0.1906 H       
  49 H49           -2.5848     0.0714     2.2123 H       
  50 H50           -1.7906     1.4866     1.4803 H       
  51 H51           -3.4805    -1.4216    -1.0100 H       
  52 H52           -3.5733    -1.6297     0.7557 H       
  53 H53           -4.9494     0.5596    -0.8672 H       
  54 H54           -5.7436    -0.8557    -0.1352 H       
  55 H55           -4.0537     2.0525     2.3552 H       
  56 H56           -3.9609     2.2606     0.5895 H       
  57 H57            1.7377    -4.4301    -0.1823 H       
  58 H58           -5.9502     2.4357    -0.4234 H       
  59 H59           -8.1285     3.5701    -0.2705 H       
  60 H60           -9.6873     3.0064     1.5490 H       
  61 H61           -9.0716     1.3101     3.2220 H       
  62 H62           -0.9371     4.1555    -0.7289 H       
  63 H63            2.7379     6.9988     1.9775 H       
  64 H64           -6.2733     0.3606     4.2029 H       
  65 H65           -7.6875    -0.6149     3.7375 H       
  66 H66           -6.1276    -0.8608     2.9163 H       
  67 H67            3.6041     8.4869     0.1149 H       
  68 H68            2.4674     7.6568    -1.0768 H       
  69 H69            0.4755     8.3921     0.3110 H       
  70 H70            1.6123     9.2222     1.5027 H       
  71 H71            4.3516    -4.3052    -1.2446 H       
  72 H72            4.4678    -4.3124     0.5316 H       
  73 H73            3.1284    -6.3977     0.6107 H       
  74 H74            3.0123    -6.3905    -1.1655 H       
  75 H75            5.6375    -6.4932     0.4021 H       
  76 H76            5.0003    -5.9154    -2.3871 H       
  77 H77            6.6202    -6.0972    -1.6459 H       
  78 H78            4.4927    -9.7407    -2.0756 H       
  79 H79            3.5794    -8.1900    -2.2121 H       
  80 H80            7.1772    -9.6116    -2.0616 H       
  81 H81            7.7526    -8.0201    -1.4766 H       
  82 H82            6.7709    -8.4180     0.5715 H       
  83 H83            6.1954   -10.0095    -0.0136 H       
@<TRIPOS>BOND
   1    1    2 1
   2    1   16 am
   3    1   45 1
   4    2    3 ar
   5    2    7 ar
   6    3    4 ar
   7    3    8 1
   8    4    5 ar
   9    4   46 1
  10    5    6 ar
  11    5   47 1
  12    6    7 ar
  13    6   14 1
  14    7   48 1
  15    8    9 1
  16    8   10 1
  17    9   13 1
  18    9   49 1
  19    9   50 1
  20   10   11 1
  21   10   51 1
  22   10   52 1
  23   11   12 1
  24   11   53 1
  25   11   54 1
  26   12   13 1
  27   12   20 1
  28   13   55 1
  29   13   56 1
  30   14   15 2
  31   14   19 am
  32   16   17 2
  33   16   18 1
  34   18   26 2
  35   18   29 1
  36   19   34 1
  37   19   57 1
  38   20   21 ar
  39   20   22 ar
  40   21   31 1
  41   21   25 ar
  42   22   23 ar
  43   22   58 1
  44   23   24 ar
  45   23   59 1
  46   24   25 ar
  47   24   60 1
  48   25   61 1
  49   26   27 1
  50   26   62 1
  51   27   28 2
  52   28   29 1
  53   28   30 1
  54   30   32 1
  55   30   33 1
  56   30   63 1
  57   31   64 1
  58   31   65 1
  59   31   66 1
  60   32   33 1
  61   32   67 1
  62   32   68 1
  63   33   69 1
  64   33   70 1
  65   34   35 1
  66   34   71 1
  67   34   72 1
  68   35   36 1
  69   35   73 1
  70   35   74 1
  71   36   37 1
  72   36   38 1
  73   36   75 1
  74   37   40 1
  75   37   76 1
  76   37   77 1
  77   38   39 1
  78   38   42 1
  79   38   44 1
  80   39   40 1
  81   39   78 1
  82   39   79 1
  83   40   41 1
  84   40   43 1
  85   41   42 1
  86   41   80 1
  87   41   81 1
  88   42   82 1
  89   42   83 1

#	End of record

