#	Name: ASD01120175
#	Creating user name:	WinNT
#	Creation time:	15. 06. 2019 18:59

#	Modifying user name:	WinNT
#	Modification time:	15. 06. 2019 18:59

#	Program:	/corina/corina34_cracker 3.40 0067  02.08.2006

@<TRIPOS>MOLECULE
ASD01120175
  30   31    0    0    0
SMALL
NO_CHARGES


@<TRIPOS>ATOM
   1 C1            -0.0168     1.3860     0.0097 C.ar    
   2 C2             0.0021    -0.0041     0.0020 C.ar    
   3 C3             1.1973    -0.6901    -0.0131 C.ar    
   4 C4             2.3988     0.0126    -0.0209 C.ar    
   5 C5             2.3777     1.4210    -0.0131 C.ar    
   6 C6             1.1490     2.0968     0.0023 C.ar    
   7 N7             3.7168    -0.3787    -0.0356 N.pl3   
   8 C8             4.5156     0.7495    -0.0372 C.2     
   9 C9             3.7249     1.8547    -0.0237 C.2     
  10 C10            5.9854     0.7531    -0.0509 C.2     
  11 Cl11           1.1103     3.8323     0.0115 Cl      
  12 Cl12          -1.4942    -0.8842     0.0122 Cl      
  13 C13            4.1978     3.2855    -0.0213 C.3     
  14 C14            4.3439     3.7768    -1.4630 C.3     
  15 C15            4.8168     5.2077    -1.4606 C.2     
  16 O16            6.5911     1.8082    -0.0506 O.2     
  17 N17            6.6621    -0.4124    -0.0637 N.am    
  18 O18            5.0162     5.8506    -2.6219 O.3     
  19 O19            5.0166     5.7762    -0.4133 O.2     
  20 O20            8.0780    -0.4089    -0.0768 O.3     
  21 H21           -0.9620     1.9084     0.0170 H       
  22 H22            1.2017    -1.7700    -0.0186 H       
  23 H23            4.0339    -1.2953    -0.0431 H       
  24 H24            3.4719     3.9073     0.5026 H       
  25 H25            5.1618     3.3488     0.4835 H       
  26 H26            5.0699     3.1550    -1.9869 H       
  27 H27            3.3799     3.7136    -1.9678 H       
  28 H28            6.1791    -1.2536    -0.0639 H       
  29 H29            5.3197     6.7672    -2.5698 H       
  30 H30            8.4735    -1.2913    -0.0854 H       
@<TRIPOS>BOND
   1    1    2 ar
   2    1    6 ar
   3    1   21 1
   4    2    3 ar
   5    2   12 1
   6    3    4 ar
   7    3   22 1
   8    4    5 ar
   9    4    7 1
  10    5    6 ar
  11    5    9 1
  12    6   11 1
  13    7    8 1
  14    7   23 1
  15    8    9 2
  16    8   10 1
  17    9   13 1
  18   10   16 2
  19   10   17 am
  20   13   14 1
  21   13   24 1
  22   13   25 1
  23   14   15 1
  24   14   26 1
  25   14   27 1
  26   15   18 1
  27   15   19 2
  28   17   20 1
  29   17   28 1
  30   18   29 1
  31   20   30 1

#	End of record

