#	Name: ASD01884927
#	Creating user name:	WinNT
#	Creation time:	15. 06. 2019 19:49

#	Modifying user name:	WinNT
#	Modification time:	15. 06. 2019 19:49

#	Program:	/corina/corina34_cracker 3.40 0067  02.08.2006

@<TRIPOS>MOLECULE
ASD01884927
  50   54    0    0    0
SMALL
NO_CHARGES


@<TRIPOS>ATOM
   1 C1            -0.0166     1.3746     0.0096 C.ar    
   2 C2             0.0021    -0.0041     0.0020 C.ar    
   3 C3            -1.1977    -0.7167     0.0101 C.ar    
   4 C4            -2.4129    -0.0321     0.0259 C.ar    
   5 C5            -2.4265     1.3465     0.0334 C.ar    
   6 C6            -1.2306     2.0547     0.0307 C.ar    
   7 C7            -1.1808    -2.1978     0.0015 C.2     
   8 C8            -1.6665    -2.9084     1.0846 C.2     
   9 C9            -0.6727    -2.9009    -1.1181 C.2     
  10 C10           -0.6591    -4.2467    -1.1244 C.2     
  11 N11           -1.1319    -4.9566    -0.0579 N.pl3   
  12 C12           -1.6372    -4.3137     1.0461 C.2     
  13 Cl13          -2.3017    -2.0777     2.4703 Cl      
  14 C14           -1.2395    -6.2882     0.2060 C.2     
  15 N15           -1.7714    -6.4127     1.3946 N.2     
  16 N16           -2.0111    -5.2541     1.9003 N.2     
  17 C17           -0.8223    -7.4135    -0.7055 C.3     
  18 C18           -0.8447    -8.8320    -0.1325 C.3     
  19 N19           -1.2474     3.4505     0.0383 N.pl3   
  20 C20           -2.5247     4.1677     0.0493 C.3     
  21 C21           -2.3327     5.5607    -0.5539 C.3     
  22 C22           -3.6668     6.3097    -0.5424 C.3     
  23 C23           -4.1651     6.4419     0.8981 C.3     
  24 C24           -4.3571     5.0490     1.5012 C.3     
  25 C25           -3.0231     4.3000     1.4898 C.3     
  26 C26           -1.9035    -8.4009    -1.1494 C.3     
  27 Cl27           1.4751     2.2625     0.0001 Cl      
  28 O28           -3.2052     7.1668     1.6695 O.3     
  29 H29            0.9442    -0.5319    -0.0105 H       
  30 H30           -3.3426    -0.5816     0.0318 H       
  31 H31           -3.3673     1.8766     0.0452 H       
  32 H32           -0.2952    -2.3550    -1.9701 H       
  33 H33           -0.2695    -4.7719    -1.9839 H       
  34 H34           -0.0368    -7.1719    -1.4215 H       
  35 H35           -0.0737    -9.5239    -0.4714 H       
  36 H36           -1.1612    -8.9513     0.9037 H       
  37 H37           -0.4132     3.9456     0.0364 H       
  38 H38           -3.2569     3.6148    -0.5392 H       
  39 H39           -1.6005     6.1136     0.0346 H       
  40 H40           -1.9777     5.4665    -1.5801 H       
  41 H41           -3.5300     7.3021    -0.9721 H       
  42 H42           -4.3990     5.7568    -1.1309 H       
  43 H43           -5.1155     6.9756     0.9062 H       
  44 H44           -4.7122     5.1432     2.5274 H       
  45 H45           -5.0893     4.4961     0.9128 H       
  46 H46           -3.1599     3.3076     1.9195 H       
  47 H47           -2.2909     4.8529     2.0782 H       
  48 H48           -2.9165    -8.2365    -0.7821 H       
  49 H49           -1.8290    -8.8091    -2.1573 H       
  50 H50           -3.4560     7.2889     2.5954 H       
@<TRIPOS>BOND
   1    1    2 ar
   2    1   27 1
   3    1    6 ar
   4    2    3 ar
   5    2   29 1
   6    3    4 ar
   7    3    7 1
   8    4    5 ar
   9    4   30 1
  10    5    6 ar
  11    5   31 1
  12    6   19 1
  13    7    8 2
  14    7    9 1
  15    8   13 1
  16    8   12 1
  17    9   10 2
  18    9   32 1
  19   10   11 1
  20   10   33 1
  21   11   12 1
  22   11   14 1
  23   12   16 2
  24   14   15 2
  25   14   17 1
  26   15   16 1
  27   17   26 1
  28   17   18 1
  29   17   34 1
  30   18   26 1
  31   18   35 1
  32   18   36 1
  33   19   20 1
  34   19   37 1
  35   20   21 1
  36   20   25 1
  37   20   38 1
  38   21   22 1
  39   21   39 1
  40   21   40 1
  41   22   23 1
  42   22   41 1
  43   22   42 1
  44   23   24 1
  45   23   28 1
  46   23   43 1
  47   24   25 1
  48   24   44 1
  49   24   45 1
  50   25   46 1
  51   25   47 1
  52   26   48 1
  53   26   49 1
  54   28   50 1

#	End of record

