#	Name: ASD00510027
#	Creating user name:	WinNT
#	Creation time:	15. 06. 2019 18:36

#	Modifying user name:	WinNT
#	Modification time:	15. 06. 2019 18:36

#	Program:	/corina/corina34_cracker 3.40 0067  02.08.2006

@<TRIPOS>MOLECULE
ASD00510027
  45   48    0    0    0
SMALL
NO_CHARGES


@<TRIPOS>ATOM
   1 C1            -0.0178     1.4582     0.0101 C.ar    
   2 C2            -1.2286    -0.7045     0.0101 C.ar    
   3 C3            -2.4344     0.0174     0.0250 C.ar    
   4 C4            -2.4293     1.3787     0.0216 C.ar    
   5 C5            -1.2476     2.1068     0.0195 C.ar    
   6 C6             0.0021    -0.0041     0.0020 C.ar    
   7 C7             1.2050    -0.7192    -0.0139 C.ar    
   8 C8             1.1786    -2.0823    -0.0213 C.ar    
   9 C9            -0.0300    -2.7744    -0.0138 C.ar    
  10 C10           -1.2184    -2.1099     0.0012 C.ar    
  11 S11           -3.9688    -0.8487     0.0351 S.o2    
  12 O12           -4.4063    -0.9056    -1.3157 O.2     
  13 O13           -3.7719    -2.0047     0.8376 O.2     
  14 O14           -4.9731     0.0227     0.7757 O.3     
  15 N15            1.1439     2.1697     0.0028 N.2     
  16 N16            1.1105     3.4592     0.0100 N.2     
  17 C17            2.2718     4.1706     0.0028 C.ar    
  18 C18            3.4396     6.2890     0.0025 C.ar    
  19 C19            3.4433     7.6938     0.0105 C.ar    
  20 C20            4.6282     8.3650     0.0028 C.ar    
  21 C21            5.8398     7.6779    -0.0135 C.ar    
  22 C22            5.8736     6.3163    -0.0221 C.ar    
  23 C23            4.6720     5.5897    -0.0135 C.ar    
  24 C24            4.6764     4.1810    -0.0266 C.ar    
  25 C25            3.5072     3.4946    -0.0185 C.ar    
  26 C26            2.2315     5.5648     0.0106 C.ar    
  27 O27            1.0424     6.2158     0.0255 O.3     
  28 S28            7.4189     5.4700    -0.0439 S.o2    
  29 O29            7.8591     5.4036     1.3056 O.2     
  30 O30            7.2355     4.3206    -0.8590 O.2     
  31 O31            8.4110     6.3623    -0.7762 O.3     
  32 H32           -3.3712     1.9070     0.0330 H       
  33 H33           -1.2838     3.1861     0.0255 H       
  34 H34            2.1489    -0.1942    -0.0206 H       
  35 H35            2.1076    -2.6329    -0.0336 H       
  36 H36           -0.0245    -3.8543    -0.0203 H       
  37 H37           -2.1479    -2.6598     0.0080 H       
  38 H38           -5.8574    -0.3634     0.8392 H       
  39 H39            2.5109     8.2388     0.0224 H       
  40 H40            4.6285     9.4450     0.0090 H       
  41 H41            6.7661     8.2331    -0.0198 H       
  42 H42            5.6145     3.6460    -0.0392 H       
  43 H43            3.5234     2.4148    -0.0282 H       
  44 H44            0.7059     6.3999     0.9131 H       
  45 H45            9.3000     5.9882    -0.8451 H       
@<TRIPOS>BOND
   1    1    6 ar
   2    1   15 1
   3    1    5 ar
   4    2    3 ar
   5    2    6 ar
   6    2   10 ar
   7    3    4 ar
   8    3   11 1
   9    4    5 ar
  10    4   32 1
  11    5   33 1
  12    6    7 ar
  13    7    8 ar
  14    7   34 1
  15    8    9 ar
  16    8   35 1
  17    9   10 ar
  18    9   36 1
  19   10   37 1
  20   11   12 2
  21   11   13 2
  22   11   14 1
  23   14   38 1
  24   15   16 2
  25   16   17 1
  26   17   26 ar
  27   17   25 ar
  28   18   19 ar
  29   18   23 ar
  30   18   26 ar
  31   19   20 ar
  32   19   39 1
  33   20   21 ar
  34   20   40 1
  35   21   22 ar
  36   21   41 1
  37   22   23 ar
  38   22   28 1
  39   23   24 ar
  40   24   25 ar
  41   24   42 1
  42   25   43 1
  43   26   27 1
  44   27   44 1
  45   28   29 2
  46   28   30 2
  47   28   31 1
  48   31   45 1

#	End of record

