#	Name: ASD00310077
#	Creating user name:	WinNT
#	Creation time:	15. 06. 2019 18:33

#	Modifying user name:	WinNT
#	Modification time:	15. 06. 2019 18:33

#	Program:	/corina/corina34_cracker 3.40 0067  02.08.2006

@<TRIPOS>MOLECULE
ASD00310077
  42   45    0    0    0
SMALL
NO_CHARGES


@<TRIPOS>ATOM
   1 N1             1.3093    -1.2313     2.6972 N.pl3   
   2 C2             1.6575    -2.5209     2.5269 C.2     
   3 C3             2.9558    -2.5938     2.0691 C.2     
   4 C4             3.4301    -1.2003     1.9552 C.ar    
   5 C5             4.6282    -0.6181     1.5576 C.ar    
   6 C6             4.7510     0.7661     1.5669 C.ar    
   7 C7             3.6752     1.5605     1.9737 C.ar    
   8 C8             2.4977     0.9906     2.3646 C.ar    
   9 C9             2.3544    -0.3946     2.3624 C.ar    
  10 C10            3.6880    -3.7695     1.7692 C.2     
  11 O11            3.1711    -4.8589     1.9097 O.2     
  12 C12            3.8167     3.0608     1.9814 C.3     
  13 C13            6.0243     1.4008     1.1455 C.ar    
  14 C14            7.2338     0.9673     1.6848 C.ar    
  15 C15            8.4152     1.5609     1.2889 C.ar    
  16 C16            8.4000     2.5847     0.3589 C.ar    
  17 C17            7.2023     3.0190    -0.1798 C.ar    
  18 C18            6.0154     2.4287     0.2047 C.ar    
  19 C19            9.6931     3.2296    -0.0688 C.3     
  20 C20           10.7582     2.3284    -0.6967 C.3     
  21 C21            9.9782     3.3135    -1.5697 C.3     
  22 C22           10.1748     4.3872     0.8080 C.3     
  23 O23            9.2482     5.4713     0.7170 O.3     
  24 H24            0.4411    -0.9313     3.0088 H       
  25 H25            1.0172    -3.3690     2.7198 H       
  26 H26            5.4566    -1.2362     1.2445 H       
  27 H27            1.6747     1.6163     2.6768 H       
  28 H28            4.7058    -3.6963     1.4156 H       
  29 H29            3.5115     3.4595     1.0139 H       
  30 H30            3.1845     3.4813     2.7634 H       
  31 H31            4.8563     3.3268     2.1724 H       
  32 H32            7.2467     0.1685     2.4116 H       
  33 H33            9.3532     1.2257     1.7063 H       
  34 H34            7.1962     3.8190    -0.9053 H       
  35 H35            5.0812     2.7657    -0.2196 H       
  36 H36           11.8021     2.5604    -0.4855 H       
  37 H37           10.5236     1.2690    -0.8005 H       
  38 H38            9.2305     2.9023    -2.2477 H       
  39 H39           10.5089     4.1937    -1.9327 H       
  40 H40           10.2439     4.0543     1.8436 H       
  41 H41           11.1557     4.7180     0.4666 H       
  42 H42            9.4907     6.2417     1.2488 H       
@<TRIPOS>BOND
   1    1    2 1
   2    1    9 1
   3    1   24 1
   4    2    3 2
   5    2   25 1
   6    3    4 1
   7    3   10 1
   8    4    5 ar
   9    4    9 ar
  10    5    6 ar
  11    5   26 1
  12    6    7 ar
  13    6   13 1
  14    7    8 ar
  15    7   12 1
  16    8    9 ar
  17    8   27 1
  18   10   11 2
  19   10   28 1
  20   12   29 1
  21   12   30 1
  22   12   31 1
  23   13   14 ar
  24   13   18 ar
  25   14   15 ar
  26   14   32 1
  27   15   16 ar
  28   15   33 1
  29   16   17 ar
  30   16   19 1
  31   17   18 ar
  32   17   34 1
  33   18   35 1
  34   19   20 1
  35   19   21 1
  36   19   22 1
  37   20   21 1
  38   20   36 1
  39   20   37 1
  40   21   38 1
  41   21   39 1
  42   22   23 1
  43   22   40 1
  44   22   41 1
  45   23   42 1

#	End of record

