#	Name: ASD04842009
#	Creating user name:	WinNT
#	Creation time:	15. 06. 2019 20:52

#	Modifying user name:	WinNT
#	Modification time:	15. 06. 2019 20:52

#	Program:	/corina/corina34_cracker 3.40 0067  02.08.2006

@<TRIPOS>MOLECULE
ASD04842009
  30   31    0    0    0
SMALL
NO_CHARGES


@<TRIPOS>ATOM
   1 C1             2.3495     1.4441     0.5641 C.2     
   2 C2             2.1901    -0.0224     0.7187 C.2     
   3 C3             1.2554    -0.7150    -0.0709 C.2     
   4 O4             1.6729     2.0464    -0.2443 O.2     
   5 O5             3.2407     2.1083     1.3242 O.3     
   6 C6             2.5971    -2.7142    -0.4210 C.ar    
   7 C7             1.3489    -2.1160    -0.2088 C.ar    
   8 C8             0.1811    -2.9115    -0.1317 C.ar    
   9 C9             0.2504    -4.2568    -0.2610 C.ar    
  10 C10            1.4943    -4.8861    -0.4759 C.ar    
  11 C11            1.5830    -6.2789    -0.6114 C.ar    
  12 C12            2.7976    -6.8635    -0.8181 C.ar    
  13 C13            3.9588    -6.0982    -0.8977 C.ar    
  14 C14            3.9138    -4.7434    -0.7707 C.ar    
  15 C15            2.6769    -4.1045    -0.5567 C.ar    
  16 N16            2.9244    -0.6761     1.5960 N.2     
  17 N17            2.7229    -1.7631     1.7988 N.1     
  18 N18            2.5214    -2.8501     2.0016 N.pl3   
  19 C19            3.3432     3.5421     1.1190 C.3     
  20 H20            0.4658    -0.1746    -0.5719 H       
  21 H21            3.4887    -2.1080    -0.4841 H       
  22 H22           -0.7764    -2.4396     0.0326 H       
  23 H23           -0.6497    -4.8505    -0.1991 H       
  24 H24            0.6923    -6.8868    -0.5518 H       
  25 H25            2.8603    -7.9368    -0.9214 H       
  26 H26            4.9080    -6.5864    -1.0621 H       
  27 H27            4.8216    -4.1617    -0.8337 H       
  28 H28            2.3793     4.0082     1.3231 H       
  29 H29            4.0953     3.9527     1.7927 H       
  30 H30            3.6321     3.7417     0.0871 H       
@<TRIPOS>BOND
   1    1    2 1
   2    1    4 2
   3    1    5 1
   4    2    3 2
   5    2   16 1
   6    3    7 1
   7    3   20 1
   8    5   19 1
   9    6    7 ar
  10    6   15 ar
  11    6   21 1
  12    7    8 ar
  13    8    9 ar
  14    8   22 1
  15    9   10 ar
  16    9   23 1
  17   10   11 ar
  18   10   15 ar
  19   11   12 ar
  20   11   24 1
  21   12   13 ar
  22   12   25 1
  23   13   14 ar
  24   13   26 1
  25   14   15 ar
  26   14   27 1
  27   16   17 2
  28   17   18 2
  29   19   28 1
  30   19   29 1
  31   19   30 1

#	End of record

