#	Name: ASD01812189
#	Creating user name:	WinNT
#	Creation time:	15. 06. 2019 19:28

#	Modifying user name:	WinNT
#	Modification time:	15. 06. 2019 19:28

#	Program:	/corina/corina34_cracker 3.40 0067  02.08.2006

@<TRIPOS>MOLECULE
ASD01812189
  70   76    0    0    0
SMALL
NO_CHARGES


@<TRIPOS>ATOM
   1 C1             0.8922     1.9842     0.1777 C.ar    
   2 C2             0.6220     0.6179     0.2099 C.ar    
   3 C3             1.6234    -0.2981     0.0969 C.ar    
   4 C4             2.9500     0.1358    -0.0550 C.ar    
   5 C5             3.2260     1.5276    -0.0884 C.ar    
   6 C6             2.1654     2.4429     0.0319 C.ar    
   7 C7             4.0080    -0.7839    -0.1749 C.ar    
   8 C8             5.2826    -0.3431    -0.3213 C.ar    
   9 C9             5.5728     1.0351    -0.3559 C.ar    
  10 C10            4.5478     1.9606    -0.2402 C.ar    
  11 C11            3.7244    -2.2635    -0.1399 C.3     
  12 C12            6.8455     1.7686    -0.5021 C.2     
  13 N13            6.6257     3.0943    -0.4783 N.am    
  14 C14            5.1858     3.3250    -0.3144 C.3     
  15 O15            7.9369     1.2478    -0.6258 O.2     
  16 C16            7.6510     4.1340    -0.5965 C.3     
  17 C17            8.6587     3.9888     0.5456 C.3     
  18 C18            9.7294     5.0747     0.4221 C.3     
  19 C19           10.4528     4.9276    -0.9181 C.3     
  20 C20            9.4451     5.0729    -2.0602 C.3     
  21 C21            8.3743     3.9870    -1.9367 C.3     
  22 N22            3.4814    -2.6829     1.2468 N.3     
  23 C23            3.1079    -4.0995     1.3095 C.3     
  24 C24            2.9588    -4.5428     2.7413 C.ar    
  25 C25            3.4882    -3.8166     3.7864 C.ar    
  26 C26            4.2414    -2.5317     3.5556 C.3     
  27 C27            4.6612    -2.4293     2.0890 C.3     
  28 F28            8.9781     2.7268    -2.0049 F       
  29 C29            2.2677    -5.7174     3.0004 C.ar    
  30 C30            2.1094    -6.1626     4.2972 C.ar    
  31 C31            2.6426    -5.4349     5.3449 C.ar    
  32 C32            3.3302    -4.2657     5.0890 C.ar    
  33 C33            1.8007    -4.3018     0.5876 C.ar    
  34 C34            1.6547    -5.3172    -0.3451 C.ar    
  35 C35            0.4407    -5.4725    -0.9871 C.ar    
  36 N36           -0.5705    -4.6688    -0.7215 N.ar    
  37 C37           -0.4677    -3.6928     0.1593 C.ar    
  38 C38            0.7136    -3.4804     0.8445 C.ar    
  39 H39            0.0792     2.6897     0.2653 H       
  40 H40           -0.3971     0.2799     0.3266 H       
  41 H41            1.3980    -1.3540     0.1244 H       
  42 H42            2.3600     3.5050     0.0080 H       
  43 H43            6.0863    -1.0588    -0.4124 H       
  44 H44            2.8434    -2.4790    -0.7444 H       
  45 H45            4.5808    -2.8071    -0.5391 H       
  46 H46            4.7946     3.8757    -1.1698 H       
  47 H47            4.9971     3.8775     0.6060 H       
  48 H48            7.1806     5.1159    -0.5434 H       
  49 H49            8.1433     4.0936     1.5003 H       
  50 H50            9.1291     3.0070     0.4924 H       
  51 H51            9.2590     6.0565     0.4753 H       
  52 H52           10.4473     4.9712     1.2357 H       
  53 H53           11.2156     5.7012    -1.0060 H       
  54 H54           10.9232     3.9458    -0.9712 H       
  55 H55            8.9747     6.0547    -2.0070 H       
  56 H56            9.9604     4.9681    -3.0149 H       
  57 H57            7.6564     4.0905    -2.7503 H       
  58 H58            3.8811    -4.6971     0.8266 H       
  59 H59            3.6014    -1.6865     3.8088 H       
  60 H60            5.1290    -2.5139     4.1881 H       
  61 H61            5.4301    -3.1718     1.8754 H       
  62 H62            5.0470    -1.4300     1.8874 H       
  63 H63            1.8507    -6.2866     2.1827 H       
  64 H64            1.5699    -7.0774     4.4931 H       
  65 H65            2.5212    -5.7802     6.3610 H       
  66 H66            3.7468    -3.6974     5.9074 H       
  67 H67            2.4794    -5.9782    -0.5675 H       
  68 H68            0.3188    -6.2611    -1.7149 H       
  69 H69           -1.3177    -3.0544     0.3502 H       
  70 H70            0.7915    -2.6796     1.5649 H       
@<TRIPOS>BOND
   1    1    2 ar
   2    1    6 ar
   3    1   39 1
   4    2    3 ar
   5    2   40 1
   6    3    4 ar
   7    3   41 1
   8    4    5 ar
   9    4    7 ar
  10    5    6 ar
  11    5   10 ar
  12    6   42 1
  13    7    8 ar
  14    7   11 1
  15    8    9 ar
  16    8   43 1
  17    9   10 ar
  18    9   12 1
  19   10   14 1
  20   11   22 1
  21   11   44 1
  22   11   45 1
  23   12   13 am
  24   12   15 2
  25   13   14 1
  26   13   16 1
  27   14   46 1
  28   14   47 1
  29   16   17 1
  30   16   21 1
  31   16   48 1
  32   17   18 1
  33   17   49 1
  34   17   50 1
  35   18   19 1
  36   18   51 1
  37   18   52 1
  38   19   20 1
  39   19   53 1
  40   19   54 1
  41   20   21 1
  42   20   55 1
  43   20   56 1
  44   21   28 1
  45   21   57 1
  46   22   23 1
  47   22   27 1
  48   23   24 1
  49   23   33 1
  50   23   58 1
  51   24   25 ar
  52   24   29 ar
  53   25   26 1
  54   25   32 ar
  55   26   27 1
  56   26   59 1
  57   26   60 1
  58   27   61 1
  59   27   62 1
  60   29   30 ar
  61   29   63 1
  62   30   31 ar
  63   30   64 1
  64   31   32 ar
  65   31   65 1
  66   32   66 1
  67   33   34 ar
  68   33   38 ar
  69   34   35 ar
  70   34   67 1
  71   35   36 ar
  72   35   68 1
  73   36   37 ar
  74   37   38 ar
  75   37   69 1
  76   38   70 1

#	End of record

