#	Name: ASD03731721
#	Creating user name:	WinNT
#	Creation time:	15. 06. 2019 20:46

#	Modifying user name:	WinNT
#	Modification time:	15. 06. 2019 20:46

#	Program:	/corina/corina34_cracker 3.40 0067  02.08.2006

@<TRIPOS>MOLECULE
ASD03731721
  42   43    0    0    0
SMALL
NO_CHARGES


@<TRIPOS>ATOM
   1 C1             0.1065     1.3991     0.8814 C.2     
   2 C2             0.0938    -0.0576     0.6438 C.ar    
   3 C3             0.2779    -0.9428     1.7093 C.ar    
   4 C4             0.2648    -2.3010     1.4837 C.ar    
   5 C5             0.0694    -2.7921     0.1979 C.ar    
   6 C6            -0.1141    -1.9147    -0.8648 C.ar    
   7 C7            -0.1082    -0.5552    -0.6463 C.ar    
   8 O8             0.2773     1.8303     2.0053 O.2     
   9 N9            -0.0656     2.2514    -0.1484 N.am    
  10 S10           -0.0513     3.8857     0.1181 S.o2    
  11 O11           -0.2837     4.4520    -1.1643 O.2     
  12 O12           -0.9751     4.0755     1.1811 O.2     
  13 C13            1.6391     4.2390     0.6731 C.3     
  14 O14            0.0581    -4.1313    -0.0206 O.3     
  15 C15           -1.1273    -4.7861     0.0918 C.ar    
  16 C16           -2.2970    -4.0729     0.3140 C.ar    
  17 C17           -3.5005    -4.7409     0.4279 C.ar    
  18 C18           -3.5406    -6.1191     0.3212 C.ar    
  19 C19           -2.3768    -6.8319     0.1003 C.ar    
  20 C20           -1.1712    -6.1681    -0.0210 C.ar    
  21 C21           -4.7710    -3.9672     0.6692 C.3     
  22 C22           -5.7485    -4.2206    -0.4801 C.3     
  23 C23           -5.4031    -4.4224     1.9861 C.3     
  24 H24            0.4305    -0.5620     2.7084 H       
  25 H25            0.4070    -2.9858     2.3067 H       
  26 H26           -0.2653    -2.3000    -1.8623 H       
  27 H27           -0.2549     0.1257    -1.4717 H       
  28 H28           -0.1979     1.9074    -1.0457 H       
  29 H29            2.3452     3.9473    -0.1043 H       
  30 H30            1.7401     5.3056     0.8741 H       
  31 H31            1.8478     3.6765     1.5831 H       
  32 H32           -2.2661    -2.9967     0.3981 H       
  33 H33           -4.4827    -6.6395     0.4110 H       
  34 H34           -2.4108    -7.9082     0.0177 H       
  35 H35           -0.2631    -6.7250    -0.1987 H       
  36 H36           -4.5432    -2.9027     0.7245 H       
  37 H37           -6.6675    -3.6609    -0.3056 H       
  38 H38           -5.2982    -3.8962    -1.4183 H       
  39 H39           -5.9763    -5.2851    -0.5354 H       
  40 H40           -4.7066    -4.2419     2.8049 H       
  41 H41           -6.3220    -3.8628     2.1606 H       
  42 H42           -5.6309    -5.4869     1.9309 H       
@<TRIPOS>BOND
   1    1    2 1
   2    1    8 2
   3    1    9 am
   4    2    3 ar
   5    2    7 ar
   6    3    4 ar
   7    3   24 1
   8    4    5 ar
   9    4   25 1
  10    5    6 ar
  11    5   14 1
  12    6    7 ar
  13    6   26 1
  14    7   27 1
  15    9   10 am
  16    9   28 1
  17   10   11 2
  18   10   12 2
  19   10   13 1
  20   13   29 1
  21   13   30 1
  22   13   31 1
  23   14   15 1
  24   15   16 ar
  25   15   20 ar
  26   16   17 ar
  27   16   32 1
  28   17   18 ar
  29   17   21 1
  30   18   19 ar
  31   18   33 1
  32   19   20 ar
  33   19   34 1
  34   20   35 1
  35   21   22 1
  36   21   23 1
  37   21   36 1
  38   22   37 1
  39   22   38 1
  40   22   39 1
  41   23   40 1
  42   23   41 1
  43   23   42 1

#	End of record

