#	Name: ASD07931750
#	Creating user name:	WinNT
#	Creation time:	15. 06. 2019 21:13

#	Modifying user name:	WinNT
#	Modification time:	15. 06. 2019 21:13

#	Program:	/corina/corina34_cracker 3.40 0067  02.08.2006

@<TRIPOS>MOLECULE
ASD07931750
  57   61    0    0    0
SMALL
NO_CHARGES


@<TRIPOS>ATOM
   1 C1             1.3373     1.5790     0.2328 C.2     
   2 C2             0.8972     0.1680     0.1622 C.2     
   3 N3             2.6862     1.8512     0.1973 N.am    
   4 N4             1.7750    -0.8034     0.5096 N.am    
   5 C5             3.1136    -0.4133     0.9750 C.3     
   6 C6             3.6261     0.7278     0.0837 C.3     
   7 C7             0.4224     2.5823     0.3253 C.2     
   8 C8             0.8342     3.9190     0.3943 C.2     
   9 C9             2.1697     4.2145     0.3694 C.2     
  10 C10            3.1342     3.1170     0.2636 C.2     
  11 O11           -0.2288    -0.1136    -0.1997 O.2     
  12 O12            4.3309     3.3491     0.2360 O.2     
  13 C13            1.3975    -2.2162     0.4226 C.3     
  14 C14            0.1823    -2.4954     1.3309 C.3     
  15 C15           -0.6593    -3.5231     0.5341 C.3     
  16 C16           -0.5041    -3.0326    -0.9268 C.3     
  17 C17            0.9611    -2.5578    -1.0129 C.3     
  18 O18            0.6063    -3.0541     2.5759 O.3     
  19 C19           -0.2253    -2.8945     3.6389 C.ar    
  20 C20            0.1758    -3.3036     4.9026 C.ar    
  21 C21           -0.6713    -3.1403     5.9813 C.ar    
  22 C22           -1.9184    -2.5702     5.8025 C.ar    
  23 C23           -2.3206    -2.1622     4.5444 C.ar    
  24 C24           -1.4743    -2.3172     3.4633 C.ar    
  25 C25            1.5343    -3.9259     5.0979 C.3     
  26 F26            1.7079    -4.2528     6.4471 F       
  27 F27            1.6323    -5.0851     4.3209 F       
  28 F28            2.5239    -3.0175     4.7072 F       
  29 C29            3.3291     6.1028     1.4416 C.2     
  30 N30            3.5436     7.3561     1.1476 N.2     
  31 C31            2.9762     7.6390    -0.0346 C.2     
  32 C32            2.3853     6.5206    -0.4961 C.2     
  33 N33            2.6060     5.5407     0.4375 N.pl3   
  34 C34            2.9963     8.9776    -0.7266 C.3     
  35 H35            3.0571    -0.0732     2.0090 H       
  36 H36            3.7891    -1.2657     0.9032 H       
  37 H37            3.6755     0.3922    -0.9522 H       
  38 H38            4.6154     1.0402     0.4179 H       
  39 H39           -0.6311     2.3454     0.3452 H       
  40 H40            0.1030     4.7105     0.4664 H       
  41 H41            2.2367    -2.8462     0.7176 H       
  42 H42           -0.3883    -1.5815     1.4963 H       
  43 H43           -0.2527    -4.5278     0.6496 H       
  44 H44           -1.7039    -3.4900     0.8438 H       
  45 H45           -0.6816    -3.8508    -1.6248 H       
  46 H46           -1.1855    -2.2055    -1.1260 H       
  47 H47            1.0302    -1.6724    -1.6448 H       
  48 H48            1.5885    -3.3535    -1.4145 H       
  49 H49           -0.3595    -3.4586     6.9651 H       
  50 H50           -2.5794    -2.4437     6.6472 H       
  51 H51           -3.2952    -1.7175     4.4073 H       
  52 H52           -1.7871    -1.9940     2.4814 H       
  53 H53            3.6726     5.5961     2.3313 H       
  54 H54            1.8419     6.4155    -1.4235 H       
  55 H55            3.8711     9.0390    -1.3739 H       
  56 H56            2.0925     9.0907    -1.3254 H       
  57 H57            3.0397     9.7714     0.0191 H       
@<TRIPOS>BOND
   1    1    2 1
   2    1    3 1
   3    1    7 2
   4    2    4 am
   5    2   11 2
   6    3    6 1
   7    3   10 am
   8    4    5 1
   9    4   13 1
  10    5    6 1
  11    5   35 1
  12    5   36 1
  13    6   37 1
  14    6   38 1
  15    7    8 1
  16    7   39 1
  17    8    9 2
  18    8   40 1
  19    9   10 1
  20    9   33 1
  21   10   12 2
  22   13   14 1
  23   13   17 1
  24   13   41 1
  25   14   15 1
  26   14   18 1
  27   14   42 1
  28   15   16 1
  29   15   43 1
  30   15   44 1
  31   16   17 1
  32   16   45 1
  33   16   46 1
  34   17   47 1
  35   17   48 1
  36   18   19 1
  37   19   20 ar
  38   19   24 ar
  39   20   21 ar
  40   20   25 1
  41   21   22 ar
  42   21   49 1
  43   22   23 ar
  44   22   50 1
  45   23   24 ar
  46   23   51 1
  47   24   52 1
  48   25   26 1
  49   25   27 1
  50   25   28 1
  51   29   30 2
  52   29   33 1
  53   29   53 1
  54   30   31 1
  55   31   32 2
  56   31   34 1
  57   32   33 1
  58   32   54 1
  59   34   55 1
  60   34   56 1
  61   34   57 1

#	End of record

