#	Name: ASD03091221
#	Creating user name:	WinNT
#	Creation time:	15. 06. 2019 20:30

#	Modifying user name:	WinNT
#	Modification time:	15. 06. 2019 20:30

#	Program:	/corina/corina34_cracker 3.40 0067  02.08.2006

@<TRIPOS>MOLECULE
ASD03091221
  54   58    0    0    0
SMALL
NO_CHARGES


@<TRIPOS>ATOM
   1 N1            -0.0156     1.2938     0.0083 N.2     
   2 C2             0.0020    -0.0037     0.0377 C.2     
   3 N3             1.1473    -0.7357     0.0631 N.am    
   4 C4             2.3551    -0.1250     0.0587 C.2     
   5 C5             2.3702     1.3451     0.0257 C.ar    
   6 C6             3.5599     2.0695     0.0191 C.ar    
   7 C7             3.5112     3.4529    -0.0120 C.ar    
   8 C8             2.2840     4.1153    -0.0365 C.ar    
   9 C9             1.1102     3.4175    -0.0299 C.ar    
  10 C10            1.1302     2.0213     0.0008 C.ar    
  11 O11            3.3888    -0.7676     0.0816 O.2     
  12 C12            1.0735    -2.1985     0.0959 C.3     
  13 C13            1.0587    -2.7407    -1.3347 C.3     
  14 C14            1.1024    -4.2594    -1.5152 C.3     
  15 C15           -0.1925    -3.4930    -1.7922 C.3     
  16 C16           -1.3148    -0.7364     0.0445 C.3     
  17 C17           -2.4618     0.2757     0.0132 C.3     
  18 N18            7.4300     4.9438    -0.8797 N.3     
  19 C19            7.1618     4.0794     0.2797 C.3     
  20 C20            5.8665     3.3067     0.0855 C.3     
  21 N21            4.6987     4.1899    -0.0184 N.3     
  22 C22            4.7904     5.0305    -1.2204 C.3     
  23 C23            5.4175     6.3745    -0.8817 C.3     
  24 C24            6.9097     6.2957    -0.6296 C.3     
  25 C25            7.0416     4.4208    -2.1720 C.3     
  26 C26            5.5348     4.2710    -2.3033 C.3     
  27 H27            4.5106     1.5574     0.0384 H       
  28 H28            2.2618     5.1948    -0.0607 H       
  29 H29            0.1676     3.9444    -0.0484 H       
  30 H30            1.9401    -2.5942     0.6255 H       
  31 H31            0.1625    -2.5049     0.6100 H       
  32 H32            1.5782    -2.1309    -2.0739 H       
  33 H33            1.6502    -4.6487    -2.3733 H       
  34 H34            1.1416    -4.8722    -0.6147 H       
  35 H35           -1.0052    -3.6017    -1.0740 H       
  36 H36           -0.4966    -3.3781    -2.8326 H       
  37 H37           -1.3760    -1.3820    -0.8317 H       
  38 H38           -1.3891    -1.3419     0.9478 H       
  39 H39           -3.4143    -0.2542     0.0181 H       
  40 H40           -2.4006     0.9213     0.8894 H       
  41 H41           -2.3875     0.8812    -0.8901 H       
  42 H42            7.9851     3.3754     0.4008 H       
  43 H43            7.0819     4.6949     1.1757 H       
  44 H44            5.9426     2.7133    -0.8256 H       
  45 H45            5.7263     2.6342     0.9319 H       
  46 H46            3.7786     5.2109    -1.5835 H       
  47 H47            5.2386     7.0620    -1.7084 H       
  48 H48            4.9329     6.7714     0.0104 H       
  49 H49            7.1105     6.5683     0.4065 H       
  50 H50            7.4193     7.0003    -1.2868 H       
  51 H51            7.3987     5.0968    -2.9488 H       
  52 H52            7.5074     3.4455    -2.3131 H       
  53 H53            5.2767     3.2142    -2.2362 H       
  54 H54            5.2249     4.6486    -3.2777 H       
@<TRIPOS>BOND
   1    1    2 2
   2    1   10 1
   3    2    3 1
   4    2   16 1
   5    3    4 am
   6    3   12 1
   7    4    5 1
   8    4   11 2
   9    5    6 ar
  10    5   10 ar
  11    6    7 ar
  12    6   27 1
  13    7    8 ar
  14    7   21 1
  15    8    9 ar
  16    8   28 1
  17    9   10 ar
  18    9   29 1
  19   12   13 1
  20   12   30 1
  21   12   31 1
  22   13   14 1
  23   13   15 1
  24   13   32 1
  25   14   15 1
  26   14   33 1
  27   14   34 1
  28   15   35 1
  29   15   36 1
  30   16   17 1
  31   16   37 1
  32   16   38 1
  33   17   39 1
  34   17   40 1
  35   17   41 1
  36   18   19 1
  37   18   24 1
  38   18   25 1
  39   19   20 1
  40   19   42 1
  41   19   43 1
  42   20   21 1
  43   20   44 1
  44   20   45 1
  45   21   22 1
  46   22   23 1
  47   22   26 1
  48   22   46 1
  49   23   24 1
  50   23   47 1
  51   23   48 1
  52   24   49 1
  53   24   50 1
  54   25   26 1
  55   25   51 1
  56   25   52 1
  57   26   53 1
  58   26   54 1

#	End of record

