#	Name: ASD01916938
#	Creating user name:	WinNT
#	Creation time:	15. 06. 2019 20:08

#	Modifying user name:	WinNT
#	Modification time:	15. 06. 2019 20:08

#	Program:	/corina/corina34_cracker 3.40 0067  02.08.2006

@<TRIPOS>MOLECULE
ASD01916938
  55   59    0    0    0
SMALL
NO_CHARGES


@<TRIPOS>ATOM
   1 C1            -0.0028     1.3472     0.1637 C.ar    
   2 C2             0.0295    -0.0122     0.4293 C.ar    
   3 C3             1.2428    -0.6646     0.5769 C.ar    
   4 C4             2.4247     0.0376     0.4597 C.ar    
   5 C5             2.3968     1.4049     0.1925 C.ar    
   6 C6             1.1743     2.0571     0.0449 C.ar    
   7 C7             3.6654     2.1644     0.0661 C.2     
   8 N8             4.8944     1.6503     0.1869 N.2     
   9 N9             3.7637     3.4514    -0.1886 N.2     
  10 N10            5.1337     3.7577    -0.2226 N.pl3   
  11 C11            5.7910     2.5992     0.0174 C.2     
  12 C12            7.2594     2.4290     0.0784 C.ar    
  13 C13            5.7332     5.0708    -0.4731 C.3     
  14 C14            5.8628     5.8202     0.8280 C.2     
  15 O15            5.4911     5.3079     1.8625 O.2     
  16 N16            6.3919     7.0597     0.8419 N.am    
  17 C17            6.5275     7.8085     2.1005 C.3     
  18 C18            7.9700     8.3132     2.2136 C.3     
  19 N19            8.3181     9.0670     1.0017 N.3     
  20 C20            8.2786     8.2084    -0.1896 C.3     
  21 C21            6.8544     7.6970    -0.4003 C.3     
  22 C22            9.5554     9.6759     1.1341 C.ar    
  23 C23            8.0834     3.5331     0.2985 C.ar    
  24 C24            9.4517     3.3692     0.3545 C.ar    
  25 C25           10.0084     2.1105     0.1922 C.ar    
  26 C26            9.1942     1.0106    -0.0271 C.ar    
  27 C27            7.8244     1.1629    -0.0782 C.ar    
  28 F28           11.3493     1.9552     0.2475 F       
  29 F29           -1.1254    -0.7035     0.5453 F       
  30 N30           10.2631     9.5320     2.2505 N.ar    
  31 C31           10.0820    10.4460     0.0947 C.ar    
  32 C32           11.3192    11.0319     0.2751 C.ar    
  33 N33           11.9622    10.8462     1.4195 N.ar    
  34 C34           11.4406    10.1095     2.3794 C.ar    
  35 H35           -0.9507     1.8510     0.0449 H       
  36 H36            1.2636    -1.7243     0.7843 H       
  37 H37            3.3701    -0.4716     0.5751 H       
  38 H38            1.1483     3.1166    -0.1625 H       
  39 H39            6.7199     4.9409    -0.9175 H       
  40 H40            5.0986     5.6356    -1.1560 H       
  41 H41            5.8422     8.6561     2.0980 H       
  42 H42            6.3016     7.1538     2.9422 H       
  43 H43            8.0610     8.9624     3.0844 H       
  44 H44            8.6451     7.4641     2.3202 H       
  45 H45            8.5934     8.7816    -1.0616 H       
  46 H46            8.9494     7.3608    -0.0495 H       
  47 H47            6.8427     6.9705    -1.2128 H       
  48 H48            6.1975     8.5324    -0.6429 H       
  49 H49            7.6506     4.5146     0.4244 H       
  50 H50           10.0904     4.2233     0.5248 H       
  51 H51            9.6329     0.0318    -0.1533 H       
  52 H52            7.1908     0.3051    -0.2488 H       
  53 H53            9.5354    10.5796    -0.8271 H       
  54 H54           11.7581    11.6339    -0.5069 H       
  55 H55           11.9915     9.9790     3.2991 H       
@<TRIPOS>BOND
   1    1    2 ar
   2    1    6 ar
   3    1   35 1
   4    2    3 ar
   5    2   29 1
   6    3    4 ar
   7    3   36 1
   8    4    5 ar
   9    4   37 1
  10    5    6 ar
  11    5    7 1
  12    6   38 1
  13    7    8 1
  14    7    9 2
  15    8   11 2
  16    9   10 1
  17   10   11 1
  18   10   13 1
  19   11   12 1
  20   12   23 ar
  21   12   27 ar
  22   13   14 1
  23   13   39 1
  24   13   40 1
  25   14   15 2
  26   14   16 am
  27   16   17 1
  28   16   21 1
  29   17   18 1
  30   17   41 1
  31   17   42 1
  32   18   19 1
  33   18   43 1
  34   18   44 1
  35   19   20 1
  36   19   22 1
  37   20   21 1
  38   20   45 1
  39   20   46 1
  40   21   47 1
  41   21   48 1
  42   22   31 ar
  43   22   30 ar
  44   23   24 ar
  45   23   49 1
  46   24   25 ar
  47   24   50 1
  48   25   26 ar
  49   25   28 1
  50   26   27 ar
  51   26   51 1
  52   27   52 1
  53   30   34 ar
  54   31   32 ar
  55   31   53 1
  56   32   33 ar
  57   32   54 1
  58   33   34 ar
  59   34   55 1

#	End of record

