#	Name: ASD01150671
#	Creating user name:	WinNT
#	Creation time:	15. 06. 2019 19:04

#	Modifying user name:	WinNT
#	Modification time:	15. 06. 2019 19:04

#	Program:	/corina/corina34_cracker 3.40 0067  02.08.2006

@<TRIPOS>MOLECULE
ASD01150671
  39   42    0    0    0
SMALL
NO_CHARGES


@<TRIPOS>ATOM
   1 C1            -0.0230     1.5123    -0.0055 C.2     
   2 C2            -0.7558     1.3261     1.2981 C.3     
   3 F3            -1.9806     0.6939     1.0583 F       
   4 F4             0.0156     0.5372     2.1582 F       
   5 F5            -0.9828     2.5742     1.8879 F       
   6 C6             3.7194     3.4619    -0.0671 C.ar    
   7 C7             2.5761     4.2536    -0.1473 C.ar    
   8 C8             1.3047     3.6231    -0.1299 C.ar    
   9 C9             1.2613     2.2187    -0.0299 C.ar    
  10 C10            2.4675     1.5082     0.0463 C.ar    
  11 N11            3.6194     2.1293     0.0257 N.ar    
  12 C12            2.8828     5.6842    -0.2405 C.2     
  13 C13            4.1794     5.9576    -0.2321 C.2     
  14 S14            5.1450     4.4888    -0.1034 S.3     
  15 C15            4.4087     7.4634    -0.3321 C.3     
  16 C16            3.0540     8.0950     0.0451 C.3     
  17 C17            2.0709     6.9749    -0.3483 C.3     
  18 C18            2.4373     0.0053     0.1537 C.3     
  19 C19            0.0609     4.4180    -0.2141 C.ar    
  20 C20           -0.7805     4.2878    -1.3207 C.ar    
  21 C21           -1.9403     5.0321    -1.3932 C.ar    
  22 C22           -2.2697     5.9078    -0.3701 C.ar    
  23 C23           -1.4386     6.0405     0.7292 C.ar    
  24 C24           -0.2796     5.2973     0.8152 C.ar    
  25 Cl25          -3.7296     6.8420    -0.4682 Cl      
  26 Cl26          -2.9881     4.8721    -2.7680 Cl      
  27 O27           -0.4935     1.0732    -1.0340 O.2     
  28 H28            5.1819     7.7768     0.3694 H       
  29 H29            4.6851     7.7382    -1.3501 H       
  30 H30            3.0034     8.3017     1.1141 H       
  31 H31            2.8691     8.9989    -0.5353 H       
  32 H32            1.7216     7.1188    -1.3707 H       
  33 H33            1.2275     6.9511     0.3417 H       
  34 H34            2.3556    -0.4286    -0.8429 H       
  35 H35            3.3547    -0.3436     0.6278 H       
  36 H36            1.5797    -0.2989     0.7538 H       
  37 H37           -0.5240     3.6063    -2.1183 H       
  38 H38           -1.7002     6.7245     1.5230 H       
  39 H39            0.3655     5.3989     1.6754 H       
@<TRIPOS>BOND
   1    1    2 1
   2    1    9 1
   3    1   27 2
   4    2    3 1
   5    2    4 1
   6    2    5 1
   7    6    7 ar
   8    6   11 ar
   9    6   14 1
  10    7    8 ar
  11    7   12 1
  12    8    9 ar
  13    8   19 1
  14    9   10 ar
  15   10   11 ar
  16   10   18 1
  17   12   13 2
  18   12   17 1
  19   13   14 1
  20   13   15 1
  21   15   16 1
  22   15   28 1
  23   15   29 1
  24   16   17 1
  25   16   30 1
  26   16   31 1
  27   17   32 1
  28   17   33 1
  29   18   34 1
  30   18   35 1
  31   18   36 1
  32   19   20 ar
  33   19   24 ar
  34   20   21 ar
  35   20   37 1
  36   21   22 ar
  37   21   26 1
  38   22   23 ar
  39   22   25 1
  40   23   24 ar
  41   23   38 1
  42   24   39 1

#	End of record

