#	Name: ASD03731593
#	Creating user name:	WinNT
#	Creation time:	15. 06. 2019 20:46

#	Modifying user name:	WinNT
#	Modification time:	15. 06. 2019 20:46

#	Program:	/corina/corina34_cracker 3.40 0067  02.08.2006

@<TRIPOS>MOLECULE
ASD03731593
  37   38    0    0    0
SMALL
NO_CHARGES


@<TRIPOS>ATOM
   1 C1            -0.0805     1.4482    -0.5043 C.2     
   2 C2            -0.0440    -0.0203    -0.3771 C.ar    
   3 C3             1.1801    -0.6987    -0.4186 C.ar    
   4 C4             1.2085    -2.0734    -0.2985 C.ar    
   5 C5             0.0253    -2.7825    -0.1374 C.ar    
   6 C6            -1.1933    -2.1114    -0.0962 C.ar    
   7 C7            -1.2312    -0.7393    -0.2089 C.ar    
   8 O8             0.9537     2.0721    -0.6455 O.2     
   9 N9            -1.2604     2.0985    -0.4697 N.am    
  10 S10           -1.3014     3.7478    -0.6126 S.o2    
  11 O11           -2.6803     4.0745    -0.5078 O.2     
  12 O12           -0.3644     4.2065     0.3523 O.2     
  13 C13           -0.6962     4.0718    -2.2917 C.3     
  14 F14            2.3311    -0.0091    -0.5762 F       
  15 O15            0.0574    -4.1341    -0.0202 O.3     
  16 C16            1.2602    -4.7568    -0.1396 C.ar    
  17 C17            2.0849    -4.9004     0.9728 C.ar    
  18 C18            3.3092    -5.5358     0.8466 C.ar    
  19 C19            3.7106    -6.0263    -0.3825 C.ar    
  20 C20            2.8919    -5.8835    -1.4882 C.ar    
  21 C21            1.6652    -5.2548    -1.3675 C.ar    
  22 O22            1.6894    -4.4172     2.1810 O.3     
  23 C23            2.5865    -4.6003     3.2781 C.3     
  24 Cl24           3.4015    -6.5002    -3.0289 Cl      
  25 Cl25          -2.6680    -3.0051     0.1043 Cl      
  26 H26            2.1518    -2.5982    -0.3303 H       
  27 H27           -2.1773    -0.2197    -0.1722 H       
  28 H28           -2.0857     1.6005    -0.3611 H       
  29 H29           -1.3508     3.5844    -3.0142 H       
  30 H30           -0.6896     5.1464    -2.4744 H       
  31 H31            0.3154     3.6794    -2.3953 H       
  32 H32            3.9506    -5.6480     1.7082 H       
  33 H33            4.6654    -6.5215    -0.4793 H       
  34 H34            1.0254    -5.1487    -2.2311 H       
  35 H35            3.5328    -4.1052     3.0602 H       
  36 H36            2.1504    -4.1701     4.1797 H       
  37 H37            2.7605    -5.6654     3.4313 H       
@<TRIPOS>BOND
   1    1    2 1
   2    1    8 2
   3    1    9 am
   4    2    3 ar
   5    2    7 ar
   6    3    4 ar
   7    3   14 1
   8    4    5 ar
   9    4   26 1
  10    5    6 ar
  11    5   15 1
  12    6    7 ar
  13    6   25 1
  14    7   27 1
  15    9   10 am
  16    9   28 1
  17   10   11 2
  18   10   12 2
  19   10   13 1
  20   13   29 1
  21   13   30 1
  22   13   31 1
  23   15   16 1
  24   16   17 ar
  25   16   21 ar
  26   17   18 ar
  27   17   22 1
  28   18   19 ar
  29   18   32 1
  30   19   20 ar
  31   19   33 1
  32   20   21 ar
  33   20   24 1
  34   21   34 1
  35   22   23 1
  36   23   35 1
  37   23   36 1
  38   23   37 1

#	End of record

