#	Name: ASD05420005
#	Creating user name:	WinNT
#	Creation time:	15. 06. 2019 20:59

#	Modifying user name:	WinNT
#	Modification time:	15. 06. 2019 20:59

#	Program:	/corina/corina34_cracker 3.40 0067  02.08.2006

@<TRIPOS>MOLECULE
ASD05420005
  16   16    0    0    0
SMALL
NO_CHARGES


@<TRIPOS>ATOM
   1 N1            -0.0281     1.3928    -0.0896 N.pl3   
   2 C2            -0.0035    -0.0047    -0.0474 C.ar    
   3 C3             1.2037    -0.6842    -0.1674 C.ar    
   4 C4             1.2233    -2.0679    -0.1251 C.ar    
   5 C5             0.0418    -2.7728     0.0359 C.ar    
   6 C6            -1.1584    -2.0976     0.1547 C.ar    
   7 C7            -1.1837    -0.7164     0.1199 C.ar    
   8 N8            -2.4697     0.0040     0.2545 N.pl3   
   9 O9            -2.5197     1.0497     0.8770 O.2     
  10 O10           -3.4779    -0.4489    -0.2573 O.2     
  11 F11            2.3948    -2.7306    -0.2414 F       
  12 F12            2.3552     0.0045    -0.3253 F       
  13 H13            0.8032     1.8927    -0.0905 H       
  14 H14           -0.8763     1.8622    -0.1219 H       
  15 H15            0.0584    -3.8522     0.0684 H       
  16 H16           -2.0777    -2.6505     0.2798 H       
@<TRIPOS>BOND
   1    1    2 1
   2    1   13 1
   3    1   14 1
   4    2    3 ar
   5    2    7 ar
   6    3    4 ar
   7    3   12 1
   8    4    5 ar
   9    4   11 1
  10    5    6 ar
  11    5   15 1
  12    6    7 ar
  13    6   16 1
  14    7    8 1
  15    8    9 2
  16    8   10 2

#	End of record

