#	Name: ASD01840305
#	Creating user name:	WinNT
#	Creation time:	15. 06. 2019 19:37

#	Modifying user name:	WinNT
#	Modification time:	15. 06. 2019 19:37

#	Program:	/corina/corina34_cracker 3.40 0067  02.08.2006

@<TRIPOS>MOLECULE
ASD01840305
  51   55    0    0    0
SMALL
NO_CHARGES


@<TRIPOS>ATOM
   1 C1             2.6055    -0.1399     3.3871 C.3     
   2 N2             1.9463    -1.1492     2.5547 N.am    
   3 C3             1.0520    -2.2063     3.0402 C.3     
   4 C4             0.6248    -2.9902     1.8228 C.ar    
   5 N5            -0.1594    -4.0311     1.6566 N.ar    
   6 C6            -0.3808    -4.5473     0.4541 C.ar    
   7 N7            -1.2148    -5.6451     0.3253 N.3     
   8 C8            -0.6916    -6.7943     1.0750 C.3     
   9 C9            -1.5564    -8.0252     0.7935 C.3     
  10 C10           -3.0007    -7.7344     1.2109 C.3     
  11 C11           -3.5053    -6.5043     0.4515 C.3     
  12 C12           -2.5840    -5.3176     0.7429 C.3     
  13 O13           -3.8239    -8.8598     0.8980 O.3     
  14 C14           -4.9609    -9.0148     1.6275 C.ar    
  15 C15           -5.7475   -10.1517     1.4516 C.ar    
  16 C16           -6.8932   -10.3270     2.1735 C.ar    
  17 C17           -7.2889    -9.3646     3.0986 C.ar    
  18 N18           -8.3573    -9.2534     3.9526 N.pl3   
  19 H19           -9.0724    -9.9019     4.0470 H       
  20 N20           -8.2491    -8.0549     4.6656 N.2     
  21 C21           -7.1744    -7.4144     4.3036 C.2     
  22 C22           -6.5010    -8.2126     3.2842 C.ar    
  23 C23           -5.3263    -8.0488     2.5414 C.ar    
  24 C24            0.2142    -3.9996    -0.6808 C.ar    
  25 C25           -0.0481    -4.5969    -2.0393 C.3     
  26 C26            1.0387    -2.9140    -0.5517 C.ar    
  27 C27            1.2553    -2.3894     0.7304 C.ar    
  28 C28            2.0564    -1.2564     1.2192 C.2     
  29 O29            2.7247    -0.5233     0.5160 O.2     
  30 H30            3.2042     0.5169     2.7561 H       
  31 H31            1.8515     0.4478     3.9110 H       
  32 H32            3.2510    -0.6333     4.1137 H       
  33 H33            1.5828    -2.8555     3.7365 H       
  34 H34            0.1816    -1.7663     3.5268 H       
  35 H35            0.3345    -6.9930     0.7657 H       
  36 H36           -0.7126    -6.5720     2.1419 H       
  37 H37           -1.5248    -8.2563    -0.2712 H       
  38 H38           -1.1771    -8.8742     1.3622 H       
  39 H39           -3.0382    -7.5414     2.2830 H       
  40 H40           -3.5044    -6.7115    -0.6186 H       
  41 H41           -4.5185    -6.2667     0.7759 H       
  42 H42           -2.5962    -5.1022     1.8114 H       
  43 H43           -2.9324    -4.4436     0.1924 H       
  44 H44           -5.4476   -10.9027     0.7357 H       
  45 H45           -7.4933   -11.2128     2.0265 H       
  46 H46           -6.8411    -6.4621     4.6889 H       
  47 H47           -4.7130    -7.1705     2.6795 H       
  48 H48           -0.9046    -4.1004    -2.4953 H       
  49 H49            0.8294    -4.4612    -2.6715 H       
  50 H50           -0.2588    -5.6611    -1.9338 H       
  51 H51            1.5113    -2.4726    -1.4167 H       
@<TRIPOS>BOND
   1    1    2 1
   2    1   30 1
   3    1   31 1
   4    1   32 1
   5    2   28 am
   6    2    3 1
   7    3    4 1
   8    3   33 1
   9    3   34 1
  10    4   27 ar
  11    4    5 ar
  12    5    6 ar
  13    6    7 1
  14    6   24 ar
  15    7   12 1
  16    7    8 1
  17    8    9 1
  18    8   35 1
  19    8   36 1
  20    9   10 1
  21    9   37 1
  22    9   38 1
  23   10   11 1
  24   10   13 1
  25   10   39 1
  26   11   12 1
  27   11   40 1
  28   11   41 1
  29   12   42 1
  30   12   43 1
  31   13   14 1
  32   14   23 ar
  33   14   15 ar
  34   15   16 ar
  35   15   44 1
  36   16   17 ar
  37   16   45 1
  38   17   22 ar
  39   17   18 1
  40   18   19 1
  41   18   20 1
  42   20   21 2
  43   21   22 1
  44   21   46 1
  45   22   23 ar
  46   23   47 1
  47   24   25 1
  48   24   26 ar
  49   25   48 1
  50   25   49 1
  51   25   50 1
  52   26   27 ar
  53   26   51 1
  54   27   28 1
  55   28   29 2

#	End of record

