#	Name: ASD00431313
#	Creating user name:	WinNT
#	Creation time:	15. 06. 2019 18:35

#	Modifying user name:	WinNT
#	Modification time:	15. 06. 2019 18:35

#	Program:	/corina/corina34_cracker 3.40 0067  02.08.2006

@<TRIPOS>MOLECULE
ASD00431313
  40   41    0    0    0
SMALL
NO_CHARGES


@<TRIPOS>ATOM
   1 C1            -0.0866     1.2090     0.5763 C.2     
   2 N2            -0.0001    -0.0088     0.0053 N.am    
   3 O3             0.8946     1.7114     1.0875 O.2     
   4 O4            -1.2590     1.8712     0.5753 O.3     
   5 C5             1.2438    -0.6448    -0.1036 C.ar    
   6 C6             1.3302    -2.0258     0.0117 C.ar    
   7 C7             2.5561    -2.6520    -0.0957 C.ar    
   8 C8             3.7016    -1.9014    -0.3186 C.ar    
   9 C9             3.6158    -0.5214    -0.4338 C.ar    
  10 C10            2.3896     0.1053    -0.3324 C.ar    
  11 O11            4.9085    -2.5184    -0.4238 O.3     
  12 S12            6.5085    -4.2981    -1.7162 S.3     
  13 C13            5.1113    -3.3423    -1.4786 C.2     
  14 N14            4.2718    -3.5195    -2.4534 N.2     
  15 C15            4.6223    -4.3568    -3.4016 C.2     
  16 C16            5.8372    -4.9263    -3.2192 C.2     
  17 C17            6.4800    -5.8947    -4.1137 C.2     
  18 N18            7.6540    -6.3687    -3.8221 N.2     
  19 O19            8.2746    -7.3036    -4.6858 O.3     
  20 Cl20           5.6722    -6.4075    -5.5622 Cl      
  21 C21           -1.2786     3.1779     1.2082 C.3     
  22 C22           -0.2841     4.1015     0.5020 C.3     
  23 C23           -2.6851     3.7716     1.1090 C.3     
  24 C24           -0.8870     3.0373     2.6806 C.3     
  25 H25           -0.7988    -0.4450    -0.3302 H       
  26 H26            0.4387    -2.6101     0.1856 H       
  27 H27            2.6235    -3.7261    -0.0057 H       
  28 H28            4.5078     0.0624    -0.6070 H       
  29 H29            2.3224     1.1790    -0.4265 H       
  30 H30            3.9952    -4.5735    -4.2538 H       
  31 H31            9.1452    -7.5987    -4.3856 H       
  32 H32           -0.5630     4.2017    -0.5469 H       
  33 H33           -0.2987     5.0824     0.9771 H       
  34 H34            0.7180     3.6785     0.5727 H       
  35 H35           -3.3936     3.1136     1.6122 H       
  36 H36           -2.6998     4.7525     1.5842 H       
  37 H37           -2.9641     3.8718     0.0601 H       
  38 H38            0.1151     2.6143     2.7513 H       
  39 H39           -0.9017     4.0182     3.1557 H       
  40 H40           -1.5955     2.3792     3.1837 H       
@<TRIPOS>BOND
   1    1    2 am
   2    1    3 2
   3    1    4 1
   4    2    5 1
   5    2   25 1
   6    4   21 1
   7    5    6 ar
   8    5   10 ar
   9    6    7 ar
  10    6   26 1
  11    7    8 ar
  12    7   27 1
  13    8    9 ar
  14    8   11 1
  15    9   10 ar
  16    9   28 1
  17   10   29 1
  18   11   13 1
  19   12   13 1
  20   12   16 1
  21   13   14 2
  22   14   15 1
  23   15   16 2
  24   15   30 1
  25   16   17 1
  26   17   18 2
  27   17   20 1
  28   18   19 1
  29   19   31 1
  30   21   22 1
  31   21   24 1
  32   21   23 1
  33   22   32 1
  34   22   33 1
  35   22   34 1
  36   23   35 1
  37   23   36 1
  38   23   37 1
  39   24   38 1
  40   24   39 1
  41   24   40 1

#	End of record

