#	Name: ASD01141053
#	Creating user name:	WinNT
#	Creation time:	15. 06. 2019 19:01

#	Modifying user name:	WinNT
#	Modification time:	15. 06. 2019 19:01

#	Program:	/corina/corina34_cracker 3.40 0067  02.08.2006

@<TRIPOS>MOLECULE
ASD01141053
  72   76    0    0    0
SMALL
NO_CHARGES


@<TRIPOS>ATOM
   1 C1             0.0147     1.7290    -0.6430 C.3     
   2 C2            -0.0070     0.2026    -0.5759 C.3     
   3 C3             0.6534    -0.2805     0.7170 C.3     
   4 C4             2.0908     0.2374     0.7782 C.3     
   5 C5             2.1029     1.7635     0.7465 C.3     
   6 C6             1.4506     2.2463    -0.5482 C.3     
   7 C7             2.7937    -0.2937     2.0250 C.3     
   8 C8             4.2402     0.2156     2.0666 C.3     
   9 C9             4.4958     1.0650     0.8219 C.3     
  10 C10            3.5513     2.2658     0.8328 C.3     
  11 C11            5.9216     1.4778     0.6661 C.3     
  12 C12            6.1379     3.0021     0.7792 C.3     
  13 C13            5.3336     3.7137    -0.2776 C.3     
  14 C14            3.8710     3.2487    -0.2779 C.3     
  15 C15            6.9643     0.9569     1.6659 C.3     
  16 C16            8.2154     1.7791     1.2292 C.3     
  17 C17            7.6698     3.0815     0.5904 C.3     
  18 H18           -1.0443    -0.1417    -0.5967 H       
  19 O19            0.6865    -0.3387    -1.7014 O.3     
  20 C20            1.3397     2.3344     1.9458 C.3     
  21 H21            2.6160    -0.1408    -0.1089 H       
  22 C22            5.8515     3.5574     2.1725 C.3     
  23 C23            8.2148     4.3059     1.3225 C.3     
  24 H24            7.9050     3.1202    -0.4678 H       
  25 O25            8.0657     4.1236     2.7320 O.3     
  26 H26            7.6619     5.1918     1.0103 H       
  27 C27            9.6403     4.4775     0.9981 C.1     
  28 C28           10.7772     4.6143     0.7393 C.1     
  29 C29           12.1639     4.7812     0.4236 C.ar    
  30 C30           12.8851     5.8401     0.9776 C.ar    
  31 C31           14.2201     5.9971     0.6717 C.ar    
  32 C32           14.8473     5.1039    -0.1868 C.ar    
  33 C33           14.1331     4.0495    -0.7403 C.ar    
  34 C34           12.7994     3.8821    -0.4344 C.ar    
  35 O35           16.1630     5.2622    -0.4862 O.3     
  36 C36           16.7453     4.3075    -1.3759 C.3     
  37 H37           -0.4087     2.0446    -1.6042 H       
  38 H38           -0.5981     2.1462     0.1516 H       
  39 H39            0.0824     0.0531     1.5772 H       
  40 H40            0.6729    -1.3759     0.7145 H       
  41 H41            2.0208     1.8789    -1.4030 H       
  42 H42            1.4395     3.3375    -0.5654 H       
  43 H43            2.2679     0.0146     2.9247 H       
  44 H44            2.8077    -1.3883     1.9871 H       
  45 H45            4.3874     0.8203     2.9604 H       
  46 H46            4.9241    -0.6323     2.0785 H       
  47 H47            4.2389     0.4416    -0.0572 H       
  48 H48            3.6071     2.7701     1.8021 H       
  49 H49            6.2612     1.1604    -0.3473 H       
  50 H50            5.3702     4.7974    -0.1005 H       
  51 H51            5.7757     3.5257    -1.2654 H       
  52 H52            3.6523     2.7854    -1.2491 H       
  53 H53            3.2205     4.1282    -0.1805 H       
  54 H54            6.6951     1.1544     2.6928 H       
  55 H55            7.1448    -0.1080     1.5079 H       
  56 H56            8.8254     2.0138     2.0989 H       
  57 H57            8.7906     1.2145     0.4982 H       
  58 H58            0.3078    -0.0872    -2.5549 H       
  59 H59            1.8096     1.9970     2.8696 H       
  60 H60            1.3601     3.4234     1.9045 H       
  61 H61            0.3062     1.9890     1.9167 H       
  62 H62            6.4204     2.9940     2.9121 H       
  63 H63            6.1430     4.6070     2.2123 H       
  64 H64            4.7867     3.4676     2.3876 H       
  65 H65            8.5325     3.3516     3.0803 H       
  66 H66           12.3978     6.5356     1.6448 H       
  67 H67           14.7788     6.8162     1.1000 H       
  68 H68           14.6243     3.3570    -1.4079 H       
  69 H69           12.2447     3.0616    -0.8650 H       
  70 H70           16.6612     3.3102    -0.9443 H       
  71 H71           16.2220     4.3352    -2.3317 H       
  72 H72           17.7970     4.5491    -1.5304 H       
@<TRIPOS>BOND
   1    1    2 1
   2    1    6 1
   3    1   37 1
   4    1   38 1
   5    2    3 1
   6    2   18 1
   7    2   19 1
   8    3    4 1
   9    3   39 1
  10    3   40 1
  11    4    5 1
  12    4    7 1
  13    4   21 1
  14    5    6 1
  15    5   20 1
  16    5   10 1
  17    6   41 1
  18    6   42 1
  19    7    8 1
  20    7   43 1
  21    7   44 1
  22    8    9 1
  23    8   45 1
  24    8   46 1
  25    9   10 1
  26    9   11 1
  27    9   47 1
  28   10   14 1
  29   10   48 1
  30   11   12 1
  31   11   15 1
  32   11   49 1
  33   12   13 1
  34   12   17 1
  35   12   22 1
  36   13   14 1
  37   13   50 1
  38   13   51 1
  39   14   52 1
  40   14   53 1
  41   15   16 1
  42   15   54 1
  43   15   55 1
  44   16   17 1
  45   16   56 1
  46   16   57 1
  47   17   23 1
  48   17   24 1
  49   19   58 1
  50   20   59 1
  51   20   60 1
  52   20   61 1
  53   22   62 1
  54   22   63 1
  55   22   64 1
  56   23   25 1
  57   23   26 1
  58   23   27 1
  59   25   65 1
  60   27   28 3
  61   28   29 1
  62   29   30 ar
  63   29   34 ar
  64   30   31 ar
  65   30   66 1
  66   31   32 ar
  67   31   67 1
  68   32   33 ar
  69   32   35 1
  70   33   34 ar
  71   33   68 1
  72   34   69 1
  73   35   36 1
  74   36   70 1
  75   36   71 1
  76   36   72 1

#	End of record

