#	Name: ASD04550078
#	Creating user name:	WinNT
#	Creation time:	15. 06. 2019 20:49

#	Modifying user name:	WinNT
#	Modification time:	15. 06. 2019 20:49

#	Program:	/corina/corina34_cracker 3.40 0067  02.08.2006

@<TRIPOS>MOLECULE
ASD04550078
  35   36    0    0    0
SMALL
NO_CHARGES


@<TRIPOS>ATOM
   1 C1            -0.0167     1.3831     0.0096 C.ar    
   2 C2             0.0021    -0.0041     0.0020 C.ar    
   3 C3             1.2141    -0.6789    -0.0132 C.ar    
   4 C4             2.3989     0.0314    -0.0207 C.ar    
   5 C5             2.3774     1.4139    -0.0126 C.ar    
   6 C6             1.1708     2.0889     0.0021 C.ar    
   7 C7             3.6714     2.1863    -0.0198 C.3     
   8 C8             3.7284     3.0742    -1.2645 C.3     
   9 O9            -1.1648    -0.7006     0.0099 O.3     
  10 S10           -1.7101    -1.0105    -1.3769 S.o2    
  11 O11           -3.0259    -1.4906    -1.1368 O.2     
  12 O12           -1.4892     0.1834    -2.1151 O.2     
  13 C13            3.7497     3.0468     1.2149 C.2     
  14 O14            2.8439     3.0340     2.0214 O.2     
  15 N15            4.8262     3.8305     1.4230 N.am    
  16 C16            4.8984     4.6241     2.5619 C.2     
  17 N17            5.8851     5.4112     2.8571 N.2     
  18 C18            5.7886     6.0944     3.9822 C.2     
  19 C19            4.6668     5.8741     4.6706 C.2     
  20 S20            3.6954     4.7097     3.7737 S.3     
  21 C21           -0.6479    -2.3457    -1.9931 C.3     
  22 F22           -0.7408    -3.4482    -1.1370 F       
  23 F23           -1.0619    -2.7160    -3.2771 F       
  24 F24            0.6781    -1.9024    -2.0404 F       
  25 H25           -0.9590     1.9108     0.0170 H       
  26 H26            1.2314    -1.7588    -0.0188 H       
  27 H27            3.3426    -0.4935    -0.0325 H       
  28 H28            1.1567     3.1688     0.0084 H       
  29 H29            4.5100     1.4902    -0.0313 H       
  30 H30            4.6643     3.6329    -1.2698 H       
  31 H31            3.6718     2.4518    -2.1576 H       
  32 H32            2.8898     3.7703    -1.2530 H       
  33 H33            5.5506     3.8407     0.7781 H       
  34 H34            6.5554     6.7765     4.3186 H       
  35 H35            4.3992     6.3328     5.6110 H       
@<TRIPOS>BOND
   1    1    2 ar
   2    1    6 ar
   3    1   25 1
   4    2    3 ar
   5    2    9 1
   6    3    4 ar
   7    3   26 1
   8    4    5 ar
   9    4   27 1
  10    5    6 ar
  11    5    7 1
  12    6   28 1
  13    7    8 1
  14    7   13 1
  15    7   29 1
  16    8   30 1
  17    8   31 1
  18    8   32 1
  19    9   10 1
  20   10   11 2
  21   10   12 2
  22   10   21 1
  23   13   14 2
  24   13   15 am
  25   15   16 1
  26   15   33 1
  27   16   17 2
  28   16   20 1
  29   17   18 1
  30   18   19 2
  31   18   34 1
  32   19   20 1
  33   19   35 1
  34   21   22 1
  35   21   23 1
  36   21   24 1

#	End of record

