#	Name: ASD01881688
#	Creating user name:	WinNT
#	Creation time:	15. 06. 2019 19:43

#	Modifying user name:	WinNT
#	Modification time:	15. 06. 2019 19:43

#	Program:	/corina/corina34_cracker 3.40 0067  02.08.2006

@<TRIPOS>MOLECULE
ASD01881688
  50   53    0    0    0
SMALL
NO_CHARGES


@<TRIPOS>ATOM
   1 C1            -0.0550     1.5254    -0.2061 C.3     
   2 C2            -0.0505    -0.0033    -0.2680 C.3     
   3 C3            -1.4266    -0.5342     0.1385 C.3     
   4 O4             0.2484    -0.4252    -1.6001 O.3     
   5 N5            -1.4067    -2.0031     0.1305 N.3     
   6 C6            -0.7029    -2.5263     1.3083 C.3     
   7 C7            -0.5745    -4.0470     1.1937 C.3     
   8 C8            -1.9714    -4.6661     1.0938 C.3     
   9 C9            -2.7009    -4.0687    -0.1126 C.3     
  10 C10           -2.7676    -2.5474     0.0399 C.3     
  11 F11           -1.8584    -6.0513     0.9329 F       
  12 O12            1.2602     2.0168    -0.4722 O.3     
  13 N13            2.2127     7.4110    -0.4649 N.pl3   
  14 N14            3.5805     7.3268    -0.7646 N.2     
  15 N15            3.9168     6.0911    -0.8863 N.2     
  16 C16            2.8490     5.2930    -0.6864 C.ar    
  17 C17            1.7439     6.1180    -0.4144 C.ar    
  18 C18            2.6767     3.9021    -0.7048 C.ar    
  19 C19            1.4303     3.3660    -0.4554 C.ar    
  20 C20            0.3448     4.1963    -0.1871 C.ar    
  21 C21            0.4974     5.5541    -0.1672 C.ar    
  22 C22            1.4374     8.6341    -0.2430 C.3     
  23 C23            0.8622     9.1218    -1.5743 C.3     
  24 C24           -0.0798    10.3269    -1.5376 C.3     
  25 C25            1.3373    10.4802    -2.0938 C.3     
  26 Br26           4.1447     2.7669    -1.0684 Br      
  27 H27           -0.7470     1.9172    -0.9517 H       
  28 H28           -0.3695     1.8480     0.7864 H       
  29 H29            0.7052    -0.3923     0.4145 H       
  30 H30           -1.6716    -0.1797     1.1397 H       
  31 H31           -2.1768    -0.1772    -0.5671 H       
  32 H32           -0.3842    -0.1148    -2.2623 H       
  33 H33            0.2905    -2.0813     1.3652 H       
  34 H34           -1.2648    -2.2761     2.2081 H       
  35 H35           -0.0008    -4.2976     0.3014 H       
  36 H36           -0.0659    -4.4368     2.0754 H       
  37 H37           -2.5321    -4.4486     2.0029 H       
  38 H38           -2.1606    -4.3196    -1.0254 H       
  39 H39           -3.7114    -4.4739    -0.1641 H       
  40 H40           -3.3199    -2.2970     0.9456 H       
  41 H41           -3.2738    -2.1176    -0.8245 H       
  42 H42           -0.6257     3.7636     0.0061 H       
  43 H43           -0.3506     6.1895     0.0416 H       
  44 H44            0.6226     8.4269     0.4507 H       
  45 H45            2.0852     9.4037     0.1766 H       
  46 H46            0.6569     8.3447    -2.3106 H       
  47 H47           -0.9045    10.3428    -2.2501 H       
  48 H48           -0.2897    10.7722    -0.5652 H       
  49 H49            2.0597    11.0264    -1.4873 H       
  50 H50            1.4448    10.5970    -3.1722 H       
@<TRIPOS>BOND
   1    1    2 1
   2    1   12 1
   3    1   27 1
   4    1   28 1
   5    2    3 1
   6    2    4 1
   7    2   29 1
   8    3    5 1
   9    3   30 1
  10    3   31 1
  11    4   32 1
  12    5    6 1
  13    5   10 1
  14    6    7 1
  15    6   33 1
  16    6   34 1
  17    7    8 1
  18    7   35 1
  19    7   36 1
  20    8    9 1
  21    8   11 1
  22    8   37 1
  23    9   10 1
  24    9   38 1
  25    9   39 1
  26   10   40 1
  27   10   41 1
  28   12   19 1
  29   13   14 1
  30   13   17 1
  31   13   22 1
  32   14   15 2
  33   15   16 1
  34   16   17 ar
  35   16   18 ar
  36   17   21 ar
  37   18   19 ar
  38   18   26 1
  39   19   20 ar
  40   20   21 ar
  41   20   42 1
  42   21   43 1
  43   22   23 1
  44   22   44 1
  45   22   45 1
  46   23   24 1
  47   23   25 1
  48   23   46 1
  49   24   25 1
  50   24   47 1
  51   24   48 1
  52   25   49 1
  53   25   50 1

#	End of record

