#	Name: ASD01001149
#	Creating user name:	WinNT
#	Creation time:	15. 06. 2019 18:55

#	Modifying user name:	WinNT
#	Modification time:	15. 06. 2019 18:55

#	Program:	/corina/corina34_cracker 3.40 0067  02.08.2006

@<TRIPOS>MOLECULE
ASD01001149
  36   37    0    0    0
SMALL
NO_CHARGES


@<TRIPOS>ATOM
   1 C1            -0.0797     1.6003    -0.0127 C.2     
   2 C2             0.0621     0.0966    -0.0462 C.3     
   3 C3             1.0534     2.4155    -0.0413 C.2     
   4 C4            -1.3381     2.1602     0.0407 C.2     
   5 C5             0.2521    -0.4269     1.3541 C.ar    
   6 N6            -1.1641    -0.4707    -0.6250 N.pl3   
   7 O7             0.9317     3.6278    -0.1363 O.2     
   8 O8             2.2877     1.8627     0.0361 O.3     
   9 C9            -1.4853     3.6581     0.1173 C.3     
  10 N10           -2.4552     1.3699     0.0245 N.pl3   
  11 C11           -0.8408    -0.5857     2.1864 C.ar    
  12 C12            1.5169    -0.7531     1.8032 C.ar    
  13 C13           -2.3683     0.0598    -0.2491 C.2     
  14 C14           -0.6699    -1.0661     3.4714 C.ar    
  15 C15            1.6910    -1.2355     3.0924 C.ar    
  16 Se16          -3.7479    -0.9340    -0.1438 Du      
  17 C17            0.5939    -1.3889     3.9271 C.ar    
  18 O18            2.9344    -1.5576     3.5365 O.3     
  19 H19           -1.1208    -1.2037    -1.2588 H       
  20 H20           -3.3210     1.7602     0.2216 H       
  21 H21            3.4031    -0.8250     3.9593 H       
  22 C22            4.7018     1.9551     0.0991 C.3     
  23 C23            3.4022     2.7565     0.0010 C.3     
  24 H24            0.9199    -0.1778    -0.6604 H       
  25 H25           -1.4378     4.0796    -0.8868 H       
  26 H26           -2.4451     3.9061     0.5704 H       
  27 H27           -0.6795     4.0718     0.7236 H       
  28 H28           -1.8294    -0.3336     1.8322 H       
  29 H29            2.3695    -0.6331     1.1512 H       
  30 H30           -1.5249    -1.1889     4.1197 H       
  31 H31            0.7268    -1.7642     4.9311 H       
  32 H32            4.7140     1.3957     1.0345 H       
  33 H33            4.7654     1.2619    -0.7396 H       
  34 H34            5.5519     2.6368     0.0724 H       
  35 H35            3.3900     3.3159    -0.9344 H       
  36 H36            3.3386     3.4497     0.8398 H       
@<TRIPOS>BOND
   1    1    2 1
   2    1    3 1
   3    1    4 2
   4    2    5 1
   5    2    6 1
   6    2   24 1
   7    3    8 1
   8    3    7 2
   9    4    9 1
  10    4   10 1
  11    5   11 ar
  12    5   12 ar
  13    6   13 1
  14    6   19 1
  15    8   23 1
  16    9   25 1
  17    9   26 1
  18    9   27 1
  19   10   13 1
  20   10   20 1
  21   11   14 ar
  22   11   28 1
  23   12   15 ar
  24   12   29 1
  25   13   16 2
  26   14   17 ar
  27   14   30 1
  28   15   17 ar
  29   15   18 1
  30   17   31 1
  31   18   21 1
  32   22   23 1
  33   22   32 1
  34   22   33 1
  35   22   34 1
  36   23   35 1
  37   23   36 1

#	End of record

