#	Name: ASD07930748
#	Creating user name:	WinNT
#	Creation time:	15. 06. 2019 21:13

#	Modifying user name:	WinNT
#	Modification time:	15. 06. 2019 21:13

#	Program:	/corina/corina34_cracker 3.40 0067  02.08.2006

@<TRIPOS>MOLECULE
ASD07930748
  45   47    0    0    0
SMALL
NO_CHARGES


@<TRIPOS>ATOM
   1 C1             1.9195    -1.4729     2.8098 C.3     
   2 N2            -0.6867    -0.2188     2.0708 N.2     
   3 N3            -1.1272    -2.2857     1.0731 N.pl3   
   4 C4            -0.8914    -2.8298    -0.2683 C.3     
   5 C5             0.4860    -3.5062    -0.3051 C.3     
   6 S6             1.7360    -2.2843     0.2036 S.o2    
   7 N7             1.0961    -1.6703     1.6143 N.am    
   8 C8            -0.2553    -1.3555     1.6009 C.2     
   9 C9            -0.9310    -1.6953    -1.2941 C.3     
  10 O10            2.9366    -2.9289     0.6065 O.2     
  11 O11            1.7552    -1.1802    -0.6906 O.2     
  12 C12           -1.9583    -3.8426    -0.5953 C.ar    
  13 C13           -2.1000    -4.9764     0.1899 C.ar    
  14 C14           -3.0794    -5.9127    -0.1056 C.ar    
  15 C15           -3.9175    -5.7205    -1.1824 C.ar    
  16 C16           -3.7796    -4.5797    -1.9767 C.ar    
  17 C17           -2.7953    -3.6373    -1.6713 C.ar    
  18 F18           -1.2806    -5.1700     1.2465 F       
  19 C19           -4.6746    -4.3686    -3.1323 C.2     
  20 O20           -4.5526    -3.3750    -3.8221 O.2     
  21 N21           -5.6267    -5.2774    -3.4222 N.am    
  22 C22           -6.5393    -5.0285    -4.4464 C.ar    
  23 C23           -7.4476    -6.0146    -4.8133 C.ar    
  24 C24           -8.3485    -5.7555    -5.8314 C.ar    
  25 C25           -8.3092    -4.5118    -6.4505 C.ar    
  26 C26           -7.3778    -3.5781    -6.0333 C.ar    
  27 N27           -6.5357    -3.8536    -5.0560 N.ar    
  28 F28           -9.1707    -4.2183    -7.4489 F       
  29 H29            2.3491    -0.4712     2.7939 H       
  30 H30            1.3012    -1.5889     3.7000 H       
  31 H31            2.7208    -2.2117     2.8252 H       
  32 H32           -0.0594     0.4236     2.4379 H       
  33 H33           -1.8971    -2.5762     1.5867 H       
  34 H34            0.4983    -4.3523     0.3819 H       
  35 H35            0.6993    -3.8506    -1.3170 H       
  36 H36           -0.1576    -0.9645    -1.0577 H       
  37 H37           -0.7557    -2.1003    -2.2908 H       
  38 H38           -1.9080    -1.2128    -1.2647 H       
  39 H39           -3.1851    -6.7944     0.5092 H       
  40 H40           -4.6795    -6.4507    -1.4121 H       
  41 H41           -2.6845    -2.7534    -2.2819 H       
  42 H42           -5.6769    -6.1047    -2.9183 H       
  43 H43           -7.4501    -6.9705    -4.3108 H       
  44 H44           -9.0655    -6.5027    -6.1380 H       
  45 H45           -7.3423    -2.6101    -6.5110 H       
@<TRIPOS>BOND
   1    1    7 1
   2    1   29 1
   3    1   30 1
   4    1   31 1
   5    2    8 2
   6    2   32 1
   7    3    4 1
   8    3    8 1
   9    3   33 1
  10    4    5 1
  11    4    9 1
  12    4   12 1
  13    5    6 1
  14    5   34 1
  15    5   35 1
  16    6    7 am
  17    6   10 2
  18    6   11 2
  19    7    8 1
  20    9   36 1
  21    9   37 1
  22    9   38 1
  23   12   13 ar
  24   12   17 ar
  25   13   14 ar
  26   13   18 1
  27   14   15 ar
  28   14   39 1
  29   15   16 ar
  30   15   40 1
  31   16   17 ar
  32   16   19 1
  33   17   41 1
  34   19   20 2
  35   19   21 am
  36   21   22 1
  37   21   42 1
  38   22   23 ar
  39   22   27 ar
  40   23   24 ar
  41   23   43 1
  42   24   25 ar
  43   24   44 1
  44   25   26 ar
  45   25   28 1
  46   26   27 ar
  47   26   45 1

#	End of record

