#	Name: ASD01410419
#	Creating user name:	WinNT
#	Creation time:	15. 06. 2019 19:17

#	Modifying user name:	WinNT
#	Modification time:	15. 06. 2019 19:17

#	Program:	/corina/corina34_cracker 3.40 0067  02.08.2006

@<TRIPOS>MOLECULE
ASD01410419
  79   82    0    0    0
SMALL
NO_CHARGES


@<TRIPOS>ATOM
   1 C1            -1.9353     3.0472     0.1795 C.3     
   2 C2            -3.4112     2.6558     0.0829 C.3     
   3 C3            -4.1720     3.2363     1.2767 C.3     
   4 C4            -4.0015     3.2087    -1.2158 C.3     
   5 C5            -3.5313     1.1887     0.0909 C.1     
   6 C6            -3.6271     0.0186     0.0973 C.1     
   7 C7            -3.7439    -1.4086     0.1051 C.2     
   8 C8            -4.9190    -2.0991     0.0324 C.2     
   9 C9            -4.7849    -3.4663     0.0567 C.2     
  10 C10           -3.4860    -3.9088     0.1505 C.2     
  11 S11           -2.3948    -2.5312     0.2022 S.3     
  12 C12           -3.0884    -5.2650     0.1931 C.2     
  13 O13           -1.7772    -5.5852     0.1664 O.3     
  14 O14           -3.9285    -6.1438     0.2540 O.2     
  15 N15           -5.8761    -4.3340    -0.0079 N.am    
  16 C16           -6.4297    -4.8062     1.1266 C.2     
  17 O17           -7.4279    -5.4930     1.0741 O.2     
  18 C18           -5.8082    -4.4808     2.4604 C.3     
  19 C19           -6.1262    -5.5970     3.4634 C.3     
  20 C20           -5.3392    -5.3314     4.7487 C.3     
  21 C21           -5.5336    -3.9101     5.1894 C.2     
  22 C22           -5.9871    -2.9693     4.4248 C.2     
  23 C23           -6.3913    -3.1704     2.9936 C.3     
  24 C24           -5.1793    -3.5564     6.6108 C.3     
  25 C25           -6.4199    -4.7315    -1.3088 C.3     
  26 C26           -6.8473    -3.4845    -2.0855 C.3     
  27 C27           -7.4151    -3.8997    -3.4442 C.3     
  28 C28           -6.3439    -4.6517    -4.2365 C.3     
  29 C29           -5.9165    -5.8987    -3.4598 C.3     
  30 C30           -5.3486    -5.4835    -2.1011 C.3     
  31 C31           -6.9117    -5.0669    -5.5952 C.3     
  32 O32           -5.2121    -3.8017    -4.4329 O.3     
  33 O33           -5.9525    -5.8685    -6.2875 O.3     
  34 C34           -6.3861    -6.3113    -7.5751 C.3     
  35 C35           -5.1788    -6.4803    -8.5244 C.3     
  36 C36           -5.1991    -7.9799    -8.8944 C.3     
  37 O37           -6.5695    -8.3904    -8.6959 O.3     
  38 C38           -6.9931    -7.7290    -7.4839 C.3     
  39 H39           -1.8463     4.1335     0.1736 H       
  40 H40           -1.5147     2.6533     1.1048 H       
  41 H41           -1.3933     2.6336    -0.6710 H       
  42 H42           -4.0830     4.3227     1.2707 H       
  43 H43           -5.2234     2.9575     1.2079 H       
  44 H44           -3.7514     2.8424     2.2019 H       
  45 H45           -3.4595     2.7951    -2.0663 H       
  46 H46           -5.0530     2.9299    -1.2846 H       
  47 H47           -3.9126     4.2951    -1.2218 H       
  48 H48           -5.8789    -1.6093    -0.0383 H       
  49 H49           -1.6038    -6.5360     0.1995 H       
  50 H50           -4.7282    -4.3860     2.3480 H       
  51 H51           -7.1941    -5.6001     3.6818 H       
  52 H52           -5.8317    -6.5598     3.0458 H       
  53 H53           -5.6892    -6.0037     5.5320 H       
  54 H54           -4.2797    -5.5118     4.5673 H       
  55 H55           -6.0806    -1.9779     4.8429 H       
  56 H56           -6.0208    -2.3394     2.3934 H       
  57 H57           -7.4787    -3.2051     2.9268 H       
  58 H58           -4.1347    -3.2486     6.6590 H       
  59 H59           -5.8150    -2.7389     6.9510 H       
  60 H60           -5.3318    -4.4257     7.2504 H       
  61 H61           -7.2832    -5.3799    -1.1590 H       
  62 H62           -7.6105    -2.9488    -1.5211 H       
  63 H63           -5.9840    -2.8361    -2.2353 H       
  64 H64           -8.2784    -4.5481    -3.2944 H       
  65 H65           -7.7196    -3.0113    -3.9976 H       
  66 H66           -6.7797    -6.5471    -3.3100 H       
  67 H67           -5.1533    -6.4345    -4.0242 H       
  68 H68           -4.4853    -4.8352    -2.2509 H       
  69 H69           -5.0441    -6.3719    -1.5477 H       
  70 H70           -7.8260    -5.6415    -5.4466 H       
  71 H71           -7.1337    -4.1766    -6.1836 H       
  72 H72           -4.4919    -4.2141    -4.9292 H       
  73 H73           -7.1077    -5.6110    -7.9958 H       
  74 H74           -5.3047    -5.8653    -9.4155 H       
  75 H75           -4.2512    -6.2260    -8.0116 H       
  76 H76           -4.9089    -8.1178    -9.9360 H       
  77 H77           -4.5357    -8.5420    -8.2372 H       
  78 H78           -6.6047    -8.2525    -6.6103 H       
  79 H79           -8.0809    -7.6740    -7.4419 H       
@<TRIPOS>BOND
   1    1    2 1
   2    1   39 1
   3    1   40 1
   4    1   41 1
   5    2    4 1
   6    2    5 1
   7    2    3 1
   8    3   42 1
   9    3   43 1
  10    3   44 1
  11    4   45 1
  12    4   46 1
  13    4   47 1
  14    5    6 3
  15    6    7 1
  16    7    8 2
  17    7   11 1
  18    8    9 1
  19    8   48 1
  20    9   10 2
  21    9   15 1
  22   10   11 1
  23   10   12 1
  24   12   13 1
  25   12   14 2
  26   13   49 1
  27   15   16 am
  28   15   25 1
  29   16   17 2
  30   16   18 1
  31   18   19 1
  32   18   23 1
  33   18   50 1
  34   19   20 1
  35   19   51 1
  36   19   52 1
  37   20   21 1
  38   20   53 1
  39   20   54 1
  40   21   22 2
  41   21   24 1
  42   22   23 1
  43   22   55 1
  44   23   56 1
  45   23   57 1
  46   24   58 1
  47   24   59 1
  48   24   60 1
  49   25   26 1
  50   25   30 1
  51   25   61 1
  52   26   27 1
  53   26   62 1
  54   26   63 1
  55   27   28 1
  56   27   64 1
  57   27   65 1
  58   28   29 1
  59   28   31 1
  60   28   32 1
  61   29   30 1
  62   29   66 1
  63   29   67 1
  64   30   68 1
  65   30   69 1
  66   31   33 1
  67   31   70 1
  68   31   71 1
  69   32   72 1
  70   33   34 1
  71   34   35 1
  72   34   38 1
  73   34   73 1
  74   35   36 1
  75   35   74 1
  76   35   75 1
  77   36   37 1
  78   36   76 1
  79   36   77 1
  80   37   38 1
  81   38   78 1
  82   38   79 1

#	End of record

