#	Name: ASD04820003
#	Creating user name:	WinNT
#	Creation time:	15. 06. 2019 20:52

#	Modifying user name:	WinNT
#	Modification time:	15. 06. 2019 20:52

#	Program:	/corina/corina34_cracker 3.40 0067  02.08.2006

@<TRIPOS>MOLECULE
ASD04820003
  45   47    0    0    0
SMALL
NO_CHARGES


@<TRIPOS>ATOM
   1 Cl1          -11.0004    -6.7338     1.3512 Cl      
   2 Cl2          -10.5848    -4.8426     3.7948 Cl      
   3 N3            -0.0279     1.3911    -0.0892 N.pl3   
   4 C4            -0.0034    -0.0048    -0.0472 C.ar    
   5 C5             1.2023    -0.6836    -0.1670 C.ar    
   6 C6             1.2230    -2.0641    -0.1252 C.ar    
   7 C7             0.0451    -2.7701     0.0357 C.ar    
   8 C8             0.0716    -4.2762     0.0814 C.3     
   9 C9             0.2483    -4.7395     1.5288 C.3     
  10 N10           -0.9286    -4.3475     2.3156 N.3     
  11 N11           -2.0653    -4.9122     1.8106 N.pl3   
  12 C12           -3.2882    -4.6652     2.4132 C.2     
  13 N13           -4.4272    -5.1461     2.0211 N.2     
  14 C14           -5.5024    -4.7979     2.7266 C.2     
  15 C15           -6.8641    -5.2773     2.3868 C.ar    
  16 C16           -7.0555    -6.1228     1.2955 C.ar    
  17 C17           -8.3246    -6.5665     0.9829 C.ar    
  18 C18           -9.4067    -6.1730     1.7506 C.ar    
  19 C19           -9.2224    -5.3324     2.8368 C.ar    
  20 C20           -7.9560    -4.8882     3.1613 C.ar    
  21 C21           -5.2663    -3.9820     3.7681 C.2     
  22 S22           -3.5361    -3.6558     3.8345 S.3     
  23 C23            0.3979    -6.2387     1.5616 C.2     
  24 O24           -0.3946    -6.9115     2.1773 O.2     
  25 O25            1.4116    -6.8265     0.9069 O.3     
  26 C26           -1.1573    -2.0972     0.1552 C.ar    
  27 C27           -1.1845    -0.7171     0.1200 C.ar    
  28 N28           -2.4709     0.0023     0.2542 N.pl3   
  29 O29           -2.5217     1.0484     0.8760 O.2     
  30 O30           -3.4788    -0.4517    -0.2573 O.2     
  31 H31            0.8034     1.8910    -0.0906 H       
  32 H32           -0.8762     1.8606    -0.1209 H       
  33 H33            2.1227    -0.1328    -0.2930 H       
  34 H34            2.1602    -2.5926    -0.2186 H       
  35 H35           -0.8656    -4.6682    -0.3138 H       
  36 H36            0.9020    -4.6434    -0.5216 H       
  37 H37            1.1393    -4.2761     1.9524 H       
  38 H38           -0.8084    -4.5850     3.2888 H       
  39 H39           -2.0163    -5.4862     1.0302 H       
  40 H40           -6.2121    -6.4301     0.6951 H       
  41 H41           -8.4734    -7.2217     0.1373 H       
  42 H42           -7.8122    -4.2367     4.0105 H       
  43 H43           -6.0094    -3.5959     4.4502 H       
  44 H44            1.4662    -7.7907     0.9571 H       
  45 H45           -2.0756    -2.6517     0.2804 H       
@<TRIPOS>BOND
   1    1   18 1
   2    2   19 1
   3    3    4 1
   4    3   31 1
   5    3   32 1
   6    4    5 ar
   7    4   27 ar
   8    5    6 ar
   9    5   33 1
  10    6    7 ar
  11    6   34 1
  12    7    8 1
  13    7   26 ar
  14    8    9 1
  15    8   35 1
  16    8   36 1
  17    9   10 1
  18    9   23 1
  19    9   37 1
  20   10   11 1
  21   10   38 1
  22   11   12 1
  23   11   39 1
  24   12   13 2
  25   12   22 1
  26   13   14 1
  27   14   15 1
  28   14   21 2
  29   15   16 ar
  30   15   20 ar
  31   16   17 ar
  32   16   40 1
  33   17   18 ar
  34   17   41 1
  35   18   19 ar
  36   19   20 ar
  37   20   42 1
  38   21   22 1
  39   21   43 1
  40   23   24 2
  41   23   25 1
  42   25   44 1
  43   26   27 ar
  44   26   45 1
  45   27   28 1
  46   28   29 2
  47   28   30 2

#	End of record

