#	Name: ASD02590022
#	Creating user name:	WinNT
#	Creation time:	15. 06. 2019 20:25

#	Modifying user name:	WinNT
#	Modification time:	15. 06. 2019 20:25

#	Program:	/corina/corina34_cracker 3.40 0067  02.08.2006

@<TRIPOS>MOLECULE
ASD02590022
  24   26    0    0    0
SMALL
NO_CHARGES


@<TRIPOS>ATOM
   1 C1            -0.0168     1.3847     0.0097 C.ar    
   2 C2             0.0021    -0.0041     0.0020 C.ar    
   3 C3             1.2007    -0.6874    -0.0131 C.ar    
   4 C4             2.3972     0.0159    -0.0207 C.ar    
   5 C5             2.3848     1.4225    -0.0130 C.ar    
   6 C6             1.1596     2.0999     0.0023 C.ar    
   7 N7             3.7262    -0.3570    -0.0354 N.pl3   
   8 C8             4.4694     0.7931    -0.0363 C.2     
   9 N9             3.6751     1.8343    -0.0231 N.2     
  10 C10            5.9481     0.8507    -0.0493 C.ar    
  11 C11            6.5919     2.0872    -0.0489 C.ar    
  12 C12            7.9761     2.1248    -0.0607 C.ar    
  13 C13            8.6710     0.9244    -0.0726 C.ar    
  14 C14            7.9675    -0.2676    -0.0723 C.ar    
  15 N15            6.6512    -0.2758    -0.0558 N.ar    
  16 Cl16          -1.4930    -0.8864     0.0121 Cl      
  17 Cl17           1.1238     3.8355     0.0114 Cl      
  18 H18           -0.9617     1.9076     0.0169 H       
  19 H19            1.2078    -1.7674    -0.0186 H       
  20 H20            4.0694    -1.2642    -0.0435 H       
  21 H21            6.0192     3.0029    -0.0398 H       
  22 H22            8.5028     3.0677    -0.0611 H       
  23 H23            9.7509     0.9198    -0.0823 H       
  24 H24            8.5058    -1.2038    -0.0815 H       
@<TRIPOS>BOND
   1    1    2 ar
   2    1    6 ar
   3    1   18 1
   4    2    3 ar
   5    2   16 1
   6    3    4 ar
   7    3   19 1
   8    4    5 ar
   9    4    7 1
  10    5    6 ar
  11    5    9 1
  12    6   17 1
  13    7    8 1
  14    7   20 1
  15    8    9 2
  16    8   10 1
  17   10   11 ar
  18   10   15 ar
  19   11   12 ar
  20   11   21 1
  21   12   13 ar
  22   12   22 1
  23   13   14 ar
  24   13   23 1
  25   14   15 ar
  26   14   24 1

#	End of record

