#	Name: ASD03320141
#	Creating user name:	WinNT
#	Creation time:	15. 06. 2019 20:36

#	Modifying user name:	WinNT
#	Modification time:	15. 06. 2019 20:36

#	Program:	/corina/corina34_cracker 3.40 0067  02.08.2006

@<TRIPOS>MOLECULE
ASD03320141
  41   43    0    0    0
SMALL
NO_CHARGES


@<TRIPOS>ATOM
   1 C1             0.0256     1.1497     0.1330 C.ar    
   2 C2            -0.0711    -0.2072    -0.1820 C.ar    
   3 C3            -1.3100    -0.8079    -0.2827 C.ar    
   4 C4            -2.4598    -0.0720    -0.0729 C.ar    
   5 C5            -2.3765     1.2839     0.2424 C.ar    
   6 C6            -1.1322     1.8951     0.3513 C.ar    
   7 C7             1.3523     1.7928     0.2407 C.2     
   8 O8             1.4347     2.9743     0.5151 O.2     
   9 N9             2.4706     1.0693     0.0348 N.am    
  10 C10            3.7224     1.6970     0.0446 C.ar    
  11 C11           -3.6139     2.0721     0.4668 C.ar    
  12 C12            3.9635     2.7523     0.9144 C.ar    
  13 C13            5.1981     3.3708     0.9234 C.ar    
  14 C14            6.1972     2.9385     0.0635 C.ar    
  15 C15            5.9570     1.8843    -0.8057 C.ar    
  16 C16            4.7249     1.2608    -0.8116 C.ar    
  17 O17            7.4123     3.5486     0.0724 O.3     
  18 C18            8.3942     3.0520    -0.8393 C.3     
  19 F19            7.9200     3.1777    -2.1495 F       
  20 C20           -4.5575     1.6720     1.4160 C.ar    
  21 N21           -5.6457     2.4035     1.5843 N.ar    
  22 C22           -5.8458     3.4947     0.8723 C.ar    
  23 N23           -4.9813     3.9070    -0.0336 N.ar    
  24 C24           -3.8643     3.2377    -0.2613 C.ar    
  25 F25            9.5758     3.7877    -0.6985 F       
  26 F26            8.6482     1.7043    -0.5627 F       
  27 C27           -3.8080    -0.7360    -0.1853 C.3     
  28 H28            0.8246    -0.7875    -0.3475 H       
  29 H29           -1.3804    -1.8576    -0.5269 H       
  30 H30           -1.0632     2.9449     0.5953 H       
  31 H31            2.4084     0.1138    -0.1202 H       
  32 H32            3.1856     3.0894     1.5834 H       
  33 H33            5.3858     4.1915     1.5999 H       
  34 H34            6.7352     1.5486    -1.4751 H       
  35 H35            4.5382     0.4399    -1.4881 H       
  36 H36           -4.4006     0.7791     2.0028 H       
  37 H37           -6.7461     4.0685     1.0358 H       
  38 H38           -3.1605     3.5818    -1.0048 H       
  39 H39           -4.1448    -1.0445     0.8043 H       
  40 H40           -4.5248    -0.0333    -0.6103 H       
  41 H41           -3.7297    -1.6103    -0.8315 H       
@<TRIPOS>BOND
   1    1    2 ar
   2    1    7 1
   3    1    6 ar
   4    2    3 ar
   5    2   28 1
   6    3    4 ar
   7    3   29 1
   8    4    5 ar
   9    4   27 1
  10    5    6 ar
  11    5   11 1
  12    6   30 1
  13    7    8 2
  14    7    9 am
  15    9   10 1
  16    9   31 1
  17   10   12 ar
  18   10   16 ar
  19   11   20 ar
  20   11   24 ar
  21   12   13 ar
  22   12   32 1
  23   13   14 ar
  24   13   33 1
  25   14   15 ar
  26   14   17 1
  27   15   16 ar
  28   15   34 1
  29   16   35 1
  30   17   18 1
  31   18   19 1
  32   18   25 1
  33   18   26 1
  34   20   21 ar
  35   20   36 1
  36   21   22 ar
  37   22   23 ar
  38   22   37 1
  39   23   24 ar
  40   24   38 1
  41   27   39 1
  42   27   40 1
  43   27   41 1

#	End of record

