#	Name: ASD01883098
#	Creating user name:	WinNT
#	Creation time:	15. 06. 2019 19:45

#	Modifying user name:	WinNT
#	Modification time:	15. 06. 2019 19:45

#	Program:	/corina/corina34_cracker 3.40 0067  02.08.2006

@<TRIPOS>MOLECULE
ASD01883098
  39   41    0    0    0
SMALL
NO_CHARGES


@<TRIPOS>ATOM
   1 N1            -0.0162     1.3415     0.0094 N.am    
   2 C2             0.0021    -0.0041     0.0020 C.2     
   3 C3            -1.2144    -0.7274     0.0102 C.2     
   4 C4            -2.4281    -0.0089     0.0261 C.2     
   5 C5            -2.3786     1.4027     0.0332 C.2     
   6 C6            -1.1855     2.0348     0.0299 C.2     
   7 O7             1.0660    -0.5997    -0.0122 O.2     
   8 C8            -1.2131    -2.1594     0.0021 C.1     
   9 N9            -1.2121    -3.2954    -0.0044 N.1     
  10 C10            1.2518     2.0753     0.0013 C.3     
  11 C11           -3.7164    -0.7137     0.0347 C.2     
  12 C12            1.6794     2.3385    -1.4440 C.3     
  13 C13            3.0036     3.1048    -1.4525 C.3     
  14 C14           -4.6275    -0.6873     1.0523 C.2     
  15 C15           -5.7512    -1.4391     0.7958 C.2     
  16 C16           -5.7604    -2.0590    -0.3892 C.2     
  17 S17           -4.3366    -1.7208    -1.2664 S.3     
  18 C18            3.4248     3.3641    -2.8761 C.ar    
  19 C19            3.0184     4.5191    -3.5177 C.ar    
  20 C20            3.4048     4.7569    -4.8235 C.ar    
  21 C21            4.1979     3.8398    -5.4875 C.ar    
  22 C22            4.6050     2.6852    -4.8456 C.ar    
  23 C23            4.2222     2.4495    -3.5384 C.ar    
  24 H24           -3.2940     1.9757     0.0451 H       
  25 H25           -1.1596     3.1145     0.0354 H       
  26 H26            1.1254     3.0248     0.5214 H       
  27 H27            2.0169     1.4842     0.5046 H       
  28 H28            1.8058     1.3890    -1.9642 H       
  29 H29            0.9143     2.9295    -1.9474 H       
  30 H30            2.8773     4.0543    -0.9324 H       
  31 H31            3.7687     2.5138    -0.9491 H       
  32 H32           -4.4803    -0.1322     1.9670 H       
  33 H33           -6.5658    -1.5226     1.4999 H       
  34 H34           -6.5641    -2.6864    -0.7454 H       
  35 H35            2.3988     5.2356    -2.9989 H       
  36 H36            3.0867     5.6589    -5.3250 H       
  37 H37            4.4991     4.0253    -6.5079 H       
  38 H38            5.2243     1.9686    -5.3645 H       
  39 H39            4.5403     1.5475    -3.0368 H       
@<TRIPOS>BOND
   1    1    2 am
   2    1   10 1
   3    1    6 1
   4    2    3 1
   5    2    7 2
   6    3    4 2
   7    3    8 1
   8    4    5 1
   9    4   11 1
  10    5    6 2
  11    5   24 1
  12    6   25 1
  13    8    9 3
  14   10   12 1
  15   10   26 1
  16   10   27 1
  17   11   14 2
  18   11   17 1
  19   12   13 1
  20   12   28 1
  21   12   29 1
  22   13   18 1
  23   13   30 1
  24   13   31 1
  25   14   15 1
  26   14   32 1
  27   15   16 2
  28   15   33 1
  29   16   17 1
  30   16   34 1
  31   18   19 ar
  32   18   23 ar
  33   19   20 ar
  34   19   35 1
  35   20   21 ar
  36   20   36 1
  37   21   22 ar
  38   21   37 1
  39   22   23 ar
  40   22   38 1
  41   23   39 1

#	End of record

