#	Name: ASD01810531
#	Creating user name:	WinNT
#	Creation time:	15. 06. 2019 19:24

#	Modifying user name:	WinNT
#	Modification time:	15. 06. 2019 19:24

#	Program:	/corina/corina34_cracker 3.40 0067  02.08.2006

@<TRIPOS>MOLECULE
ASD01810531
  70   74    0    0    0
SMALL
NO_CHARGES


@<TRIPOS>ATOM
   1 S1             1.6258     1.9622    -0.6783 S.3     
   2 C2             2.3821     0.6865     0.3981 C.3     
   3 N3             1.3386    -0.3330     0.5112 N.am    
   4 C4             0.1005     0.0059     0.1632 C.2     
   5 C5            -0.0971     1.4306    -0.3174 C.3     
   6 C6             3.6321     0.1253    -0.2678 C.3     
   7 C7             4.2924    -0.8916     0.6683 C.3     
   8 N8             4.6170    -0.2415     1.9446 N.3     
   9 C9             3.4057     0.2340     2.6253 C.3     
  10 C10            2.7143     1.2897     1.7570 C.3     
  11 C11           -0.9541     1.4640    -1.5844 C.3     
  12 C12           -1.2373     2.9172    -1.9703 C.3     
  13 O13           -0.8199    -0.7813     0.2263 O.2     
  14 C14            1.6473    -1.6819     0.9923 C.3     
  15 N15            3.3307    -6.1325    -0.3617 N.3     
  16 C16            3.4991    -7.0823    -1.4689 C.3     
  17 C17            3.8031    -8.4733    -0.9078 C.3     
  18 C18            5.0804    -8.4106    -0.0656 C.3     
  19 C19            4.8960    -7.3792     1.0510 C.3     
  20 C20            4.5603    -6.0200     0.4331 C.3     
  21 N21            5.3445    -9.7263     0.5219 N.am    
  22 C22            6.4849   -10.4984     0.3128 C.ar    
  23 C23            4.5290   -10.3929     1.3605 C.2     
  24 N24            5.0909   -11.5682     1.7006 N.am    
  25 C25            6.3230   -11.6675     1.0588 C.ar    
  26 C26            7.3123   -12.6390     1.0432 C.ar    
  27 C27            8.4534   -12.4461     0.2896 C.ar    
  28 C28            8.6140   -11.2868    -0.4498 C.ar    
  29 C29            7.6353   -10.3124    -0.4386 C.ar    
  30 O30            3.4481    -9.9936     1.7518 O.2     
  31 C31            2.0511    -2.5650    -0.1900 C.3     
  32 C32            2.4979    -3.9345     0.3256 C.3     
  33 C33            2.9017    -4.8176    -0.8568 C.3     
  34 H34           -0.5372     2.0469     0.4665 H       
  35 H35            3.3576    -0.3649    -1.2019 H       
  36 H36            4.3300     0.9368    -0.4739 H       
  37 H37            3.6071    -1.7202     0.8464 H       
  38 H38            5.2066    -1.2680     0.2093 H       
  39 H39            5.1477    -0.8592     2.5403 H       
  40 H40            2.7276    -0.6038     2.7879 H       
  41 H41            3.6770     0.6737     3.5850 H       
  42 H42            3.3792     2.1430     1.6234 H       
  43 H43            1.7957     1.6166     2.2442 H       
  44 H44           -0.4213     0.9696    -2.3966 H       
  45 H45           -1.8958     0.9470    -1.3998 H       
  46 H46           -1.8479     2.9411    -2.8729 H       
  47 H47           -1.7701     3.4116    -1.1580 H       
  48 H48           -0.2956     3.4342    -2.1548 H       
  49 H49            2.4689    -1.6336     1.7070 H       
  50 H50            0.7677    -2.1046     1.4778 H       
  51 H51            2.5824    -7.1205    -2.0573 H       
  52 H52            4.3243    -6.7583    -2.1031 H       
  53 H53            2.9722    -8.8038    -0.2846 H       
  54 H54            3.9435    -9.1748    -1.7302 H       
  55 H55            5.9191    -8.1176    -0.6972 H       
  56 H56            4.0823    -7.6926     1.7051 H       
  57 H57            5.8172    -7.2991     1.6281 H       
  58 H58            5.3805    -5.7009    -0.2100 H       
  59 H59            4.4143    -5.2866     1.2261 H       
  60 H60            4.7046   -12.2315     2.2936 H       
  61 H61            7.1908   -13.5444     1.6194 H       
  62 H62            9.2240   -13.2027     0.2774 H       
  63 H63            9.5093   -11.1429    -1.0365 H       
  64 H64            7.7641    -9.4093    -1.0167 H       
  65 H65            1.1992    -2.6888    -0.8587 H       
  66 H66            2.8723    -2.0948    -0.7310 H       
  67 H67            3.3498    -3.8107     0.9942 H       
  68 H68            1.6767    -4.4047     0.8665 H       
  69 H69            3.7229    -4.3474    -1.3977 H       
  70 H70            2.0498    -4.9414    -1.5254 H       
@<TRIPOS>BOND
   1    1    2 1
   2    1    5 1
   3    2    3 1
   4    2    6 1
   5    2   10 1
   6    3    4 am
   7    3   14 1
   8    4    5 1
   9    4   13 2
  10    5   11 1
  11    5   34 1
  12    6    7 1
  13    6   35 1
  14    6   36 1
  15    7    8 1
  16    7   37 1
  17    7   38 1
  18    8    9 1
  19    8   39 1
  20    9   10 1
  21    9   40 1
  22    9   41 1
  23   10   42 1
  24   10   43 1
  25   11   12 1
  26   11   44 1
  27   11   45 1
  28   12   46 1
  29   12   47 1
  30   12   48 1
  31   14   31 1
  32   14   49 1
  33   14   50 1
  34   15   33 1
  35   15   16 1
  36   15   20 1
  37   16   17 1
  38   16   51 1
  39   16   52 1
  40   17   18 1
  41   17   53 1
  42   17   54 1
  43   18   19 1
  44   18   21 1
  45   18   55 1
  46   19   20 1
  47   19   56 1
  48   19   57 1
  49   20   58 1
  50   20   59 1
  51   21   22 1
  52   21   23 am
  53   22   25 ar
  54   22   29 ar
  55   23   24 am
  56   23   30 2
  57   24   25 1
  58   24   60 1
  59   25   26 ar
  60   26   27 ar
  61   26   61 1
  62   27   28 ar
  63   27   62 1
  64   28   29 ar
  65   28   63 1
  66   29   64 1
  67   31   32 1
  68   31   65 1
  69   31   66 1
  70   32   33 1
  71   32   67 1
  72   32   68 1
  73   33   69 1
  74   33   70 1

#	End of record

