#	Name: ASD03740111
#	Creating user name:	WinNT
#	Creation time:	15. 06. 2019 20:46

#	Modifying user name:	WinNT
#	Modification time:	15. 06. 2019 20:46

#	Program:	/corina/corina34_cracker 3.40 0067  02.08.2006

@<TRIPOS>MOLECULE
ASD03740111
  52   54    0    0    0
SMALL
NO_CHARGES


@<TRIPOS>ATOM
   1 Cl1            0.0000     0.0000     0.0000 Cl      
   2 H2             0.0000     1.3700     0.0000 H       
   3 C3             6.1954    11.6355     9.8588 C.ar    
   4 C4             5.9986    10.2639     9.7535 C.ar    
   5 C5             7.0526     9.3983     9.8274 C.ar    
   6 C6             8.3428     9.8909    10.0101 C.ar    
   7 C7             8.5437    11.2803    10.1165 C.ar    
   8 C8             7.4484    12.1463    10.0381 C.ar    
   9 N9             9.5756     9.3028    10.1217 N.pl3   
  10 N10           10.5443    10.2965    10.2959 N.2     
  11 C11            9.9819    11.4743    10.2990 C.2     
  12 C12            9.8371     7.8624    10.0677 C.3     
  13 C13           10.0940     7.4516     8.6407 C.ar    
  14 C14           11.3813     7.4699     8.1373 C.ar    
  15 C15           11.6170     7.0932     6.8283 C.ar    
  16 C16           10.5654     6.6978     6.0229 C.ar    
  17 C17            9.2782     6.6786     6.5266 C.ar    
  18 C18            9.0432     7.0512     7.8369 C.ar    
  19 O19           10.6182    12.6666    10.4451 O.3     
  20 C20           12.0370    12.6286    10.6116 C.3     
  21 C21           12.5715    14.0545    10.7594 C.3     
  22 N22           12.0028    14.6680    11.9670 N.3     
  23 C23           12.5658    16.0053    12.1929 C.3     
  24 C24           12.1993    13.8043    13.1383 C.3     
  25 C25           11.4707    14.4035    14.3434 C.3     
  26 C26           12.0211    15.8050    14.6213 C.3     
  27 C27           11.8481    16.6701    13.3698 C.3     
  28 H28            5.3495    12.3038     9.7937 H       
  29 H29            5.0000     9.8776     9.6118 H       
  30 H30            6.8861     8.3344     9.7448 H       
  31 H31            7.5932    13.2135    10.1184 H       
  32 H32           10.7109     7.6287    10.6760 H       
  33 H33            8.9721     7.3214    10.4514 H       
  34 H34           12.2029     7.7788     8.7666 H       
  35 H35           12.6226     7.1081     6.4348 H       
  36 H36           10.7495     6.4041     5.0000 H       
  37 H37            8.4566     6.3700     5.8972 H       
  38 H38            8.0375     7.0362     8.2304 H       
  39 H39           12.2827    12.0541    11.5047 H       
  40 H40           12.4926    12.1582     9.7403 H       
  41 H41           13.6580    14.0285    10.8422 H       
  42 H42           12.2876    14.6413     9.8857 H       
  43 H43           13.6288    15.9186    12.4178 H       
  44 H44           12.4325    16.6115    11.2969 H       
  45 H45           11.7998    12.8120    12.9290 H       
  46 H46           13.2640    13.7280    13.3588 H       
  47 H47           10.4040    14.4673    14.1289 H       
  48 H48           11.6297    13.7704    15.2164 H       
  49 H49           11.4752    16.2527    15.4518 H       
  50 H50           13.0792    15.7374    14.8740 H       
  51 H51           12.2767    17.6565    13.5471 H       
  52 H52           10.7873    16.7696    13.1399 H       
@<TRIPOS>BOND
   1    1    2 1
   2    3    4 ar
   3    3    8 ar
   4    3   28 1
   5    4    5 ar
   6    4   29 1
   7    5    6 ar
   8    5   30 1
   9    6    7 ar
  10    6    9 1
  11    7    8 ar
  12    7   11 1
  13    8   31 1
  14    9   10 1
  15    9   12 1
  16   10   11 2
  17   11   19 1
  18   12   13 1
  19   12   32 1
  20   12   33 1
  21   13   14 ar
  22   13   18 ar
  23   14   15 ar
  24   14   34 1
  25   15   16 ar
  26   15   35 1
  27   16   17 ar
  28   16   36 1
  29   17   18 ar
  30   17   37 1
  31   18   38 1
  32   19   20 1
  33   20   21 1
  34   20   39 1
  35   20   40 1
  36   21   22 1
  37   21   41 1
  38   21   42 1
  39   22   23 1
  40   22   24 1
  41   23   27 1
  42   23   43 1
  43   23   44 1
  44   24   25 1
  45   24   45 1
  46   24   46 1
  47   25   26 1
  48   25   47 1
  49   25   48 1
  50   26   27 1
  51   26   49 1
  52   26   50 1
  53   27   51 1
  54   27   52 1

#	End of record

