#	Name: ASD01918116
#	Creating user name:	WinNT
#	Creation time:	15. 06. 2019 20:10

#	Modifying user name:	WinNT
#	Modification time:	15. 06. 2019 20:10

#	Program:	/corina/corina34_cracker 3.40 0067  02.08.2006

@<TRIPOS>MOLECULE
ASD01918116
  37   39    0    0    0
SMALL
NO_CHARGES


@<TRIPOS>ATOM
   1 N1            -0.0170     1.3953     0.0110 N.am    
   2 C2             0.0019    -0.0042     0.0064 C.2     
   3 C3             2.4259    -0.1104    -0.5594 C.3     
   4 C4             2.2030     1.3390    -1.0059 C.3     
   5 C5             1.3004     2.0617     0.0002 C.3     
   6 C6            -1.0007    -0.8781     0.2390 C.2     
   7 C7            -0.4734    -2.1702     0.1186 C.2     
   8 N8             0.8007    -2.0713    -0.1762 N.2     
   9 N9             1.1281    -0.7183    -0.2547 N.pl3   
  10 C10           -1.2396    -3.4554     0.2979 C.3     
  11 S11           -1.9331    -3.9734    -1.2963 S.3     
  12 C12           -1.1698     2.0934     0.0191 C.2     
  13 O13           -2.2309     1.5129    -0.0717 O.2     
  14 C14           -2.7785    -5.4662    -0.8945 C.ar    
  15 C15           -3.4513    -6.1735    -1.8837 C.ar    
  16 C16           -4.1127    -7.3430    -1.5652 C.ar    
  17 C17           -4.1066    -7.8104    -0.2635 C.ar    
  18 C18           -3.4385    -7.1089     0.7236 C.ar    
  19 C19           -2.7693    -5.9422     0.4111 C.ar    
  20 C20           -1.1405     3.5952     0.1408 C.3     
  21 H21            2.9113    -0.6684    -1.3601 H       
  22 H22            3.0542    -0.1254     0.3312 H       
  23 H23            3.1632     1.8516    -1.0643 H       
  24 H24            1.7297     1.3467    -1.9878 H       
  25 H25            1.1813     3.1036    -0.2972 H       
  26 H26            1.7450     2.0101     0.9941 H       
  27 H27           -2.0240    -0.6264     0.4755 H       
  28 H28           -0.5689    -4.2293     0.6710 H       
  29 H29           -2.0480    -3.2998     1.0124 H       
  30 H30           -3.4571    -5.8088    -2.9002 H       
  31 H31           -4.6358    -7.8932    -2.3333 H       
  32 H32           -4.6251    -8.7252    -0.0172 H       
  33 H33           -3.4362    -7.4766     1.7390 H       
  34 H34           -2.2478    -5.3949     1.1824 H       
  35 H35           -0.5106     4.0112    -0.6455 H       
  36 H36           -2.1525     3.9876     0.0414 H       
  37 H37           -0.7371     3.8729     1.1146 H       
@<TRIPOS>BOND
   1    1    2 1
   2    1    5 1
   3    1   12 am
   4    2    6 2
   5    2    9 1
   6    3    4 1
   7    3    9 1
   8    3   21 1
   9    3   22 1
  10    4    5 1
  11    4   23 1
  12    4   24 1
  13    5   25 1
  14    5   26 1
  15    6    7 1
  16    6   27 1
  17    7    8 2
  18    7   10 1
  19    8    9 1
  20   10   11 1
  21   10   28 1
  22   10   29 1
  23   11   14 1
  24   12   13 2
  25   12   20 1
  26   14   15 ar
  27   14   19 ar
  28   15   16 ar
  29   15   30 1
  30   16   17 ar
  31   16   31 1
  32   17   18 ar
  33   17   32 1
  34   18   19 ar
  35   18   33 1
  36   19   34 1
  37   20   35 1
  38   20   36 1
  39   20   37 1

#	End of record

