#	Name: ASD00570004
#	Creating user name:	WinNT
#	Creation time:	15. 06. 2019 18:36

#	Modifying user name:	WinNT
#	Modification time:	15. 06. 2019 18:36

#	Program:	/corina/corina34_cracker 3.40 0067  02.08.2006

@<TRIPOS>MOLECULE
ASD00570004
  64   67    0    0    0
SMALL
NO_CHARGES


@<TRIPOS>ATOM
   1 C1             7.0318    -2.2452    -6.2083 C.ar    
   2 C2             6.6672    -3.3420    -5.4381 C.ar    
   3 C3             6.4709    -3.2173    -4.0816 C.ar    
   4 C4             6.6404    -1.9726    -3.4691 C.ar    
   5 C5             7.0121    -0.8584    -4.2562 C.ar    
   6 C6             7.2052    -1.0077    -5.6286 C.ar    
   7 N7             6.4566    -1.8079    -2.1380 N.2     
   8 C8             6.6150    -0.6411    -1.5635 C.2     
   9 N9             6.9730     0.4858    -2.2509 N.am    
  10 C10            7.1830     0.4380    -3.5867 C.2     
  11 C11            7.1234     1.6989    -1.5666 C.ar    
  12 C12            6.0098     2.3517    -1.0549 C.ar    
  13 C13            6.1615     3.5473    -0.3804 C.ar    
  14 C14            7.4206     4.0943    -0.2143 C.ar    
  15 C15            8.5315     3.4468    -0.7231 C.ar    
  16 C16            8.3870     2.2480    -1.3936 C.ar    
  17 S17            6.3543    -0.5180     0.1747 S.3     
  18 C18            5.7603    -2.1920     0.5228 C.3     
  19 C19            6.8828    -3.1762     0.3167 C.2     
  20 C20            5.2735    -2.2695     1.9712 C.3     
  21 C21            4.0455    -1.3736     2.1451 C.3     
  22 C22            3.6249    -1.3647     3.6162 C.3     
  23 C23            2.3969    -0.4688     3.7901 C.3     
  24 N24            6.6061    -4.4612     0.0190 N.am    
  25 C25            7.6895    -5.4325    -0.1847 C.3     
  26 C26            7.4905    -6.1158    -1.5413 C.3     
  27 C27            6.0855    -6.7194    -1.6027 C.3     
  28 C28            5.0439    -5.6067    -1.4650 C.3     
  29 C29            5.2151    -4.9188    -0.1020 C.3     
  30 O30            8.0351    -2.8120     0.4188 O.2     
  31 C31            5.8981    -7.4219    -2.9227 C.2     
  32 N32            4.7292    -8.0321    -3.2014 N.am    
  33 O33            6.7993    -7.4382    -3.7342 O.2     
  34 O34            7.5020     1.4332    -4.2111 O.2     
  35 H35            7.1851    -2.3646    -7.2707 H       
  36 H36            6.5357    -4.3047    -5.9097 H       
  37 H37            6.1868    -4.0772    -3.4933 H       
  38 H38            7.4888    -0.1589    -6.2332 H       
  39 H39            5.0262     1.9252    -1.1847 H       
  40 H40            5.2957     4.0558     0.0175 H       
  41 H41            7.5366     5.0294     0.3136 H       
  42 H42            9.5135     3.8768    -0.5924 H       
  43 H43            9.2549     1.7427    -1.7908 H       
  44 H44            4.9376    -2.4329    -0.1504 H       
  45 H45            5.0088    -3.2994     2.2109 H       
  46 H46            6.0662    -1.9331     2.6395 H       
  47 H47            4.2886    -0.3587     1.8306 H       
  48 H48            3.2270    -1.7567     1.5356 H       
  49 H49            3.3818    -2.3796     3.9307 H       
  50 H50            4.4434    -0.9817     4.2257 H       
  51 H51            2.6401     0.5461     3.4756 H       
  52 H52            1.5785    -0.8519     3.1806 H       
  53 H53            2.0973    -0.4624     4.8381 H       
  54 H54            8.6497    -4.9167    -0.1728 H       
  55 H55            7.6641    -6.1800     0.6082 H       
  56 H56            7.6063    -5.3819    -2.3388 H       
  57 H57            8.2315    -6.9059    -1.6629 H       
  58 H58            5.9619    -7.4351    -0.7899 H       
  59 H59            5.1828    -4.8775    -2.2632 H       
  60 H60            4.0436    -6.0344    -1.5322 H       
  61 H61            4.9868    -5.6260     0.6954 H       
  62 H62            4.5432    -4.0629    -0.0377 H       
  63 H63            4.0084    -8.0190    -2.5523 H       
  64 H64            4.6085    -8.4843    -4.0510 H       
@<TRIPOS>BOND
   1    1    2 ar
   2    1    6 ar
   3    1   35 1
   4    2    3 ar
   5    2   36 1
   6    3    4 ar
   7    3   37 1
   8    4    5 ar
   9    4    7 1
  10    5    6 ar
  11    5   10 1
  12    6   38 1
  13    7    8 2
  14    8    9 1
  15    8   17 1
  16    9   10 am
  17    9   11 1
  18   10   34 2
  19   11   12 ar
  20   11   16 ar
  21   12   13 ar
  22   12   39 1
  23   13   14 ar
  24   13   40 1
  25   14   15 ar
  26   14   41 1
  27   15   16 ar
  28   15   42 1
  29   16   43 1
  30   17   18 1
  31   18   19 1
  32   18   20 1
  33   18   44 1
  34   19   24 am
  35   19   30 2
  36   20   21 1
  37   20   45 1
  38   20   46 1
  39   21   22 1
  40   21   47 1
  41   21   48 1
  42   22   23 1
  43   22   49 1
  44   22   50 1
  45   23   51 1
  46   23   52 1
  47   23   53 1
  48   24   25 1
  49   24   29 1
  50   25   26 1
  51   25   54 1
  52   25   55 1
  53   26   27 1
  54   26   56 1
  55   26   57 1
  56   27   28 1
  57   27   31 1
  58   27   58 1
  59   28   29 1
  60   28   59 1
  61   28   60 1
  62   29   61 1
  63   29   62 1
  64   31   32 am
  65   31   33 2
  66   32   63 1
  67   32   64 1

#	End of record

