#	Name: ASD01230345
#	Creating user name:	WinNT
#	Creation time:	15. 06. 2019 19:14

#	Modifying user name:	WinNT
#	Modification time:	15. 06. 2019 19:14

#	Program:	/corina/corina34_cracker 3.40 0067  02.08.2006

@<TRIPOS>MOLECULE
ASD01230345
  26   27    0    0    0
SMALL
NO_CHARGES


@<TRIPOS>ATOM
   1 C1            -0.0166     1.3749     0.0096 C.ar    
   2 C2             0.0021    -0.0041     0.0020 C.ar    
   3 C3             1.2067    -0.6853    -0.0127 C.ar    
   4 C4             2.3969     0.0211    -0.0278 C.ar    
   5 C5             2.3807     1.4003    -0.0281 C.ar    
   6 C6             1.1782     2.0930     0.0020 C.ar    
   7 N7             1.1258     3.4843     0.0471 N.pl3   
   8 S8             3.9020     2.2984    -0.0844 S.o2    
   9 N9             3.4733     3.8812     0.2218 N.am    
  10 C10            2.2180     4.3431    -0.4044 C.3     
  11 Cl11           1.2250    -2.4212    -0.0118 Cl      
  12 O12            4.6774     1.8618     1.0235 O.2     
  13 O13            4.3575     2.2497    -1.4295 O.2     
  14 C14            4.2918     4.7597     1.0613 C.3     
  15 C15            2.3424     4.2574    -1.9270 C.3     
  16 H16           -0.9602     1.9002     0.0169 H       
  17 H17           -0.9271    -0.5546     0.0080 H       
  18 H18            3.3385    -0.5078    -0.0390 H       
  19 H19            0.3237     3.9041     0.3954 H       
  20 H20            2.0192     5.3733    -0.1090 H       
  21 H21            5.1657     4.2129     1.4155 H       
  22 H22            4.6146     5.6221     0.4781 H       
  23 H23            3.7041     5.0975     1.9148 H       
  24 H24            1.4101     4.5853    -2.3867 H       
  25 H25            3.1577     4.8988    -2.2616 H       
  26 H26            2.5480     3.2271    -2.2173 H       
@<TRIPOS>BOND
   1    1    2 ar
   2    1    6 ar
   3    1   16 1
   4    2    3 ar
   5    2   17 1
   6    3    4 ar
   7    3   11 1
   8    4    5 ar
   9    4   18 1
  10    5    6 ar
  11    5    8 1
  12    6    7 1
  13    7   10 1
  14    7   19 1
  15    8    9 am
  16    8   12 2
  17    8   13 2
  18    9   10 1
  19    9   14 1
  20   10   15 1
  21   10   20 1
  22   14   21 1
  23   14   22 1
  24   14   23 1
  25   15   24 1
  26   15   25 1
  27   15   26 1

#	End of record

