#	Name: ASD01028553
#	Creating user name:	WinNT
#	Creation time:	15. 06. 2019 18:57

#	Modifying user name:	WinNT
#	Modification time:	15. 06. 2019 18:57

#	Program:	/corina/corina34_cracker 3.40 0067  02.08.2006

@<TRIPOS>MOLECULE
ASD01028553
  46   50    0    0    0
SMALL
NO_CHARGES


@<TRIPOS>ATOM
   1 C1            -0.0164     1.3570     0.0095 C.2     
   2 N2             0.0021    -0.0041     0.0020 N.pl3   
   3 C3             1.1507     2.0623     0.0021 C.2     
   4 C4             2.3924     1.3795    -0.0134 C.2     
   5 C5             2.4117     0.0227    -0.0208 C.2     
   6 C6             1.1937    -0.6873    -0.0130 C.2     
   7 N7             0.8958    -1.9761    -0.0170 N.2     
   8 N8            -0.3825    -2.1221    -0.0056 N.2     
   9 C9            -0.9725    -0.9550     0.0054 C.2     
  10 C10           -2.4590    -0.7079     0.0215 C.3     
  11 C11            1.1207     3.5400     0.0099 C.2     
  12 O12           -2.9154    -0.6363     1.3737 O.3     
  13 C13           -4.2395    -0.4167     1.5656 C.ar    
  14 C14           -5.1007    -0.2701     0.4927 C.ar    
  15 C15           -6.4527    -0.0465     0.7200 C.ar    
  16 N16           -6.9465     0.0317     1.9335 N.ar    
  17 C17           -6.1714    -0.1007     3.0163 C.ar    
  18 C18           -4.7831    -0.3366     2.8675 C.ar    
  19 C19           -6.7157    -0.0150     4.3080 C.ar    
  20 C20           -5.8941    -0.1555     5.4030 C.ar    
  21 C21           -4.5235    -0.3828     5.2445 C.ar    
  22 C22           -3.9724    -0.4759     4.0041 C.ar    
  23 C23            1.5755     4.3667     1.0015 C.2     
  24 C24            1.3118     5.6612     0.5102 C.2     
  25 N25            0.7569     5.5097    -0.6591 N.2     
  26 O26            0.6462     4.3437    -0.9587 O.3     
  27 O27           -6.4206    -0.0721     6.6524 O.3     
  28 C28           -5.5171    -0.2264     7.7487 C.3     
  29 C29            1.6120     6.9657     1.2023 C.3     
  30 F30            2.8953     7.3965     0.8490 F       
  31 F31            0.6735     7.9272     0.8126 F       
  32 F32            1.5460     6.7844     2.5880 F       
  33 H33           -0.9606     1.8813     0.0168 H       
  34 H34            3.3181     1.9358    -0.0196 H       
  35 H35            3.3519    -0.5086    -0.0323 H       
  36 H36           -2.6765     0.2321    -0.4857 H       
  37 H37           -2.9685    -1.5237    -0.4913 H       
  38 H38           -4.7232    -0.3289    -0.5175 H       
  39 H39           -7.1156     0.0665    -0.1250 H       
  40 H40           -7.7729     0.1607     4.4413 H       
  41 H41           -3.8959    -0.4903     6.1168 H       
  42 H42           -2.9124    -0.6516     3.8946 H       
  43 H43            2.0300     4.0913     1.9417 H       
  44 H44           -5.0446    -1.2071     7.6949 H       
  45 H45           -4.7522     0.5486     7.7009 H       
  46 H46           -6.0655    -0.1383     8.6866 H       
@<TRIPOS>BOND
   1    1    2 1
   2    1    3 2
   3    1   33 1
   4    2    6 1
   5    2    9 1
   6    3    4 1
   7    3   11 1
   8    4    5 2
   9    4   34 1
  10    5    6 1
  11    5   35 1
  12    6    7 2
  13    7    8 1
  14    8    9 2
  15    9   10 1
  16   10   12 1
  17   10   36 1
  18   10   37 1
  19   11   23 2
  20   11   26 1
  21   12   13 1
  22   13   14 ar
  23   13   18 ar
  24   14   15 ar
  25   14   38 1
  26   15   16 ar
  27   15   39 1
  28   16   17 ar
  29   17   18 ar
  30   17   19 ar
  31   18   22 ar
  32   19   20 ar
  33   19   40 1
  34   20   21 ar
  35   20   27 1
  36   21   22 ar
  37   21   41 1
  38   22   42 1
  39   23   24 1
  40   23   43 1
  41   24   25 2
  42   24   29 1
  43   25   26 1
  44   27   28 1
  45   28   44 1
  46   28   45 1
  47   28   46 1
  48   29   30 1
  49   29   31 1
  50   29   32 1

#	End of record

