#	Name: ASD08390021
#	Creating user name:	WinNT
#	Creation time:	15. 06. 2019 21:19

#	Modifying user name:	WinNT
#	Modification time:	15. 06. 2019 21:19

#	Program:	/corina/corina34_cracker 3.40 0067  02.08.2006

@<TRIPOS>MOLECULE
ASD08390021
  49   52    0    0    0
SMALL
NO_CHARGES


@<TRIPOS>ATOM
   1 N1             0.0722     1.7338    -0.3913 N.2     
   2 C2            -0.0170     0.2688    -0.3219 C.3     
   3 C3             1.3554    -0.1640     0.2309 C.3     
   4 N4             2.0655     1.1134     0.4110 N.pl3   
   5 C5             1.2309     2.1289     0.0217 C.2     
   6 C6             1.0825    -2.8762     2.8469 C.ar    
   7 C7             1.2313    -2.2592     1.6192 C.ar    
   8 C8             1.1970    -0.8748     1.5503 C.ar    
   9 C9             1.0140    -0.1600     2.7241 C.ar    
  10 C10            0.8728    -0.8462     3.9154 C.ar    
  11 N11            0.9102    -2.1641     3.9433 N.ar    
  12 C12            1.6236     3.5559     0.0705 C.ar    
  13 C13            1.3104     4.4049    -0.9907 C.ar    
  14 C14            1.6786     5.7338    -0.9392 C.ar    
  15 C15            2.3574     6.2242     0.1618 C.ar    
  16 C16            2.6710     5.3870     1.2176 C.ar    
  17 C17            2.3031     4.0576     1.1803 C.ar    
  18 C18           -1.1367    -0.1556     0.6305 C.3     
  19 C19            4.4110     1.0970    -0.2117 C.ar    
  20 C20            4.7406     2.1738    -1.0133 C.ar    
  21 C21            5.6444     2.0148    -2.0471 C.ar    
  22 C22            6.2189     0.7790    -2.2790 C.ar    
  23 C23            5.8899    -0.2976    -1.4767 C.ar    
  24 C24            4.9850    -0.1389    -0.4438 C.ar    
  25 C25            3.4304     1.2718     0.9192 C.3     
  26 C26           -0.2440    -0.3120    -1.6938 C.2     
  27 O27            0.2725    -1.3609    -1.9988 O.2     
  28 O28           -1.0199     0.3358    -2.5770 O.3     
  29 H29            1.8774    -0.7962    -0.4874 H       
  30 H30            1.1036    -3.9543     2.9085 H       
  31 H31            1.3725    -2.8479     0.7249 H       
  32 H32            0.9825     0.9194     2.7078 H       
  33 H33            0.7298    -0.2967     4.8342 H       
  34 H34            0.7810     4.0230    -1.8511 H       
  35 H35            1.4366     6.3922    -1.7604 H       
  36 H36            2.6441     7.2649     0.1973 H       
  37 H37            3.2011     5.7756     2.0745 H       
  38 H38            2.5444     3.4059     2.0070 H       
  39 H39           -2.0908     0.2185     0.2592 H       
  40 H40           -1.1710    -1.2435     0.6891 H       
  41 H41           -0.9460     0.2558     1.6217 H       
  42 H42            4.2918     3.1393    -0.8322 H       
  43 H43            5.9015     2.8559    -2.6739 H       
  44 H44            6.9245     0.6546    -3.0871 H       
  45 H45            6.3382    -1.2633    -1.6583 H       
  46 H46            4.7274    -0.9802     0.1825 H       
  47 H47            3.5448     2.2671     1.3488 H       
  48 H48            3.6221     0.5210     1.6858 H       
  49 H49           -1.1360    -0.0759    -3.4442 H       
@<TRIPOS>BOND
   1    1    2 1
   2    1    5 2
   3    2   18 1
   4    2   26 1
   5    2    3 1
   6    3    4 1
   7    3    8 1
   8    3   29 1
   9    4    5 1
  10    4   25 1
  11    5   12 1
  12    6    7 ar
  13    6   11 ar
  14    6   30 1
  15    7    8 ar
  16    7   31 1
  17    8    9 ar
  18    9   10 ar
  19    9   32 1
  20   10   11 ar
  21   10   33 1
  22   12   13 ar
  23   12   17 ar
  24   13   14 ar
  25   13   34 1
  26   14   15 ar
  27   14   35 1
  28   15   16 ar
  29   15   36 1
  30   16   17 ar
  31   16   37 1
  32   17   38 1
  33   18   39 1
  34   18   40 1
  35   18   41 1
  36   19   20 ar
  37   19   24 ar
  38   19   25 1
  39   20   21 ar
  40   20   42 1
  41   21   22 ar
  42   21   43 1
  43   22   23 ar
  44   22   44 1
  45   23   24 ar
  46   23   45 1
  47   24   46 1
  48   25   47 1
  49   25   48 1
  50   26   27 2
  51   26   28 1
  52   28   49 1

#	End of record

