#	Name: ASD05250008
#	Creating user name:	WinNT
#	Creation time:	15. 06. 2019 20:58

#	Modifying user name:	WinNT
#	Modification time:	15. 06. 2019 20:58

#	Program:	/corina/corina34_cracker 3.40 0067  02.08.2006

@<TRIPOS>MOLECULE
ASD05250008
  43   47    0    0    0
SMALL
NO_CHARGES


@<TRIPOS>ATOM
   1 C1            -0.0095     1.3598     0.0052 C.ar    
   2 C2             0.0144    -0.0273    -0.0153 C.ar    
   3 C3             1.2150    -0.7058    -0.0373 C.ar    
   4 C4             2.4082     0.0018    -0.0395 C.ar    
   5 C5             2.3901     1.4080    -0.0193 C.ar    
   6 C6             1.1636     2.0794     0.0033 C.ar    
   7 N7             3.7401    -0.3663    -0.0589 N.pl3   
   8 C8             4.4790     0.7864    -0.0504 C.2     
   9 N9             3.6796     1.8255    -0.0271 N.2     
  10 C10            5.9547     0.8498    -0.0647 C.ar    
  11 C11            6.7080    -0.3214     0.0200 C.ar    
  12 C12            8.0859    -0.2560     0.0056 C.ar    
  13 C13            8.7263     0.9676    -0.0920 C.ar    
  14 C14            7.9930     2.1351    -0.1766 C.ar    
  15 C15            6.6063     2.0871    -0.1694 C.ar    
  16 N16            5.8643     3.2644    -0.2550 N.am    
  17 C17            6.3205     4.3923     0.3248 C.2     
  18 C18            5.5948     5.6698     0.1329 C.ar    
  19 O19            7.3271     4.3615     1.0049 O.2     
  20 C20            6.0753     6.8429     0.7401 C.ar    
  21 N21            5.4454     7.9836     0.5805 N.ar    
  22 C22            4.3364     8.0320    -0.1659 C.ar    
  23 C23            3.8488     6.8480    -0.7806 C.ar    
  24 N24            4.5033     5.6988    -0.6125 N.ar    
  25 C25            2.0366     8.0975    -1.7212 C.ar    
  26 C26            2.6802     6.9099    -1.5640 C.ar    
  27 C27            3.6420     9.2395    -0.3530 C.ar    
  28 C28            2.5162     9.2597    -1.1171 C.ar    
  29 H29           -0.9564     1.8791     0.0181 H       
  30 H30           -0.9137    -0.5796    -0.0136 H       
  31 H31            1.2261    -1.7856    -0.0524 H       
  32 H32            1.1371     3.1590     0.0193 H       
  33 H33            4.0867    -1.2721    -0.0752 H       
  34 H34            6.2130    -1.2781     0.0970 H       
  35 H35            8.6677    -1.1635     0.0713 H       
  36 H36            9.8055     1.0094    -0.1018 H       
  37 H37            8.4995     3.0860    -0.2522 H       
  38 H38            5.0196     3.2717    -0.7320 H       
  39 H39            6.9703     6.8055     1.3433 H       
  40 H40            1.1407     8.1415    -2.3226 H       
  41 H41            2.2971     6.0184    -2.0382 H       
  42 H42            4.0003    10.1480     0.1083 H       
  43 H43            1.9861    10.1900    -1.2583 H       
@<TRIPOS>BOND
   1    1    2 ar
   2    1    6 ar
   3    1   29 1
   4    2    3 ar
   5    2   30 1
   6    3    4 ar
   7    3   31 1
   8    4    5 ar
   9    4    7 1
  10    5    6 ar
  11    5    9 1
  12    6   32 1
  13    7    8 1
  14    7   33 1
  15    8    9 2
  16    8   10 1
  17   10   11 ar
  18   10   15 ar
  19   11   12 ar
  20   11   34 1
  21   12   13 ar
  22   12   35 1
  23   13   14 ar
  24   13   36 1
  25   14   15 ar
  26   14   37 1
  27   15   16 1
  28   16   17 am
  29   16   38 1
  30   17   18 1
  31   17   19 2
  32   18   20 ar
  33   18   24 ar
  34   20   21 ar
  35   20   39 1
  36   21   22 ar
  37   22   23 ar
  38   22   27 ar
  39   23   24 ar
  40   23   26 ar
  41   25   26 ar
  42   25   28 ar
  43   25   40 1
  44   26   41 1
  45   27   28 ar
  46   27   42 1
  47   28   43 1

#	End of record

