#	Name: ASD01411174
#	Creating user name:	WinNT
#	Creation time:	15. 06. 2019 19:19

#	Modifying user name:	WinNT
#	Modification time:	15. 06. 2019 19:19

#	Program:	/corina/corina34_cracker 3.40 0067  02.08.2006

@<TRIPOS>MOLECULE
ASD01411174
  67   69    0    0    0
SMALL
NO_CHARGES


@<TRIPOS>ATOM
   1 C1             6.1008     6.6793    -2.9103 C.ar    
   2 C2             7.2262     6.2720    -3.6130 C.ar    
   3 C3             7.7937     5.0457    -3.3277 C.ar    
   4 N4             7.2795     4.2622    -2.3992 N.ar    
   5 C5             6.2078     4.6154    -1.7085 C.ar    
   6 C6             5.5852     5.8347    -1.9425 C.ar    
   7 C7             5.5863     1.4132    -0.9921 C.ar    
   8 C8             6.2896     2.5550    -0.6271 C.ar    
   9 O9             5.7123     3.7785    -0.7626 O.3     
  10 C10            6.1627     0.1662    -0.8582 C.ar    
  11 C11            7.4511     0.0442    -0.3568 C.ar    
  12 C12            8.1667     1.1932     0.0131 C.ar    
  13 C13            7.5744     2.4507    -0.1262 C.ar    
  14 N14            8.0323    -1.2156    -0.2210 N.am    
  15 C15            8.7477    -1.8177    -1.3488 C.3     
  16 C16            7.9361    -1.8797     0.9479 C.2     
  17 C17            7.3213    -1.2072     2.1482 C.3     
  18 O18            8.3443    -3.0185     1.0337 O.2     
  19 C19            7.6986    -1.9791     3.4142 C.3     
  20 C20            5.7989    -1.1874     1.9977 C.3     
  21 C21            5.2779    -2.6223     1.8945 C.3     
  22 C22            5.6552    -3.3941     3.1604 C.3     
  23 C23            7.1776    -3.4139     3.3110 C.3     
  24 C24            5.1342    -4.8290     3.0572 C.3     
  25 C25            9.5988    -2.9861    -0.8476 C.3     
  26 C26           10.5676    -2.4876     0.2266 C.3     
  27 C27            7.7383    -2.3272    -2.3795 C.3     
  28 O28            7.0474    -1.2182    -2.9582 O.3     
  29 C29            6.0761    -1.5864    -3.9395 C.3     
  30 C30            9.5353     1.0738     0.5471 C.2     
  31 O31           10.0854    -0.0093     0.5720 O.2     
  32 O32           10.1765     2.1659     1.0077 O.3     
  33 C33            4.3647     6.2328    -1.1532 C.3     
  34 F34            3.9291     7.4943    -1.5727 F       
  35 F35            3.3479     5.2950    -1.3622 F       
  36 F36            4.6842     6.2787     0.2081 F       
  37 H37            5.6404     7.6354    -3.1111 H       
  38 H38            7.6535     6.9071    -4.3749 H       
  39 H39            8.6694     4.7239    -3.8718 H       
  40 H40            4.5817     1.5018    -1.3784 H       
  41 H41            5.6098    -0.7164    -1.1440 H       
  42 H42            8.1189     3.3396     0.1564 H       
  43 H43            9.3928    -1.0702    -1.8106 H       
  44 H44            7.6925    -0.1850     2.2217 H       
  45 H45            8.7832    -1.9932     3.5215 H       
  46 H46            7.2540    -1.4926     4.2824 H       
  47 H47            5.3542    -0.7010     2.8659 H       
  48 H48            5.5301    -0.6375     1.0957 H       
  49 H49            4.1933    -2.6082     1.7872 H       
  50 H50            5.7226    -3.1087     1.0263 H       
  51 H51            5.2105    -2.9077     4.0286 H       
  52 H52            7.6223    -3.9003     2.4428 H       
  53 H53            7.4464    -3.9638     4.2129 H       
  54 H54            5.5789    -5.3154     2.1890 H       
  55 H55            5.4030    -5.3789     3.9592 H       
  56 H56            4.0496    -4.8149     2.9500 H       
  57 H57            8.9500    -3.7528    -0.4242 H       
  58 H58           10.1638    -3.4071    -1.6793 H       
  59 H59           10.0022    -2.0950     1.0718 H       
  60 H60           11.1952    -3.3135     0.5614 H       
  61 H61           11.1955    -1.6991    -0.1882 H       
  62 H62            8.2631    -2.8763    -3.1613 H       
  63 H63            7.0215    -2.9869    -1.8907 H       
  64 H64            5.5962    -0.6891    -4.3303 H       
  65 H65            6.5664    -2.1202    -4.7536 H       
  66 H66            5.3247    -2.2308    -3.4830 H       
  67 H67           11.0724     2.0380     1.3482 H       
@<TRIPOS>BOND
   1    1    2 ar
   2    1    6 ar
   3    1   37 1
   4    2    3 ar
   5    2   38 1
   6    3    4 ar
   7    3   39 1
   8    4    5 ar
   9    5    6 ar
  10    5    9 1
  11    6   33 1
  12    7    8 ar
  13    7   10 ar
  14    7   40 1
  15    8    9 1
  16    8   13 ar
  17   10   11 ar
  18   10   41 1
  19   11   12 ar
  20   11   14 1
  21   12   13 ar
  22   12   30 1
  23   13   42 1
  24   14   15 1
  25   14   16 am
  26   15   25 1
  27   15   27 1
  28   15   43 1
  29   16   18 2
  30   16   17 1
  31   17   19 1
  32   17   20 1
  33   17   44 1
  34   19   23 1
  35   19   45 1
  36   19   46 1
  37   20   21 1
  38   20   47 1
  39   20   48 1
  40   21   22 1
  41   21   49 1
  42   21   50 1
  43   22   23 1
  44   22   24 1
  45   22   51 1
  46   23   52 1
  47   23   53 1
  48   24   54 1
  49   24   55 1
  50   24   56 1
  51   25   26 1
  52   25   57 1
  53   25   58 1
  54   26   59 1
  55   26   60 1
  56   26   61 1
  57   27   28 1
  58   27   62 1
  59   27   63 1
  60   28   29 1
  61   29   64 1
  62   29   65 1
  63   29   66 1
  64   30   31 2
  65   30   32 1
  66   32   67 1
  67   33   34 1
  68   33   35 1
  69   33   36 1

#	End of record

