#	Name: ASD04882131
#	Creating user name:	WinNT
#	Creation time:	15. 06. 2019 20:54

#	Modifying user name:	WinNT
#	Modification time:	15. 06. 2019 20:54

#	Program:	/corina/corina34_cracker 3.40 0067  02.08.2006

@<TRIPOS>MOLECULE
ASD04882131
  70   74    0    0    0
SMALL
NO_CHARGES


@<TRIPOS>ATOM
   1 C1             0.1692     1.1603    -0.9380 C.2     
   2 C2             0.1007    -0.1096    -0.4405 C.2     
   3 C3            -1.0734    -0.9872    -0.4773 C.2     
   4 O4            -2.1083    -0.5982    -0.9862 O.2     
   5 N5            -1.0066    -2.2246     0.0526 N.am    
   6 C6            -2.1585    -3.0186     0.1252 C.ar    
   7 C7            -2.0623    -4.4058    -0.0195 C.ar    
   8 C8            -3.2043    -5.1947     0.0523 C.ar    
   9 C9            -4.4347    -4.6132     0.2662 C.ar    
  10 C10           -4.5380    -3.2272     0.4113 C.ar    
  11 C11           -3.3900    -2.4319     0.3456 C.ar    
  12 N12           -0.8208    -4.9979    -0.2364 N.3     
  13 C13           -0.2713    -4.6061    -1.5418 C.3     
  14 C14            1.1245    -5.2118    -1.7074 C.3     
  15 N15            1.0377    -6.6743    -1.5932 N.3     
  16 C16            0.4882    -7.0661    -0.2878 C.3     
  17 C17           -0.9076    -6.4604    -0.1222 C.3     
  18 C18            2.2771    -7.2653    -1.8097 C.ar    
  19 N19            3.3286    -6.5059    -2.0764 N.ar    
  20 C20            4.7179    -8.3925    -2.2385 C.ar    
  21 C21            2.4028    -8.6488    -1.7387 C.ar    
  22 C22            4.5223    -7.0267    -2.2881 C.ar    
  23 C23            3.6422    -9.2237    -1.9563 C.ar    
  24 C24           -5.8558    -2.6046     0.6394 C.2     
  25 N25           -6.9612    -3.3727     0.7080 N.am    
  26 O26           -5.9448    -1.3985     0.7656 O.2     
  27 C27           -8.2699    -2.7544     0.9345 C.3     
  28 O28            1.3027    -0.4154     0.0902 O.3     
  29 C29            2.1317     0.6263    -0.0572 C.2     
  30 C30            1.4710     1.6219    -0.6882 C.2     
  31 C31           -9.3476    -3.8399     0.9694 C.3     
  32 C32          -10.7143    -3.1942     1.2060 C.3     
  33 N33          -11.7463    -4.2336     1.2393 N.am    
  34 C34          -12.1404    -4.8756     2.3526 C.2     
  35 C35          -12.4869    -4.7032     0.0625 C.3     
  36 C36          -13.1144    -6.0512     0.4815 C.3     
  37 C37          -13.2131    -5.8881     2.0171 C.3     
  38 O38          -11.6996    -4.6730     3.4642 O.2     
  39 H39           -0.6233     1.7027    -1.4322 H       
  40 H40           -0.1610    -2.5655     0.3837 H       
  41 H41           -3.1270    -6.2661    -0.0603 H       
  42 H42           -5.3202    -5.2289     0.3215 H       
  43 H43           -3.4661    -1.3609     0.4622 H       
  44 H44           -0.9230    -4.9720    -2.3353 H       
  45 H45           -0.2052    -3.5195    -1.5973 H       
  46 H46            1.5221    -4.9465    -2.6870 H       
  47 H47            1.7833    -4.8248    -0.9301 H       
  48 H48            0.4220    -8.1527    -0.2323 H       
  49 H49            1.1399    -6.7002     0.5057 H       
  50 H50           -1.3053    -6.7257     0.8574 H       
  51 H51           -1.5665    -6.8474    -0.8995 H       
  52 H52            5.6985    -8.8098    -2.4134 H       
  53 H53            1.5447    -9.2657    -1.5164 H       
  54 H54            5.3571    -6.3761    -2.5033 H       
  55 H55            3.7691   -10.2953    -1.9121 H       
  56 H56           -6.8902    -4.3349     0.6074 H       
  57 H57           -8.2602    -2.2214     1.8853 H       
  58 H58           -8.4855    -2.0542     0.1275 H       
  59 H59            3.1589     0.6644     0.2742 H       
  60 H60            1.8697     2.5905    -0.9512 H       
  61 H61           -9.3573    -4.3730     0.0187 H       
  62 H62           -9.1320    -4.5402     1.7764 H       
  63 H63          -10.7047    -2.6611     2.1567 H       
  64 H64          -10.9299    -2.4939     0.3990 H       
  65 H65          -13.2675    -3.9896    -0.2014 H       
  66 H66          -11.8077    -4.8482    -0.7775 H       
  67 H67          -14.1031    -6.1753     0.0396 H       
  68 H68          -12.4630    -6.8839     0.2162 H       
  69 H69          -13.0118    -6.8365     2.5151 H       
  70 H70          -14.1959    -5.5096     2.2981 H       
@<TRIPOS>BOND
   1    1    2 2
   2    1   30 1
   3    1   39 1
   4    2    3 1
   5    2   28 1
   6    3    4 2
   7    3    5 am
   8    5    6 1
   9    5   40 1
  10    6    7 ar
  11    6   11 ar
  12    7    8 ar
  13    7   12 1
  14    8    9 ar
  15    8   41 1
  16    9   10 ar
  17    9   42 1
  18   10   11 ar
  19   10   24 1
  20   11   43 1
  21   12   13 1
  22   12   17 1
  23   13   14 1
  24   13   44 1
  25   13   45 1
  26   14   15 1
  27   14   46 1
  28   14   47 1
  29   15   16 1
  30   15   18 1
  31   16   17 1
  32   16   48 1
  33   16   49 1
  34   17   50 1
  35   17   51 1
  36   18   19 ar
  37   18   21 ar
  38   19   22 ar
  39   20   22 ar
  40   20   23 ar
  41   20   52 1
  42   21   23 ar
  43   21   53 1
  44   22   54 1
  45   23   55 1
  46   24   25 am
  47   24   26 2
  48   25   27 1
  49   25   56 1
  50   27   31 1
  51   27   57 1
  52   27   58 1
  53   28   29 1
  54   29   30 2
  55   29   59 1
  56   30   60 1
  57   31   32 1
  58   31   61 1
  59   31   62 1
  60   32   33 1
  61   32   63 1
  62   32   64 1
  63   33   34 am
  64   33   35 1
  65   34   38 2
  66   34   37 1
  67   35   36 1
  68   35   65 1
  69   35   66 1
  70   36   37 1
  71   36   67 1
  72   36   68 1
  73   37   69 1
  74   37   70 1

#	End of record

