#	Name: ASD03090315
#	Creating user name:	WinNT
#	Creation time:	15. 06. 2019 20:28

#	Modifying user name:	WinNT
#	Modification time:	15. 06. 2019 20:28

#	Program:	/corina/corina34_cracker 3.40 0067  02.08.2006

@<TRIPOS>MOLECULE
ASD03090315
  43   45    0    0    0
SMALL
NO_CHARGES


@<TRIPOS>ATOM
   1 C1             0.1948     1.0422     0.8819 C.ar    
   2 N2            -0.9230     1.4679     1.4484 N.ar    
   3 C3            -2.0682     0.8381     1.2833 C.ar    
   4 C4            -2.1402    -0.3112     0.4974 C.ar    
   5 C5            -0.9751    -0.7885    -0.1166 C.ar    
   6 C6             0.2019    -0.0929     0.0792 C.ar    
   7 C7            -3.4274    -1.0162     0.3150 C.2     
   8 N8            -6.9338    -1.2541     0.4074 N.pl3   
   9 C9            -7.4347    -0.0736     0.9659 C.ar    
  10 C10           -8.6634     0.4248     0.5522 C.ar    
  11 C11           -9.1561     1.5906     1.1050 C.ar    
  12 C12           -8.4258     2.2628     2.0706 C.ar    
  13 C13           -7.2005     1.7680     2.4842 C.ar    
  14 C14           -6.7069     0.5990     1.9390 C.ar    
  15 N15           -4.6251    -0.5173     0.5494 N.2     
  16 C16           -5.5555    -1.4338     0.2752 C.2     
  17 N17           -4.9664    -2.5318    -0.1384 N.2     
  18 N18           -3.5842    -2.2843    -0.1271 N.pl3   
  19 C19           -2.5222    -3.2182    -0.5092 C.3     
  20 C20           -2.2804    -3.1263    -2.0172 C.3     
  21 O21           -1.2445    -4.0373    -2.3900 O.3     
  22 F22           -8.9095     3.4033     2.6097 F       
  23 O23            1.3486     1.7260     1.0828 O.3     
  24 C24            1.2782     2.8877     1.9121 C.3     
  25 C25            2.6666     3.5212     2.0214 C.3     
  26 H26           -2.9599     1.2156     1.7616 H       
  27 H27           -0.9976    -1.6761    -0.7314 H       
  28 H28            1.1193    -0.4321    -0.3788 H       
  29 H29           -7.5439    -1.9479     0.1120 H       
  30 H30           -9.2329    -0.0988    -0.2014 H       
  31 H31          -10.1114     1.9785     0.7836 H       
  32 H32           -6.6325     2.2941     3.2372 H       
  33 H33           -5.7511     0.2135     2.2619 H       
  34 H34           -1.6053    -2.9629     0.0220 H       
  35 H35           -2.8211    -4.2340    -0.2504 H       
  36 H36           -3.1973    -3.3817    -2.5484 H       
  37 H37           -1.9815    -2.1106    -2.2760 H       
  38 H38           -1.0377    -4.0326    -3.3346 H       
  39 H39            0.5847     3.6054     1.4739 H       
  40 H40            0.9288     2.6046     2.9050 H       
  41 H41            2.6129     4.4072     2.6539 H       
  42 H42            3.3600     2.8034     2.4596 H       
  43 H43            3.0159     3.8043     1.0284 H       
@<TRIPOS>BOND
   1    1    2 ar
   2    1   23 1
   3    1    6 ar
   4    2    3 ar
   5    3    4 ar
   6    3   26 1
   7    4    5 ar
   8    4    7 1
   9    5    6 ar
  10    5   27 1
  11    6   28 1
  12    7   15 2
  13    7   18 1
  14    8    9 1
  15    8   16 1
  16    8   29 1
  17    9   10 ar
  18    9   14 ar
  19   10   11 ar
  20   10   30 1
  21   11   12 ar
  22   11   31 1
  23   12   13 ar
  24   12   22 1
  25   13   14 ar
  26   13   32 1
  27   14   33 1
  28   15   16 1
  29   16   17 2
  30   17   18 1
  31   18   19 1
  32   19   20 1
  33   19   34 1
  34   19   35 1
  35   20   21 1
  36   20   36 1
  37   20   37 1
  38   21   38 1
  39   23   24 1
  40   24   25 1
  41   24   39 1
  42   24   40 1
  43   25   41 1
  44   25   42 1
  45   25   43 1

#	End of record

