#	Name: ASD05060037
#	Creating user name:	WinNT
#	Creation time:	15. 06. 2019 20:56

#	Modifying user name:	WinNT
#	Modification time:	15. 06. 2019 20:56

#	Program:	/corina/corina34_cracker 3.40 0067  02.08.2006

@<TRIPOS>MOLECULE
ASD05060037
  26   27    0    0    0
SMALL
NO_CHARGES


@<TRIPOS>ATOM
   1 C1             0.0596     1.3392     0.4151 C.2     
   2 C2             0.0459    -0.0340     0.2048 C.2     
   3 C3            -1.1435    -0.9121     0.2208 C.2     
   4 N4             1.3715     1.7279     0.3074 N.pl3   
   5 C5             2.0992     0.6264     0.0443 C.2     
   6 N6             1.3147    -0.4149    -0.0162 N.2     
   7 C7            -1.0988     2.2030     0.6911 C.2     
   8 O8            -2.2437    -0.4412     0.4338 O.2     
   9 O9            -2.2135     1.7229     0.7543 O.2     
  10 N10           -1.0078    -2.2346    -0.0007 N.am    
  11 C11           -2.1163    -3.0794     0.1105 C.ar    
  12 C12           -3.3724    -2.6347    -0.2817 C.ar    
  13 C13           -4.4653    -3.4717    -0.1705 C.ar    
  14 C14           -4.3102    -4.7511     0.3310 C.ar    
  15 C15           -3.0610    -5.1969     0.7223 C.ar    
  16 C16           -1.9630    -4.3671     0.6080 C.ar    
  17 O17           -0.9238     3.5272     0.8740 O.3     
  18 H18            1.7119     2.6312     0.4029 H       
  19 H19            3.1700     0.6073    -0.0955 H       
  20 H20           -0.1411    -2.6003    -0.2373 H       
  21 H21           -3.4944    -1.6354    -0.6728 H       
  22 H22           -5.4423    -3.1266    -0.4752 H       
  23 H23           -5.1666    -5.4034     0.4176 H       
  24 H24           -2.9433    -6.1965     1.1139 H       
  25 H25           -0.9876    -4.7159     0.9138 H       
  26 H26           -1.7148     4.0540     1.0527 H       
@<TRIPOS>BOND
   1    1    2 2
   2    1    4 1
   3    1    7 1
   4    2    3 1
   5    2    6 1
   6    3    8 2
   7    3   10 am
   8    4    5 1
   9    4   18 1
  10    5    6 2
  11    5   19 1
  12    7    9 2
  13    7   17 1
  14   10   11 1
  15   10   20 1
  16   11   12 ar
  17   11   16 ar
  18   12   13 ar
  19   12   21 1
  20   13   14 ar
  21   13   22 1
  22   14   15 ar
  23   14   23 1
  24   15   16 ar
  25   15   24 1
  26   16   25 1
  27   17   26 1

#	End of record

