#	Name: ASD01810276
#	Creating user name:	WinNT
#	Creation time:	15. 06. 2019 19:24

#	Modifying user name:	WinNT
#	Modification time:	15. 06. 2019 19:24

#	Program:	/corina/corina34_cracker 3.40 0067  02.08.2006

@<TRIPOS>MOLECULE
ASD01810276
  53   57    0    0    0
SMALL
NO_CHARGES


@<TRIPOS>ATOM
   1 C1            -0.0167     1.3797     0.0096 C.ar    
   2 C2             0.0021    -0.0041     0.0020 C.ar    
   3 C3             1.1736     2.0839     0.0020 C.ar    
   4 C4             2.3798     1.4148    -0.0135 C.ar    
   5 C5             2.4068     0.0214    -0.0213 C.ar    
   6 C6             1.2046    -0.6744    -0.0131 C.ar    
   7 N7             3.4800    -0.8701    -0.0367 N.am    
   8 C8             3.0767    -2.1518    -0.0396 C.2     
   9 C9             1.5629    -2.1426    -0.0245 C.3     
  10 O10            3.7911    -3.1319    -0.0519 O.2     
  11 C11            1.0351    -2.8330     1.2347 C.3     
  12 C12           -0.5027    -2.7854     1.2567 C.3     
  13 C13           -0.9890    -4.2494     1.2591 C.3     
  14 C14            0.2054    -5.0454     1.8411 C.3     
  15 C15            1.4297    -4.3243     1.2245 C.3     
  16 C16            4.8853    -0.4562    -0.0484 C.3     
  17 C17            5.3813    -0.3219     1.3683 C.ar    
  18 C18            6.2146    -1.2878     1.9011 C.ar    
  19 C19            5.0052     0.7722     2.1308 C.ar    
  20 C20            5.4580     0.8990     3.4307 C.ar    
  21 C21            6.2931    -0.0755     3.9721 C.ar    
  22 C22            6.6720    -1.1699     3.1984 C.ar    
  23 F23            4.1955     1.7163     1.6032 F       
  24 C24            6.7827     0.0551     5.3678 C.2     
  25 C25            7.6009    -0.8201     6.0203 C.2     
  26 N26            7.8070    -0.3374     7.2622 N.pl3   
  27 N27            7.1016     0.8656     7.3867 N.2     
  28 C28            6.4919     1.1082     6.2567 C.2     
  29 C29            8.6268    -0.9639     8.3022 C.3     
  30 H30           -0.9584     1.9084     0.0170 H       
  31 H31           -0.9254    -0.5574     0.0083 H       
  32 H32            1.1587     3.1638     0.0080 H       
  33 H33            3.3050     1.9718    -0.0201 H       
  34 H34            1.1691    -2.6248    -0.9192 H       
  35 H35            1.4365    -2.3459     2.1234 H       
  36 H36           -0.8477    -2.2759     2.1565 H       
  37 H37           -0.8731    -2.2704     0.3703 H       
  38 H38           -1.8669    -4.3588     1.8959 H       
  39 H39           -1.2093    -4.5799     0.2440 H       
  40 H40            0.2232    -4.9752     2.9287 H       
  41 H41            0.1686    -6.0866     1.5207 H       
  42 H42            1.6001    -4.6669     0.2039 H       
  43 H43            2.3170    -4.4884     1.8360 H       
  44 H44            5.4801    -1.2045    -0.5722 H       
  45 H45            4.9773     0.5030    -0.5581 H       
  46 H46            6.5081    -2.1367     1.3013 H       
  47 H47            5.1653     1.7519     4.0250 H       
  48 H48            7.3191    -1.9280     3.6144 H       
  49 H49            8.0091    -1.7344     5.6156 H       
  50 H50            5.8682     1.9638     6.0437 H       
  51 H51            9.6523    -0.6030     8.2230 H       
  52 H52            8.2265    -0.7086     9.2834 H       
  53 H53            8.6116    -2.0463     8.1740 H       
@<TRIPOS>BOND
   1    1    2 ar
   2    1    3 ar
   3    1   30 1
   4    2    6 ar
   5    2   31 1
   6    3    4 ar
   7    3   32 1
   8    4    5 ar
   9    4   33 1
  10    5    6 ar
  11    5    7 1
  12    6    9 1
  13    7    8 am
  14    7   16 1
  15    8    9 1
  16    8   10 2
  17    9   11 1
  18    9   34 1
  19   11   12 1
  20   11   15 1
  21   11   35 1
  22   12   13 1
  23   12   36 1
  24   12   37 1
  25   13   14 1
  26   13   38 1
  27   13   39 1
  28   14   15 1
  29   14   40 1
  30   14   41 1
  31   15   42 1
  32   15   43 1
  33   16   17 1
  34   16   44 1
  35   16   45 1
  36   17   18 ar
  37   17   19 ar
  38   18   22 ar
  39   18   46 1
  40   19   20 ar
  41   19   23 1
  42   20   21 ar
  43   20   47 1
  44   21   22 ar
  45   21   24 1
  46   22   48 1
  47   24   25 2
  48   24   28 1
  49   25   26 1
  50   25   49 1
  51   26   27 1
  52   26   29 1
  53   27   28 2
  54   28   50 1
  55   29   51 1
  56   29   52 1
  57   29   53 1

#	End of record

