#	Name: ASD01901159
#	Creating user name:	WinNT
#	Creation time:	15. 06. 2019 19:53

#	Modifying user name:	WinNT
#	Modification time:	15. 06. 2019 19:53

#	Program:	/corina/corina34_cracker 3.40 0067  02.08.2006

@<TRIPOS>MOLECULE
ASD01901159
  47   50    0    0    0
SMALL
NO_CHARGES


@<TRIPOS>ATOM
   1 C1            -0.0166     1.3750     0.0096 C.ar    
   2 C2             0.0021    -0.0041     0.0020 C.ar    
   3 C3             1.2078    -0.6830    -0.0131 C.ar    
   4 C4             2.4027     0.0149    -0.0208 C.ar    
   5 C5             2.3997     1.3941    -0.0129 C.ar    
   6 C6             1.1860     2.0866     0.0019 C.ar    
   7 C7             1.1748     3.5185     0.0093 C.1     
   8 C8             1.1655     4.6925     0.0153 C.1     
   9 C9             1.1543     6.1244     0.0226 C.ar    
  10 C10            2.3583     6.8345     0.0149 C.ar    
  11 C11            2.3436     8.2144     0.0221 C.ar    
  12 C12            1.1325     8.8988     0.0369 C.ar    
  13 C13           -0.0678     8.1953     0.0446 C.ar    
  14 C14           -0.0608     6.8154     0.0317 C.ar    
  15 N15            1.1215    10.3012     0.0446 N.am    
  16 C16            1.1057    10.9334    -1.1329 C.2     
  17 N17            1.0812    12.2635    -1.2743 N.am    
  18 C18            1.2709    13.1344    -0.1020 C.3     
  19 C19            1.2107    12.4395     1.2719 C.3     
  20 C20            1.1219    10.9245     1.2364 C.2     
  21 O21            1.1146    10.2554    -2.1416 O.2     
  22 F22            3.5068     8.9015     0.0151 F       
  23 O23            1.0562    10.2865     2.2653 O.2     
  24 F24           -1.2416     8.8640     0.0590 F       
  25 C25            2.6313    13.8221    -0.2338 C.3     
  26 C26            0.8490    12.9005    -2.5745 C.3     
  27 C27           -0.4585    13.6931    -2.4844 C.3     
  28 N28           -0.5247    14.4421    -1.2372 N.am    
  29 C29            0.2004    14.1821    -0.1449 C.2     
  30 O30           -0.0202    14.8209     0.8622 O.2     
  31 H31           -0.9584     1.9035     0.0169 H       
  32 H32           -0.9266    -0.5554     0.0083 H       
  33 H33            1.2163    -1.7630    -0.0187 H       
  34 H34            3.3399    -0.5217    -0.0326 H       
  35 H35            3.3330     1.9375    -0.0182 H       
  36 H36            3.2989     6.3039     0.0038 H       
  37 H37           -0.9929     6.2700     0.0328 H       
  38 H38            2.1008    12.7193     1.8355 H       
  39 H39            0.3401    12.8172     1.8080 H       
  40 H40            3.4237    13.0776    -0.1566 H       
  41 H41            2.6941    14.3207    -1.2011 H       
  42 H42            2.7452    14.5578     0.5623 H       
  43 H43            1.6734    13.5745    -2.8072 H       
  44 H44            0.7653    12.1381    -3.3489 H       
  45 H45           -0.5157    14.3871    -3.3230 H       
  46 H46           -1.3006    13.0027    -2.5332 H       
  47 H47           -1.1410    15.1901    -1.1962 H       
@<TRIPOS>BOND
   1    1    2 ar
   2    1    6 ar
   3    1   31 1
   4    2    3 ar
   5    2   32 1
   6    3    4 ar
   7    3   33 1
   8    4    5 ar
   9    4   34 1
  10    5    6 ar
  11    5   35 1
  12    6    7 1
  13    7    8 3
  14    8    9 1
  15    9   10 ar
  16    9   14 ar
  17   10   11 ar
  18   10   36 1
  19   11   12 ar
  20   11   22 1
  21   12   13 ar
  22   12   15 1
  23   13   14 ar
  24   13   24 1
  25   14   37 1
  26   15   16 am
  27   15   20 am
  28   16   17 am
  29   16   21 2
  30   17   26 1
  31   17   18 1
  32   18   19 1
  33   18   29 1
  34   18   25 1
  35   19   20 1
  36   19   38 1
  37   19   39 1
  38   20   23 2
  39   25   40 1
  40   25   41 1
  41   25   42 1
  42   26   27 1
  43   26   43 1
  44   26   44 1
  45   27   28 1
  46   27   45 1
  47   27   46 1
  48   28   29 am
  49   28   47 1
  50   29   30 2

#	End of record

