#	Name: ASD01917980
#	Creating user name:	WinNT
#	Creation time:	15. 06. 2019 20:10

#	Modifying user name:	WinNT
#	Modification time:	15. 06. 2019 20:10

#	Program:	/corina/corina34_cracker 3.40 0067  02.08.2006

@<TRIPOS>MOLECULE
ASD01917980
  41   44    0    0    0
SMALL
NO_CHARGES


@<TRIPOS>ATOM
   1 N1             4.8181    -0.4144    -2.1422 N.ar    
   2 C2             5.2856     0.2843    -3.1583 C.ar    
   3 C3             5.1747     1.6618    -3.1832 C.ar    
   4 C4             4.5627     2.3106    -2.1226 C.ar    
   5 C5             4.0808     1.5428    -1.0672 C.ar    
   6 C6             4.2295     0.1638    -1.1143 C.ar    
   7 O7             3.4738     2.1347    -0.0052 O.3     
   8 C8             3.4562     3.4938     0.0443 C.2     
   9 N9             2.2081     5.5081    -0.0212 N.pl3   
  10 C10            2.2743     4.1522    -0.0651 C.2     
  11 C11            4.6568     4.1939     0.2132 C.2     
  12 C12            4.6307     5.5832     0.2634 C.2     
  13 C13            3.3391     6.2578     0.1364 C.2     
  14 C14            5.8718     6.3557     0.4403 C.2     
  15 N15            5.8268     7.7020     0.4866 N.am    
  16 C16            6.9852     8.4296     0.7596 C.ar    
  17 N17            8.1443     7.7996     0.8648 N.ar    
  18 C18            6.9104     9.8091     0.9126 C.ar    
  19 C19            8.0656    10.5211     1.1828 C.ar    
  20 C20            9.2649     9.8228     1.2914 C.ar    
  21 C21            9.2643     8.4474     1.1214 C.ar    
  22 O22            6.9376     5.7789     0.5448 O.2     
  23 N23            1.1464     6.4206    -0.1074 N.2     
  24 C24            1.6626     7.6227    -0.0097 C.2     
  25 N25            2.9776     7.5311     0.1424 N.2     
  26 O26           10.4240    10.4829     1.5559 O.3     
  27 C27           11.6121     9.6947     1.6520 C.3     
  28 H28            5.7619    -0.2267    -3.9819 H       
  29 H29            5.5608     2.2260    -4.0193 H       
  30 H30            4.4625     3.3859    -2.1154 H       
  31 H31            3.8588    -0.4418    -0.3005 H       
  32 H32            1.3644     3.5841    -0.1904 H       
  33 H33            5.5919     3.6612     0.3038 H       
  34 H34            4.9889     8.1649     0.3300 H       
  35 H35            5.9626    10.3188     0.8214 H       
  36 H36            8.0375    11.5936     1.3062 H       
  37 H37           10.1917     7.8995     1.2005 H       
  38 H38            1.1021     8.5454    -0.0403 H       
  39 H39           11.5006     8.9656     2.4545 H       
  40 H40           11.7801     9.1743     0.7091 H       
  41 H41           12.4619    10.3430     1.8656 H       
@<TRIPOS>BOND
   1    1    2 ar
   2    1    6 ar
   3    2    3 ar
   4    2   28 1
   5    3    4 ar
   6    3   29 1
   7    4    5 ar
   8    4   30 1
   9    5    6 ar
  10    5    7 1
  11    6   31 1
  12    7    8 1
  13    8   11 1
  14    8   10 2
  15    9   10 1
  16    9   23 1
  17    9   13 1
  18   10   32 1
  19   11   12 2
  20   11   33 1
  21   12   13 1
  22   12   14 1
  23   13   25 2
  24   14   15 am
  25   14   22 2
  26   15   16 1
  27   15   34 1
  28   16   18 ar
  29   16   17 ar
  30   17   21 ar
  31   18   19 ar
  32   18   35 1
  33   19   20 ar
  34   19   36 1
  35   20   21 ar
  36   20   26 1
  37   21   37 1
  38   23   24 2
  39   24   25 1
  40   24   38 1
  41   26   27 1
  42   27   39 1
  43   27   40 1
  44   27   41 1

#	End of record

