#	Name: ASD04882058
#	Creating user name:	WinNT
#	Creation time:	15. 06. 2019 20:54

#	Modifying user name:	WinNT
#	Modification time:	15. 06. 2019 20:54

#	Program:	/corina/corina34_cracker 3.40 0067  02.08.2006

@<TRIPOS>MOLECULE
ASD04882058
  77   81    0    0    0
SMALL
NO_CHARGES


@<TRIPOS>ATOM
   1 N1             0.0280     0.9897     1.0496 N.am    
   2 C2             0.1148    -0.3568     1.4266 C.ar    
   3 C3            -1.0442    -1.1318     1.5246 C.ar    
   4 C4            -0.9596    -2.4679     1.8991 C.ar    
   5 C5             0.2659    -3.0329     2.1744 C.ar    
   6 C6             1.4288    -2.2635     2.0783 C.ar    
   7 C7             1.3471    -0.9215     1.6965 C.ar    
   8 N8            -2.2854    -0.5647     1.2472 N.3     
   9 C9            -2.6327     0.4560     2.2450 C.3     
  10 C10           -3.3270    -1.5965     1.1556 C.3     
  11 C11           -4.6335    -0.9572     0.6733 C.3     
  12 N12           -4.9544     0.1737     1.5572 N.am    
  13 C13           -3.9107     1.1793     1.8073 C.3     
  14 C14           -6.1727     0.2857     2.1225 C.2     
  15 C15            0.8966     1.8881     1.5543 C.2     
  16 O16            1.6960     1.5490     2.4073 O.2     
  17 C17            0.8787     3.2740     1.0759 C.2     
  18 O18            0.0486     3.7789     0.1399 O.3     
  19 C19            1.6954     4.2813     1.5039 C.2     
  20 C20            1.3325     5.4293     0.7822 C.2     
  21 C21            0.3205     5.0778    -0.0415 C.2     
  22 C22            2.7414    -2.8688     2.3738 C.2     
  23 N23            2.8196    -4.1645     2.7366 N.am    
  24 O24            3.7526    -2.1988     2.2900 O.2     
  25 C25            4.1230    -4.7656     3.0300 C.3     
  26 C26            3.9325    -6.2344     3.4138 C.3     
  27 N27            5.1113    -8.2685     4.0876 N.am    
  28 C28            5.2937    -6.8621     3.7202 C.3     
  29 C29           -7.1756    -0.7805     1.9321 C.ar    
  30 O30           -6.4458     1.2650     2.7894 O.2     
  31 C31           -7.9905    -1.1739     2.9969 C.ar    
  32 C32           -7.3164    -1.3951     0.6852 C.ar    
  33 C33           -8.2531    -2.3894     0.5116 C.ar    
  34 C34           -9.0579    -2.7819     1.5748 C.ar    
  35 C35           -8.9249    -2.1689     2.8152 C.ar    
  36 O36           -9.9802    -3.7619     1.3996 O.3     
  37 C37          -10.7738    -4.1161     2.5340 C.3     
  38 C38            5.1225    -9.2887     3.2124 C.2     
  39 C39            4.8991    -8.7452     5.4594 C.3     
  40 C40            4.3350   -10.1761     5.3158 C.3     
  41 C41            4.8946   -10.5975     3.9361 C.3     
  42 O42            5.2903    -9.1762     2.0166 O.2     
  43 H43           -0.6547     1.2746     0.4223 H       
  44 H44           -1.8570    -3.0641     1.9747 H       
  45 H45            0.3283    -4.0711     2.4651 H       
  46 H46            2.2441    -0.3247     1.6211 H       
  47 H47           -2.7974    -0.0211     3.2111 H       
  48 H48           -1.8180     1.1753     2.3283 H       
  49 H49           -3.0158    -2.3657     0.4488 H       
  50 H50           -3.4820    -2.0449     2.1369 H       
  51 H51           -4.5106    -0.5996    -0.3490 H       
  52 H52           -5.4373    -1.6924     0.7128 H       
  53 H53           -4.2367     1.8567     2.5967 H       
  54 H54           -3.7184     1.7424     0.8941 H       
  55 H55            2.4702     4.2089     2.2528 H       
  56 H56            1.7766     6.4097     0.8707 H       
  57 H57           -0.1852     5.7357    -0.7326 H       
  58 H58            2.0129    -4.6990     2.8035 H       
  59 H59            4.7601    -4.7002     2.1480 H       
  60 H60            4.5914    -4.2318     3.8570 H       
  61 H61            3.2954    -6.2998     4.2958 H       
  62 H62            3.4641    -6.7681     2.5869 H       
  63 H63            5.9308    -6.7967     2.8382 H       
  64 H64            5.7621    -6.3283     4.5471 H       
  65 H65           -7.8875    -0.6983     3.9611 H       
  66 H66           -6.6917    -1.0905    -0.1415 H       
  67 H67           -8.3628    -2.8647    -0.4519 H       
  68 H68           -9.5520    -2.4766     3.6388 H       
  69 H69          -10.1246    -4.4651     3.3369 H       
  70 H70          -11.3336    -3.2442     2.8724 H       
  71 H71          -11.4687    -4.9093     2.2579 H       
  72 H72            5.8441    -8.7650     6.0023 H       
  73 H73            4.1811    -8.1065     5.9738 H       
  74 H74            4.7148   -10.8261     6.1041 H       
  75 H75            3.2450   -10.1671     5.3112 H       
  76 H76            4.1681   -11.2083     3.4001 H       
  77 H77            5.8345   -11.1366     4.0541 H       
@<TRIPOS>BOND
   1    1    2 1
   2    1   15 am
   3    1   43 1
   4    2    3 ar
   5    2    7 ar
   6    3    4 ar
   7    3    8 1
   8    4    5 ar
   9    4   44 1
  10    5    6 ar
  11    5   45 1
  12    6    7 ar
  13    6   22 1
  14    7   46 1
  15    8    9 1
  16    8   10 1
  17    9   13 1
  18    9   47 1
  19    9   48 1
  20   10   11 1
  21   10   49 1
  22   10   50 1
  23   11   12 1
  24   11   51 1
  25   11   52 1
  26   12   13 1
  27   12   14 am
  28   13   53 1
  29   13   54 1
  30   14   29 1
  31   14   30 2
  32   15   16 2
  33   15   17 1
  34   17   18 1
  35   17   19 2
  36   18   21 1
  37   19   20 1
  38   19   55 1
  39   20   21 2
  40   20   56 1
  41   21   57 1
  42   22   23 am
  43   22   24 2
  44   23   25 1
  45   23   58 1
  46   25   26 1
  47   25   59 1
  48   25   60 1
  49   26   28 1
  50   26   61 1
  51   26   62 1
  52   27   28 1
  53   27   38 am
  54   27   39 1
  55   28   63 1
  56   28   64 1
  57   29   31 ar
  58   29   32 ar
  59   31   35 ar
  60   31   65 1
  61   32   33 ar
  62   32   66 1
  63   33   34 ar
  64   33   67 1
  65   34   35 ar
  66   34   36 1
  67   35   68 1
  68   36   37 1
  69   37   69 1
  70   37   70 1
  71   37   71 1
  72   38   42 2
  73   38   41 1
  74   39   40 1
  75   39   72 1
  76   39   73 1
  77   40   41 1
  78   40   74 1
  79   40   75 1
  80   41   76 1
  81   41   77 1

#	End of record

