#	Name: ASD01121001
#	Creating user name:	WinNT
#	Creation time:	15. 06. 2019 18:59

#	Modifying user name:	WinNT
#	Modification time:	15. 06. 2019 18:59

#	Program:	/corina/corina34_cracker 3.40 0067  02.08.2006

@<TRIPOS>MOLECULE
ASD01121001
  27   28    0    0    0
SMALL
NO_CHARGES


@<TRIPOS>ATOM
   1 C1            -0.0162     1.3436     0.0094 C.2     
   2 N2             0.0021    -0.0041     0.0020 N.am    
   3 O3            -1.0772     1.9370     0.0278 O.2     
   4 N4             1.1417     2.0332     0.0021 N.am    
   5 S5            -1.4206    -0.8515     0.0111 S.o2    
   6 O6            -1.0684    -2.2274    -0.0344 O.2     
   7 O7            -2.2174    -0.2869     1.0433 O.2     
   8 C8            -2.2472    -0.4991    -1.5046 C.ar    
   9 H9             0.8486    -0.4776    -0.0086 H       
  10 H10            1.9882     1.5597    -0.0085 H       
  11 C11            1.1228     3.4235     0.0097 C.2     
  12 C12           -2.0211    -1.2902    -2.6149 C.ar    
  13 C13           -2.6707    -1.0136    -3.8050 C.ar    
  14 C14           -3.5461     0.0547    -3.8825 C.ar    
  15 C15           -3.7715     0.8452    -2.7711 C.ar    
  16 C16           -3.1263     0.5653    -1.5812 C.ar    
  17 Cl17          -2.3867    -2.0066    -5.2004 Cl      
  18 S18            2.5110     4.4215     0.0018 S.3     
  19 C19            1.4915     5.8581     0.0181 C.2     
  20 C20            0.2171     5.4612     0.0279 C.2     
  21 N21            0.0505     4.1510     0.0182 N.2     
  22 Br22           2.0969     7.6496     0.0218 Br      
  23 H23           -1.3373    -2.1239    -2.5539 H       
  24 H24           -4.0531     0.2712    -4.8112 H       
  25 H25           -4.4549     1.6793    -2.8315 H       
  26 H26           -3.3030     1.1830    -0.7131 H       
  27 H27           -0.6106     6.1550     0.0394 H       
@<TRIPOS>BOND
   1    1    2 am
   2    1    4 am
   3    1    3 2
   4    2    5 am
   5    2    9 1
   6    4   10 1
   7    4   11 1
   8    5    7 2
   9    5    8 1
  10    5    6 2
  11    8   12 ar
  12    8   16 ar
  13   11   18 1
  14   11   21 2
  15   12   13 ar
  16   12   23 1
  17   13   14 ar
  18   13   17 1
  19   14   15 ar
  20   14   24 1
  21   15   16 ar
  22   15   25 1
  23   16   26 1
  24   18   19 1
  25   19   20 2
  26   19   22 1
  27   20   21 1
  28   20   27 1

#	End of record

