#	Name: ASD01900409
#	Creating user name:	WinNT
#	Creation time:	15. 06. 2019 19:51

#	Modifying user name:	WinNT
#	Modification time:	15. 06. 2019 19:51

#	Program:	/corina/corina34_cracker 3.40 0067  02.08.2006

@<TRIPOS>MOLECULE
ASD01900409
  26   28    0    0    0
SMALL
NO_CHARGES


@<TRIPOS>ATOM
   1 C1            -0.0263     1.3950     0.1272 C.ar    
   2 C2             0.0064     0.0002    -0.0621 C.ar    
   3 C3             1.2234    -0.6705     0.0550 C.ar    
   4 C4             2.3508     0.0689     0.3538 C.ar    
   5 C5             2.2450     1.4428     0.5275 C.ar    
   6 N6             1.0909     2.0595     0.4130 N.ar    
   7 N7            -2.1141     0.7219    -0.3275 N.2     
   8 N8            -1.2750    -0.3970    -0.3390 N.pl3   
   9 C9            -1.4235     1.7963    -0.0520 C.2     
  10 N10           -1.9266     3.0975     0.0450 N.pl3   
  11 C11           -3.3031     3.3226    -0.0404 C.ar    
  12 C12           -4.1954     2.3414     0.3729 C.ar    
  13 C13           -5.5565     2.5665     0.2879 C.ar    
  14 C14           -6.0308     3.7688    -0.2092 C.ar    
  15 C15           -5.1432     4.7482    -0.6222 C.ar    
  16 C16           -3.7813     4.5301    -0.5334 C.ar    
  17 Cl17          -5.7416     6.2540    -1.2454 Cl      
  18 Cl18          -7.7409     4.0485    -0.3153 Cl      
  19 Cl19          -6.6722     1.3409     0.8042 Cl      
  20 H20            1.2825    -1.7399    -0.0838 H       
  21 H21            3.3095    -0.4186     0.4521 H       
  22 H22            3.1300     2.0159     0.7613 H       
  23 H23           -1.5556    -1.3087    -0.5153 H       
  24 H24           -1.3201     3.8438     0.1715 H       
  25 H25           -3.8259     1.4033     0.7600 H       
  26 H26           -3.0894     5.2959    -0.8515 H       
@<TRIPOS>BOND
   1    1    2 ar
   2    1    6 ar
   3    1    9 1
   4    2    3 ar
   5    2    8 1
   6    3    4 ar
   7    3   20 1
   8    4    5 ar
   9    4   21 1
  10    5    6 ar
  11    5   22 1
  12    7    8 1
  13    7    9 2
  14    8   23 1
  15    9   10 1
  16   10   11 1
  17   10   24 1
  18   11   12 ar
  19   11   16 ar
  20   12   13 ar
  21   12   25 1
  22   13   14 ar
  23   13   19 1
  24   14   15 ar
  25   14   18 1
  26   15   16 ar
  27   15   17 1
  28   16   26 1

#	End of record

