#	Name: ASD01910293
#	Creating user name:	WinNT
#	Creation time:	15. 06. 2019 19:55

#	Modifying user name:	WinNT
#	Modification time:	15. 06. 2019 19:55

#	Program:	/corina/corina34_cracker 3.40 0067  02.08.2006

@<TRIPOS>MOLECULE
ASD01910293
  43   46    0    0    0
SMALL
NO_CHARGES


@<TRIPOS>ATOM
   1 N1            -0.7046     2.2305     0.1857 N.ar    
   2 C2            -0.8316     0.9194     0.2509 C.ar    
   3 C3             0.2796     0.0974     0.3028 C.ar    
   4 C4             1.5423     0.6642     0.2854 C.ar    
   5 C5             1.6431     2.0561     0.2155 C.ar    
   6 C6             0.4762     2.8146     0.1667 C.ar    
   7 C7             2.9730     2.7159     0.1944 C.2     
   8 N8             3.2082     4.0113     0.1306 N.2     
   9 N9             4.4857     4.1807     0.1346 N.pl3   
  10 N10            5.0672     3.0341     0.1988 N.2     
  11 N11            4.1679     2.1104     0.2425 N.2     
  12 C12            5.1690     5.4753     0.0748 C.3     
  13 C13            6.0329     5.6550     1.3252 C.3     
  14 C14            6.7215     7.0210     1.2794 C.3     
  15 C15            7.6317     7.0886     0.0491 C.3     
  16 N16            6.8363     6.7735    -1.1454 N.am    
  17 C17            6.0616     5.5253    -1.1692 C.3     
  18 C18            6.8178     7.6134    -2.1993 C.2     
  19 C19            6.1199     7.2243    -3.4418 C.ar    
  20 O20            7.3754     8.6913    -2.1274 O.2     
  21 C21            5.3435     8.1581    -4.1313 C.ar    
  22 C22            4.6948     7.7898    -5.2904 C.ar    
  23 C23            4.8121     6.4949    -5.7720 C.ar    
  24 C24            5.5813     5.5636    -5.0911 C.ar    
  25 C25            6.2389     5.9229    -3.9341 C.ar    
  26 F26            4.1742     6.1391    -6.9085 F       
  27 H27           -1.8184     0.4808     0.2642 H       
  28 H28            0.1632    -0.9749     0.3567 H       
  29 H29            2.4271     0.0463     0.3253 H       
  30 H30            0.5398     3.8913     0.1121 H       
  31 H31            4.4299     6.2748     0.0252 H       
  32 H32            5.4035     5.5952     2.2131 H       
  33 H33            6.7873     4.8691     1.3614 H       
  34 H34            5.9681     7.8064     1.2182 H       
  35 H35            7.3182     7.1580     2.1813 H       
  36 H36            8.0476     8.0919    -0.0431 H       
  37 H37            8.4394     6.3640     0.1518 H       
  38 H38            6.7413     4.6732    -1.1658 H       
  39 H39            5.4415     5.4972    -2.0652 H       
  40 H40            5.2512     9.1669    -3.7568 H       
  41 H41            4.0938     8.5111    -5.8242 H       
  42 H42            5.6690     4.5562    -5.4703 H       
  43 H43            6.8380     5.1969    -3.4047 H       
@<TRIPOS>BOND
   1    1    2 ar
   2    1    6 ar
   3    2    3 ar
   4    2   27 1
   5    3    4 ar
   6    3   28 1
   7    4    5 ar
   8    4   29 1
   9    5    6 ar
  10    5    7 1
  11    6   30 1
  12    7    8 2
  13    7   11 1
  14    8    9 1
  15    9   10 1
  16    9   12 1
  17   10   11 2
  18   12   13 1
  19   12   17 1
  20   12   31 1
  21   13   14 1
  22   13   32 1
  23   13   33 1
  24   14   15 1
  25   14   34 1
  26   14   35 1
  27   15   16 1
  28   15   36 1
  29   15   37 1
  30   16   17 1
  31   16   18 am
  32   17   38 1
  33   17   39 1
  34   18   19 1
  35   18   20 2
  36   19   21 ar
  37   19   25 ar
  38   21   22 ar
  39   21   40 1
  40   22   23 ar
  41   22   41 1
  42   23   24 ar
  43   23   26 1
  44   24   25 ar
  45   24   42 1
  46   25   43 1

#	End of record

