#	Name: ASD03090645
#	Creating user name:	WinNT
#	Creation time:	15. 06. 2019 20:29

#	Modifying user name:	WinNT
#	Modification time:	15. 06. 2019 20:29

#	Program:	/corina/corina34_cracker 3.40 0067  02.08.2006

@<TRIPOS>MOLECULE
ASD03090645
  34   35    0    0    0
SMALL
NO_CHARGES


@<TRIPOS>ATOM
   1 N1            -0.0162     1.3436     0.0094 N.am    
   2 C2             0.0230     0.1486     0.6315 C.2     
   3 O3             1.0781    -0.2811     1.0568 O.2     
   4 N4            -1.1071    -0.5702     0.7821 N.am    
   5 S5            -2.4087    -2.8331     1.6936 S.3     
   6 C6            -1.0666    -1.8032     1.4239 C.2     
   7 N7            -0.0049    -2.3649     1.9184 N.2     
   8 N8            -0.1415    -3.4916     2.4713 N.2     
   9 C9            -1.3386    -3.9851     2.4932 C.2     
  10 C10           -1.7446    -5.3059     3.0945 C.3     
  11 F11           -0.6441    -5.8843     3.7360 F       
  12 F12           -2.7704    -5.0998     4.0232 F       
  13 F13           -2.1964    -6.1598     2.0826 F       
  14 C14            1.1434     2.1303    -0.0731 C.ar    
  15 C15            1.0399     3.5157    -0.2030 C.ar    
  16 C16            2.1884     4.2892    -0.2838 C.ar    
  17 C17            3.4352     3.6842    -0.2352 C.ar    
  18 C18            3.5351     2.3068    -0.1064 C.ar    
  19 C19            2.3924     1.5326    -0.0199 C.ar    
  20 S20           -0.5461     4.2807    -0.2650 S.3     
  21 C21           -0.1436     6.0414    -0.4336 C.3     
  22 O22            4.5613     4.4421    -0.3143 O.3     
  23 C23            5.8121     3.7534    -0.2578 C.3     
  24 H24           -0.8448     1.6582    -0.3847 H       
  25 H25           -1.9487    -0.2274     0.4428 H       
  26 H26            2.1117     5.3618    -0.3847 H       
  27 H27            4.5074     1.8382    -0.0696 H       
  28 H28            2.4736     0.4608     0.0851 H       
  29 H29            0.4323     6.1967    -1.3458 H       
  30 H30           -1.0650     6.6217    -0.4824 H       
  31 H31            0.4437     6.3638     0.4262 H       
  32 H32            5.8877     3.2142     0.6865 H       
  33 H33            5.8757     3.0471    -1.0856 H       
  34 H34            6.6270     4.4736    -0.3313 H       
@<TRIPOS>BOND
   1    1    2 am
   2    1   14 1
   3    1   24 1
   4    2    3 2
   5    2    4 am
   6    4    6 1
   7    4   25 1
   8    5    6 1
   9    5    9 1
  10    6    7 2
  11    7    8 1
  12    8    9 2
  13    9   10 1
  14   10   11 1
  15   10   12 1
  16   10   13 1
  17   14   15 ar
  18   14   19 ar
  19   15   16 ar
  20   15   20 1
  21   16   17 ar
  22   16   26 1
  23   17   18 ar
  24   17   22 1
  25   18   19 ar
  26   18   27 1
  27   19   28 1
  28   20   21 1
  29   21   29 1
  30   21   30 1
  31   21   31 1
  32   22   23 1
  33   23   32 1
  34   23   33 1
  35   23   34 1

#	End of record

