#	Name: ASD01812251
#	Creating user name:	WinNT
#	Creation time:	15. 06. 2019 19:28

#	Modifying user name:	WinNT
#	Modification time:	15. 06. 2019 19:28

#	Program:	/corina/corina34_cracker 3.40 0067  02.08.2006

@<TRIPOS>MOLECULE
ASD01812251
  57   61    0    0    0
SMALL
NO_CHARGES


@<TRIPOS>ATOM
   1 C1            -0.0168     1.3895     0.0097 C.ar    
   2 C2             0.0021    -0.0041     0.0020 C.ar    
   3 C3             1.1949    -0.6695    -0.0129 C.ar    
   4 C4             2.3801     0.0895    -0.0201 C.ar    
   5 C5             2.2889     1.5049    -0.0117 C.ar    
   6 N6             1.0882     2.0936     0.0029 N.ar    
   7 C7             3.6422    -0.5285    -0.0349 C.ar    
   8 C8             4.7712     0.2251    -0.0408 C.ar    
   9 C9             4.7002     1.6315    -0.0326 C.ar    
  10 C10            3.4670     2.2624    -0.0189 C.ar    
  11 C11            3.7424    -2.0322    -0.0439 C.3     
  12 C12            5.7517     2.6688    -0.0364 C.2     
  13 N13            5.1986     3.8937    -0.0250 N.am    
  14 C14            3.7388     3.7457    -0.0133 C.3     
  15 O15            6.9468     2.4464    -0.0481 O.2     
  16 C16            5.8969     5.1053    -0.0244 C.ar    
  17 C17            7.2846     5.1075    -0.0369 C.ar    
  18 C18            7.9731     6.3106    -0.0362 C.ar    
  19 C19            7.2740     7.5093    -0.0232 C.ar    
  20 C20            5.8919     7.5052    -0.0103 C.ar    
  21 C21            5.2021     6.3086    -0.0172 C.ar    
  22 N22            3.5225    -2.5295    -1.4085 N.3     
  23 C23            3.8440    -3.9590    -1.5058 C.3     
  24 C24            3.4667    -4.4745    -2.8965 C.3     
  25 C25            4.2410    -3.6850    -3.9556 C.3     
  26 C26            3.9258    -2.1945    -3.8014 C.3     
  27 C27            4.2898    -1.7451    -2.3845 C.3     
  28 F28            5.6136    -3.8940    -3.7839 F       
  29 O29            9.3320     6.3163    -0.0479 O.3     
  30 C30            4.5289    -3.6041    -6.5486 C.3     
  31 C31            3.8290    -4.1473    -5.3295 C.2     
  32 N32            2.8851    -5.0009    -5.4609 N.2     
  33 H33           -0.9672     1.9026     0.0169 H       
  34 H34           -0.9254    -0.5573     0.0082 H       
  35 H35            1.2277    -1.7489    -0.0187 H       
  36 H36            5.7361    -0.2601    -0.0515 H       
  37 H37            4.7333    -2.3323     0.2970 H       
  38 H38            2.9871    -2.4506     0.6214 H       
  39 H39            3.3079     4.2091    -0.9008 H       
  40 H40            3.3232     4.1994     0.8865 H       
  41 H41            7.8270     4.1737    -0.0467 H       
  42 H42            7.8106     8.4465    -0.0227 H       
  43 H43            5.3503     8.4395     0.0002 H       
  44 H44            4.1221     6.3082    -0.0075 H       
  45 H45            4.9120    -4.1030    -1.3425 H       
  46 H46            3.2837    -4.5095    -0.7501 H       
  47 H47            3.7199    -5.5319    -2.9736 H       
  48 H48            2.3963    -4.3435    -3.0551 H       
  49 H49            4.5069    -1.6229    -4.5250 H       
  50 H50            2.8626    -2.0276    -3.9743 H       
  51 H51            4.0532    -0.6875    -2.2669 H       
  52 H52            5.3557    -1.8995    -2.2170 H       
  53 H53            9.7177     6.3227    -0.9347 H       
  54 H54            5.3821    -4.2380    -6.7903 H       
  55 H55            3.8359    -3.5912    -7.3898 H       
  56 H56            4.8750    -2.5903    -6.3473 H       
  57 H57            2.6200    -5.2985    -6.3453 H       
@<TRIPOS>BOND
   1    1    2 ar
   2    1    6 ar
   3    1   33 1
   4    2    3 ar
   5    2   34 1
   6    3    4 ar
   7    3   35 1
   8    4    5 ar
   9    4    7 ar
  10    5    6 ar
  11    5   10 ar
  12    7    8 ar
  13    7   11 1
  14    8    9 ar
  15    8   36 1
  16    9   10 ar
  17    9   12 1
  18   10   14 1
  19   11   22 1
  20   11   37 1
  21   11   38 1
  22   12   13 am
  23   12   15 2
  24   13   14 1
  25   13   16 1
  26   14   39 1
  27   14   40 1
  28   16   17 ar
  29   16   21 ar
  30   17   18 ar
  31   17   41 1
  32   18   19 ar
  33   18   29 1
  34   19   20 ar
  35   19   42 1
  36   20   21 ar
  37   20   43 1
  38   21   44 1
  39   22   23 1
  40   22   27 1
  41   23   24 1
  42   23   45 1
  43   23   46 1
  44   24   25 1
  45   24   47 1
  46   24   48 1
  47   25   31 1
  48   25   26 1
  49   25   28 1
  50   26   27 1
  51   26   49 1
  52   26   50 1
  53   27   51 1
  54   27   52 1
  55   29   53 1
  56   30   31 1
  57   30   54 1
  58   30   55 1
  59   30   56 1
  60   31   32 2
  61   32   57 1

#	End of record

