#	Name: ASD01140052
#	Creating user name:	WinNT
#	Creation time:	15. 06. 2019 18:59

#	Modifying user name:	WinNT
#	Modification time:	15. 06. 2019 18:59

#	Program:	/corina/corina34_cracker 3.40 0067  02.08.2006

@<TRIPOS>MOLECULE
ASD01140052
  33   34    0    0    0
SMALL
NO_CHARGES


@<TRIPOS>ATOM
   1 C1             4.8391     0.9790     3.7245 C.ar    
   2 C2             5.4272    -0.2313     3.4068 C.ar    
   3 C3             4.2351     1.7361     2.7381 C.ar    
   4 C4             4.2196     1.2793     1.4258 C.ar    
   5 C5             4.8118     0.0621     1.1102 C.ar    
   6 C6             5.4141    -0.6890     2.1017 C.ar    
   7 C7             6.0566    -2.0088     1.7606 C.3     
   8 Cl8            3.4965     3.2553     3.1383 Cl      
   9 Cl9            4.7950    -0.5140    -0.5273 Cl      
  10 N10            3.6091     2.0422     0.4252 N.pl3   
  11 C11            3.5106     3.4203     0.5655 C.ar    
  12 C12            4.6660     4.2177     0.5319 C.ar    
  13 C13            2.2674     4.0183     0.7341 C.ar    
  14 C14            2.1722     5.3875     0.8723 C.ar    
  15 C15            3.3114     6.1771     0.8444 C.ar    
  16 C16            4.5520     5.6037     0.6739 C.ar    
  17 C17            5.9894     3.5977     0.3488 C.2     
  18 O18            6.0765     2.4071     0.1215 O.2     
  19 O19            7.1039     4.3509     0.4333 O.3     
  20 C20            8.3736     3.6730     0.2420 C.3     
  21 H21            4.8477     1.3312     4.7454 H       
  22 H22            5.8983    -0.8206     4.1795 H       
  23 H23            7.1026    -1.8472     1.5004 H       
  24 H24            5.9948    -2.6759     2.6204 H       
  25 H25            5.5368    -2.4579     0.9142 H       
  26 H26            3.2544     1.6088    -0.3668 H       
  27 H27            1.3750     3.4105     0.7565 H       
  28 H28            1.2038     5.8474     1.0027 H       
  29 H29            3.2252     7.2482     0.9532 H       
  30 H30            5.4360     6.2238     0.6534 H       
  31 H31            8.3991     3.2225    -0.7502 H       
  32 H32            9.1872     4.3924     0.3354 H       
  33 H33            8.4877     2.8954     0.9972 H       
@<TRIPOS>BOND
   1    1    2 ar
   2    1    3 ar
   3    1   21 1
   4    2    6 ar
   5    2   22 1
   6    3    4 ar
   7    3    8 1
   8    4    5 ar
   9    4   10 1
  10    5    6 ar
  11    5    9 1
  12    6    7 1
  13    7   23 1
  14    7   24 1
  15    7   25 1
  16   10   11 1
  17   10   26 1
  18   11   12 ar
  19   11   13 ar
  20   12   17 1
  21   12   16 ar
  22   13   14 ar
  23   13   27 1
  24   14   15 ar
  25   14   28 1
  26   15   16 ar
  27   15   29 1
  28   16   30 1
  29   17   18 2
  30   17   19 1
  31   19   20 1
  32   20   31 1
  33   20   32 1
  34   20   33 1

#	End of record

