#	Name: ASD02408461
#	Creating user name:	WinNT
#	Creation time:	15. 06. 2019 20:21

#	Modifying user name:	WinNT
#	Modification time:	15. 06. 2019 20:21

#	Program:	/corina/corina34_cracker 3.40 0067  02.08.2006

@<TRIPOS>MOLECULE
ASD02408461
  42   44    0    0    0
SMALL
NO_CHARGES


@<TRIPOS>ATOM
   1 C1            -0.0170     1.3996     0.0097 C.2     
   2 C2             0.0021    -0.0041     0.0020 C.2     
   3 N3            -1.2942    -0.4096     0.0118 N.pl3   
   4 N4            -2.1111     0.7280     0.0254 N.2     
   5 C5            -1.3664     1.7991     0.0192 C.2     
   6 C6            -1.7585    -1.7991     0.0078 C.3     
   7 C7            -2.5993    -2.0774     1.2661 C.3     
   8 C8            -4.0051    -2.4818     0.7762 C.3     
   9 C9            -3.7699    -3.0057    -0.6623 C.3     
  10 C10           -2.6827    -2.0440    -1.2028 C.3     
  11 C11            1.2638     2.1063     0.0013 C.2     
  12 N12            2.3912     1.3572    -0.0135 N.am    
  13 N13            1.1828    -0.6424    -0.0123 N.2     
  14 O14            1.3139     3.3236     0.0070 O.2     
  15 C15            2.3124     0.0027    -0.0200 C.2     
  16 C16            3.5931    -0.7914    -0.0370 C.3     
  17 C17            3.2664    -2.2861    -0.0418 C.3     
  18 C18            4.5471    -3.0802    -0.0588 C.2     
  19 O19            5.6119    -2.5092    -0.0663 O.2     
  20 O20            4.5049    -4.4218    -0.0657 O.3     
  21 C21            5.7773    -5.1212    -0.0821 C.3     
  22 C22            5.5292    -6.6310    -0.0877 C.3     
  23 H23           -1.7241     2.8181     0.0267 H       
  24 H24           -0.9059    -2.4772    -0.0291 H       
  25 H25           -2.1553    -2.8912     1.8394 H       
  26 H26           -2.6619    -1.1787     1.8797 H       
  27 H27           -4.4167    -3.2699     1.4067 H       
  28 H28           -4.6681    -1.6168     0.7635 H       
  29 H29           -3.4034    -4.0321    -0.6445 H       
  30 H30           -4.6816    -2.9301    -1.2549 H       
  31 H31           -3.1321    -1.1082    -1.5351 H       
  32 H32           -2.1292    -2.5126    -2.0166 H       
  33 H33            3.2590     1.7906    -0.0198 H       
  34 H34            4.1638    -0.5413    -0.9314 H       
  35 H35            4.1815    -0.5509     0.8485 H       
  36 H36            2.6957    -2.5362     0.8525 H       
  37 H37            2.6780    -2.5266    -0.9273 H       
  38 H38            6.3343    -4.8412    -0.9761 H       
  39 H39            6.3520    -4.8508     0.8037 H       
  40 H40            4.9722    -6.9110     0.8063 H       
  41 H41            4.9545    -6.9014    -0.9735 H       
  42 H42            6.4844    -7.1561    -0.1001 H       
@<TRIPOS>BOND
   1    1    2 2
   2    1   11 1
   3    1    5 1
   4    2    3 1
   5    2   13 1
   6    3    4 1
   7    3    6 1
   8    4    5 2
   9    5   23 1
  10    6    7 1
  11    6   10 1
  12    6   24 1
  13    7    8 1
  14    7   25 1
  15    7   26 1
  16    8    9 1
  17    8   27 1
  18    8   28 1
  19    9   10 1
  20    9   29 1
  21    9   30 1
  22   10   31 1
  23   10   32 1
  24   11   12 am
  25   11   14 2
  26   12   15 1
  27   12   33 1
  28   13   15 2
  29   15   16 1
  30   16   17 1
  31   16   34 1
  32   16   35 1
  33   17   18 1
  34   17   36 1
  35   17   37 1
  36   18   19 2
  37   18   20 1
  38   20   21 1
  39   21   22 1
  40   21   38 1
  41   21   39 1
  42   22   40 1
  43   22   41 1
  44   22   42 1

#	End of record

