#	Name: ASD01840110
#	Creating user name:	WinNT
#	Creation time:	15. 06. 2019 19:37

#	Modifying user name:	WinNT
#	Modification time:	15. 06. 2019 19:37

#	Program:	/corina/corina34_cracker 3.40 0067  02.08.2006

@<TRIPOS>MOLECULE
ASD01840110
  38   40    0    0    0
SMALL
NO_CHARGES


@<TRIPOS>ATOM
   1 C1             0.2611     1.7552    -0.9983 C.ar    
   2 C2             0.3842     0.5320    -1.6199 C.ar    
   3 N3             1.4991    -0.1677    -1.4969 N.ar    
   4 N4             2.5000     0.2427    -0.8113 N.ar    
   5 C5             1.3546     2.2266    -0.2366 C.ar    
   6 C6             1.5105     3.4571     0.5167 C.2     
   7 C7             2.4928     1.4121    -0.1671 C.ar    
   8 S8             3.7245     2.1819     0.8231 S.3     
   9 C9             2.7119     3.5785     1.1338 C.2     
  10 C10           -0.7560    -0.0105    -2.4424 C.3     
  11 C11           -0.9999     2.5696    -1.1316 C.3     
  12 C12            3.1106     4.7241     1.9502 C.2     
  13 O13            2.3410     5.6535     2.1122 O.2     
  14 N14            4.3301     4.7513     2.5234 N.am    
  15 C15            4.7295     5.8992     3.3414 C.3     
  16 C16            6.1273     5.6832     3.8617 C.ar    
  17 C17            6.3232     5.0410     5.0701 C.ar    
  18 C18            7.2133     6.1223     3.1277 C.ar    
  19 C19            8.4955     5.9240     3.6043 C.ar    
  20 C20            8.6918     5.2864     4.8160 C.ar    
  21 C21            7.6050     4.8426     5.5477 C.ar    
  22 N22            0.5180     4.4245     0.5980 N.pl3   
  23 Br23          10.4458     5.0143     5.4683 Br      
  24 H24           -0.6491     0.3211    -3.4752 H       
  25 H25           -0.7431    -1.0999    -2.4074 H       
  26 H26           -1.7007     0.3547    -2.0395 H       
  27 H27           -1.6441     2.3851    -0.2720 H       
  28 H28           -0.7455     3.6287    -1.1744 H       
  29 H29           -1.5219     2.2841    -2.0449 H       
  30 H30            4.9433     4.0109     2.3944 H       
  31 H31            4.7035     6.8043     2.7347 H       
  32 H32            4.0417     6.0043     4.1805 H       
  33 H33            5.4746     4.6945     5.6412 H       
  34 H34            7.0599     6.6201     2.1816 H       
  35 H35            9.3439     6.2664     3.0305 H       
  36 H36            7.7580     4.3412     6.4919 H       
  37 H37           -0.4028     4.1924     0.3999 H       
  38 H38            0.7453     5.3324     0.8529 H       
@<TRIPOS>BOND
   1    1    2 ar
   2    1    5 ar
   3    1   11 1
   4    2    3 ar
   5    2   10 1
   6    3    4 ar
   7    4    7 ar
   8    5    7 ar
   9    5    6 1
  10    6    9 2
  11    6   22 1
  12    7    8 1
  13    8    9 1
  14    9   12 1
  15   10   24 1
  16   10   25 1
  17   10   26 1
  18   11   27 1
  19   11   28 1
  20   11   29 1
  21   12   13 2
  22   12   14 am
  23   14   15 1
  24   14   30 1
  25   15   16 1
  26   15   31 1
  27   15   32 1
  28   16   18 ar
  29   16   17 ar
  30   17   21 ar
  31   17   33 1
  32   18   19 ar
  33   18   34 1
  34   19   20 ar
  35   19   35 1
  36   20   21 ar
  37   20   23 1
  38   21   36 1
  39   22   37 1
  40   22   38 1

#	End of record

