#	Name: ASD01911889
#	Creating user name:	WinNT
#	Creation time:	15. 06. 2019 19:58

#	Modifying user name:	WinNT
#	Modification time:	15. 06. 2019 19:58

#	Program:	/corina/corina34_cracker 3.40 0067  02.08.2006

@<TRIPOS>MOLECULE
ASD01911889
  36   38    0    0    0
SMALL
NO_CHARGES


@<TRIPOS>ATOM
   1 C1            -1.0609    -0.5021    -2.0825 C.ar    
   2 C2            -1.0561     0.0563    -0.8082 C.ar    
   3 C3            -1.0043     1.4365    -0.6771 C.ar    
   4 N4            -0.9606     2.2133    -1.7413 N.ar    
   5 C5            -0.9636     1.7185    -2.9633 C.ar    
   6 C6            -1.0134     0.3507    -3.1757 C.ar    
   7 O7            -1.1019    -0.7391     0.2926 O.3     
   8 C8            -1.1528    -2.0842     0.1062 C.ar    
   9 C9            -0.0025    -2.7819    -0.2364 C.ar    
  10 C10           -0.0525    -4.1496    -0.4258 C.ar    
  11 C11           -1.2471    -4.8274    -0.2750 C.ar    
  12 C12           -2.4013    -4.1346     0.0676 C.ar    
  13 C13           -2.3519    -2.7612     0.2635 C.ar    
  14 N14           -3.6104    -4.8205     0.2199 N.am    
  15 C15           -4.7726    -4.2159    -0.0966 C.2     
  16 C16           -6.0566    -4.9013     0.1617 C.ar    
  17 O17           -4.7650    -3.1069    -0.5944 O.2     
  18 C18           -7.2619    -4.2779    -0.1649 C.ar    
  19 C19           -8.4572    -4.9229     0.0782 C.ar    
  20 C20           -8.4631    -6.1848     0.6448 C.ar    
  21 C21           -7.2712    -6.8093     0.9713 C.ar    
  22 C22           -6.0685    -6.1772     0.7280 C.ar    
  23 Br23          -7.2909    -8.5345     1.7454 Br      
  24 F24           -1.0156    -0.1467    -4.4318 F       
  25 H25           -1.0962    -1.5731    -2.2172 H       
  26 H26           -1.0002     1.8795     0.3079 H       
  27 H27           -0.9272     2.3884    -3.8097 H       
  28 H28            0.9327    -2.2549    -0.3553 H       
  29 H29            0.8437    -4.6899    -0.6926 H       
  30 H30           -1.2835    -5.8964    -0.4241 H       
  31 H31           -3.2478    -2.2202     0.5300 H       
  32 H32           -3.6126    -5.7314     0.5532 H       
  33 H33           -7.2590    -3.2924    -0.6066 H       
  34 H34           -9.3903    -4.4413    -0.1742 H       
  35 H35           -9.4015    -6.6850     0.8336 H       
  36 H36           -5.1393    -6.6651     0.9826 H       
@<TRIPOS>BOND
   1    1    2 ar
   2    1    6 ar
   3    1   25 1
   4    2    3 ar
   5    2    7 1
   6    3    4 ar
   7    3   26 1
   8    4    5 ar
   9    5    6 ar
  10    5   27 1
  11    6   24 1
  12    7    8 1
  13    8    9 ar
  14    8   13 ar
  15    9   10 ar
  16    9   28 1
  17   10   11 ar
  18   10   29 1
  19   11   12 ar
  20   11   30 1
  21   12   13 ar
  22   12   14 1
  23   13   31 1
  24   14   15 am
  25   14   32 1
  26   15   16 1
  27   15   17 2
  28   16   18 ar
  29   16   22 ar
  30   18   19 ar
  31   18   33 1
  32   19   20 ar
  33   19   34 1
  34   20   21 ar
  35   20   35 1
  36   21   22 ar
  37   21   23 1
  38   22   36 1

#	End of record

