#	Name: ASD07930662
#	Creating user name:	WinNT
#	Creation time:	15. 06. 2019 21:12

#	Modifying user name:	WinNT
#	Modification time:	15. 06. 2019 21:12

#	Program:	/corina/corina34_cracker 3.40 0067  02.08.2006

@<TRIPOS>MOLECULE
ASD07930662
  45   47    0    0    0
SMALL
NO_CHARGES


@<TRIPOS>ATOM
   1 C1            -0.1436     1.4649     0.3081 C.3     
   2 N2             0.5901    -0.2182    -2.0456 N.2     
   3 N3            -0.9973    -1.6994    -1.1810 N.pl3   
   4 C4            -0.9255    -2.8147    -0.2313 C.3     
   5 C5            -1.1667    -2.2859     1.1894 C.3     
   6 S6             0.0528    -0.9768     1.5262 S.o2    
   7 N7            -0.0848     0.0061     0.1877 N.am    
   8 C8            -0.1414    -0.6255    -1.0466 C.2     
   9 C9             0.4587    -3.4622    -0.3073 C.3     
  10 C10           -1.9793    -3.8361    -0.5738 C.ar    
  11 C11           -2.8117    -3.6317    -1.6567 C.ar    
  12 C12           -3.7833    -4.5728    -1.9729 C.ar    
  13 C13           -3.9157    -5.7178    -1.1991 C.ar    
  14 C14           -3.0799    -5.9185    -0.1153 C.ar    
  15 C15           -2.1080    -4.9800     0.1937 C.ar    
  16 O16           -0.3681    -0.1628     2.6123 O.2     
  17 O17            1.3759    -1.4905     1.4581 O.2     
  18 N18           -4.6273    -4.3668    -3.0692 N.am    
  19 C19           -5.0475    -5.4165    -3.8027 C.2     
  20 O20           -4.6189    -6.5301    -3.5713 O.2     
  21 C21           -6.0309    -5.2132    -4.8901 C.ar    
  22 N22           -6.4950    -3.9942    -5.1376 N.ar    
  23 Cl23          -1.0595    -5.2337     1.5539 Cl      
  24 C24           -7.3687    -3.7695    -6.0939 C.ar    
  25 C25           -7.8410    -4.8080    -6.8857 C.ar    
  26 C26           -7.3806    -6.0989    -6.6595 C.ar    
  27 C27           -6.4568    -6.3025    -5.6486 C.ar    
  28 F28           -8.7392    -4.5654    -7.8653 F       
  29 F29           -3.2077    -7.0320     0.6391 F       
  30 H30            0.8660     1.8739     0.2673 H       
  31 H31           -0.7346     1.8736    -0.5116 H       
  32 H32           -0.6060     1.7328     1.2582 H       
  33 H33            1.1866     0.5384    -1.9331 H       
  34 H34           -1.6428    -1.7186    -1.9049 H       
  35 H35           -2.1744    -1.8771     1.2631 H       
  36 H36           -1.0445    -3.0958     1.9086 H       
  37 H37            1.2198    -2.7230    -0.0574 H       
  38 H38            0.5114    -4.2909     0.3988 H       
  39 H39            0.6310    -3.8339    -1.3174 H       
  40 H40           -2.7074    -2.7402    -2.2573 H       
  41 H41           -4.6706    -6.4508    -1.4427 H       
  42 H42           -4.9102    -3.4685    -3.3015 H       
  43 H43           -7.7240    -2.7642    -6.2657 H       
  44 H44           -7.7321    -6.9241    -7.2611 H       
  45 H45           -6.0771    -7.2929    -5.4453 H       
@<TRIPOS>BOND
   1    1    7 1
   2    1   30 1
   3    1   31 1
   4    1   32 1
   5    2    8 2
   6    2   33 1
   7    3    4 1
   8    3    8 1
   9    3   34 1
  10    4    5 1
  11    4    9 1
  12    4   10 1
  13    5    6 1
  14    5   35 1
  15    5   36 1
  16    6    7 am
  17    6   16 2
  18    6   17 2
  19    7    8 1
  20    9   37 1
  21    9   38 1
  22    9   39 1
  23   10   11 ar
  24   10   15 ar
  25   11   12 ar
  26   11   40 1
  27   12   13 ar
  28   12   18 1
  29   13   14 ar
  30   13   41 1
  31   14   15 ar
  32   14   29 1
  33   15   23 1
  34   18   19 am
  35   18   42 1
  36   19   20 2
  37   19   21 1
  38   21   22 ar
  39   21   27 ar
  40   22   24 ar
  41   24   25 ar
  42   24   43 1
  43   25   26 ar
  44   25   28 1
  45   26   27 ar
  46   26   44 1
  47   27   45 1

#	End of record

