#	Name: ASD01913427
#	Creating user name:	WinNT
#	Creation time:	15. 06. 2019 20:01

#	Modifying user name:	WinNT
#	Modification time:	15. 06. 2019 20:01

#	Program:	/corina/corina34_cracker 3.40 0067  02.08.2006

@<TRIPOS>MOLECULE
ASD01913427
  39   41    0    0    0
SMALL
NO_CHARGES


@<TRIPOS>ATOM
   1 C1            -1.9541    -0.7272    -2.1790 C.ar    
   2 C2            -1.4469    -0.0509    -1.0720 C.ar    
   3 C3            -1.4693     1.3418    -1.0831 C.ar    
   4 N4            -1.9677     1.9668    -2.1367 N.ar    
   5 C5            -2.4383     1.2901    -3.1651 C.ar    
   6 N6            -2.4350    -0.0275    -3.1931 N.ar    
   7 C7            -1.0264    -2.1445     0.0679 C.ar    
   8 C8             0.1236    -2.9231     0.0153 C.ar    
   9 C9             0.0333    -4.3027     0.0668 C.ar    
  10 C10           -1.2003    -4.9148     0.1707 C.ar    
  11 C11           -2.3612    -4.1408     0.2241 C.ar    
  12 C12           -2.2698    -2.7501     0.1722 C.ar    
  13 C13           -3.6830    -4.7933     0.3348 C.2     
  14 N14           -3.7689    -6.1374     0.3844 N.am    
  15 O15           -4.6923    -4.1177     0.3812 O.2     
  16 N16           -0.9296    -0.7512     0.0214 N.pl3   
  17 C17           -4.9992    -6.7477     0.5972 C.ar    
  18 Cl18           1.4751    -5.2673    -0.0000 Cl      
  19 C19           -0.2859    -0.0247     1.1186 C.3     
  20 N20           -6.0968    -6.0066     0.6419 N.ar    
  21 C21           -7.2839    -6.5410     0.8406 C.ar    
  22 C22           -7.4207    -7.9196     1.0122 C.ar    
  23 C23           -6.2748    -8.7279     0.9695 C.ar    
  24 C24           -5.0615    -8.1300     0.7547 C.ar    
  25 C25           -8.7117    -8.5001     1.2292 C.1     
  26 N26           -9.7358    -8.9607     1.4014 N.1     
  27 H27           -1.9506    -1.8067    -2.2107 H       
  28 H28           -1.0858     1.9028    -0.2437 H       
  29 H29           -2.8387     1.8313    -4.0097 H       
  30 H30            1.0909    -2.4496    -0.0663 H       
  31 H31           -1.2671    -5.9920     0.2103 H       
  32 H32           -3.1645    -2.1465     0.2135 H       
  33 H33           -2.9720    -6.6789     0.2715 H       
  34 H34           -1.0319     0.2345     1.8698 H       
  35 H35            0.4812    -0.6537     1.5702 H       
  36 H36            0.1721     0.8858     0.7321 H       
  37 H37           -8.1583    -5.9077     0.8714 H       
  38 H38           -6.3483    -9.7976     1.0991 H       
  39 H39           -4.1604    -8.7241     0.7158 H       
@<TRIPOS>BOND
   1    1    2 ar
   2    1    6 ar
   3    1   27 1
   4    2    3 ar
   5    2   16 1
   6    3    4 ar
   7    3   28 1
   8    4    5 ar
   9    5    6 ar
  10    5   29 1
  11    7    8 ar
  12    7   12 ar
  13    7   16 1
  14    8    9 ar
  15    8   30 1
  16    9   10 ar
  17    9   18 1
  18   10   11 ar
  19   10   31 1
  20   11   12 ar
  21   11   13 1
  22   12   32 1
  23   13   14 am
  24   13   15 2
  25   14   17 1
  26   14   33 1
  27   16   19 1
  28   17   20 ar
  29   17   24 ar
  30   19   34 1
  31   19   35 1
  32   19   36 1
  33   20   21 ar
  34   21   22 ar
  35   21   37 1
  36   22   23 ar
  37   22   25 1
  38   23   24 ar
  39   23   38 1
  40   24   39 1
  41   25   26 3

#	End of record

