#	Name: ASD03092780
#	Creating user name:	WinNT
#	Creation time:	15. 06. 2019 20:33

#	Modifying user name:	WinNT
#	Modification time:	15. 06. 2019 20:33

#	Program:	/corina/corina34_cracker 3.40 0067  02.08.2006

@<TRIPOS>MOLECULE
ASD03092780
  61   64    0    0    0
SMALL
NO_CHARGES


@<TRIPOS>ATOM
   1 C1            -0.0843     1.4891    -0.7531 C.3     
   2 C2            -0.0596    -0.0372    -0.6504 C.3     
   3 C3            -1.4313    -0.5379    -0.2780 C.2     
   4 O4            -2.3398     0.2491    -0.1111 O.2     
   5 C5            -1.6681    -1.9745    -0.1176 C.2     
   6 C6            -0.6860    -3.0520    -0.2752 C.2     
   7 C7            -1.3492    -4.2114    -0.0325 C.2     
   8 C8            -0.7585    -5.5664    -0.0763 C.ar    
   9 C9            -1.3735    -6.6197     0.6022 C.ar    
  10 C10           -0.8170    -7.8792     0.5581 C.ar    
  11 C11            0.3544    -8.1031    -0.1596 C.ar    
  12 N12            0.9015    -9.3908    -0.1798 N.pl3   
  13 C13            1.9523    -9.7017    -1.1582 C.3     
  14 C14            2.9512    -8.5372    -1.1598 C.3     
  15 C15            2.2333    -7.2719    -1.6286 C.3     
  16 C16            3.1565    -6.0667    -1.4386 C.3     
  17 C17            1.8810    -7.4102    -3.1111 C.3     
  18 C18            0.9686    -7.0597    -0.8384 C.ar    
  19 C19            0.4111    -5.7958    -0.8004 C.ar    
  20 N20           -2.6598    -3.9190     0.2606 N.pl3   
  21 C21           -2.8618    -2.5876     0.2192 C.2     
  22 C22           -4.1674    -1.8854     0.4900 C.3     
  23 C23           -3.6436    -4.8691     0.5646 C.ar    
  24 C24           -4.0899    -5.7462    -0.4149 C.ar    
  25 C25           -5.0599    -6.6817    -0.1121 C.ar    
  26 C26           -5.5864    -6.7454     1.1650 C.ar    
  27 C27           -5.1439    -5.8732     2.1426 C.ar    
  28 C28           -4.1701    -4.9393     1.8475 C.ar    
  29 S29           -6.8241    -7.9398     1.5472 S.o2    
  30 N30           -6.0439    -9.3055     2.0656 N.am    
  31 O31           -7.5366    -7.4348     2.6681 O.2     
  32 O32           -7.4493    -8.2776     0.3166 O.2     
  33 H33            0.9079     1.8513    -1.0225 H       
  34 H34           -0.8008     1.7903    -1.5173 H       
  35 H35           -0.3775     1.9132     0.2072 H       
  36 H36            0.2336    -0.4613    -1.6108 H       
  37 H37            0.6570    -0.3384     0.1137 H       
  38 H38            0.3571    -2.9447    -0.5334 H       
  39 H39           -2.2821    -6.4479     1.1600 H       
  40 H40           -1.2910    -8.6956     1.0826 H       
  41 H41            0.5921   -10.0673     0.4426 H       
  42 H42            2.4602   -10.6233    -0.8740 H       
  43 H43            1.5126    -9.8122    -2.1494 H       
  44 H44            3.3373    -8.3858    -0.1518 H       
  45 H45            3.7741    -8.7628    -1.8381 H       
  46 H46            4.0648    -6.2090    -2.0240 H       
  47 H47            2.6471    -5.1626    -1.7722 H       
  48 H48            3.4152    -5.9699    -0.3842 H       
  49 H49            1.2291    -8.2726    -3.2507 H       
  50 H50            1.3687    -6.5091    -3.4484 H       
  51 H51            2.7941    -7.5474    -3.6903 H       
  52 H52            0.8850    -4.9822    -1.3293 H       
  53 H53           -4.7269    -1.7871    -0.4402 H       
  54 H54           -4.7504    -2.4657     1.2052 H       
  55 H55           -3.9691    -0.8955     0.9011 H       
  56 H56           -3.6794    -5.6968    -1.4125 H       
  57 H57           -5.4077    -7.3640    -0.8736 H       
  58 H58           -5.5573    -5.9252     3.1390 H       
  59 H59           -3.8217    -4.2614     2.6127 H       
  60 H60           -5.0750    -9.3239     2.1082 H       
  61 H61           -6.5558   -10.0869     2.3267 H       
@<TRIPOS>BOND
   1    1    2 1
   2    1   33 1
   3    1   34 1
   4    1   35 1
   5    2    3 1
   6    2   36 1
   7    2   37 1
   8    3    4 2
   9    3    5 1
  10    5   21 2
  11    5    6 1
  12    6    7 2
  13    6   38 1
  14    7    8 1
  15    7   20 1
  16    8   19 ar
  17    8    9 ar
  18    9   10 ar
  19    9   39 1
  20   10   11 ar
  21   10   40 1
  22   11   18 ar
  23   11   12 1
  24   12   13 1
  25   12   41 1
  26   13   14 1
  27   13   42 1
  28   13   43 1
  29   14   15 1
  30   14   44 1
  31   14   45 1
  32   15   16 1
  33   15   17 1
  34   15   18 1
  35   16   46 1
  36   16   47 1
  37   16   48 1
  38   17   49 1
  39   17   50 1
  40   17   51 1
  41   18   19 ar
  42   19   52 1
  43   20   21 1
  44   20   23 1
  45   21   22 1
  46   22   53 1
  47   22   54 1
  48   22   55 1
  49   23   28 ar
  50   23   24 ar
  51   24   25 ar
  52   24   56 1
  53   25   26 ar
  54   25   57 1
  55   26   27 ar
  56   26   29 1
  57   27   28 ar
  58   27   58 1
  59   28   59 1
  60   29   30 am
  61   29   31 2
  62   29   32 2
  63   30   60 1
  64   30   61 1

#	End of record

