#	Name: ASD03090082
#	Creating user name:	WinNT
#	Creation time:	15. 06. 2019 20:28

#	Modifying user name:	WinNT
#	Modification time:	15. 06. 2019 20:28

#	Program:	/corina/corina34_cracker 3.40 0067  02.08.2006

@<TRIPOS>MOLECULE
ASD03090082
  41   42    0    0    0
SMALL
NO_CHARGES


@<TRIPOS>ATOM
   1 C1            -0.2897     0.9837     0.1938 C.2     
   2 C2            -0.4272    -0.4837     0.1410 C.ar    
   3 C3             0.7110    -1.2955     0.1711 C.ar    
   4 C4             0.5800    -2.6592     0.1223 C.ar    
   5 C5            -0.6853    -3.2364     0.0429 C.ar    
   6 C6            -1.8209    -2.4302     0.0127 C.ar    
   7 C7            -1.6963    -1.0661     0.0665 C.ar    
   8 O8             0.8143     1.4888     0.2637 O.2     
   9 N9            -1.3872     1.7651     0.1591 N.am    
  10 S10           -0.8496    -4.9896    -0.0202 S.3     
  11 C11           -2.6454    -5.2280    -0.1148 C.3     
  12 F12           -3.1393    -4.6000    -1.2632 F       
  13 F13           -2.9318    -6.5962    -0.1717 F       
  14 F14           -3.2499    -4.6717     1.0176 F       
  15 C15           -1.2506     3.2228     0.2116 C.3     
  16 C16           -2.6163     3.8576     0.1580 C.ar    
  17 C17           -3.3056     4.1112     1.3278 C.ar    
  18 C18           -4.5643     4.6963     1.2774 C.ar    
  19 C19           -5.1257     5.0245     0.0497 C.ar    
  20 C20           -4.4311     4.7683    -1.1159 C.ar    
  21 C21           -3.1756     4.1907    -1.0619 C.ar    
  22 N22           -5.2642     4.9537     2.4584 N.am    
  23 S23           -4.8183     6.2217     3.4256 S.o2    
  24 O24           -5.7466     6.1857     4.5009 O.2     
  25 O25           -3.4296     6.0201     3.6497 O.2     
  26 C26           -5.0905     7.6920     2.3986 C.3     
  27 H27            1.6922    -0.8485     0.2324 H       
  28 H28            1.4587    -3.2867     0.1452 H       
  29 H29           -2.8006    -2.8805    -0.0493 H       
  30 H30           -2.5773    -0.4416     0.0473 H       
  31 H31           -2.2676     1.3624     0.0994 H       
  32 H32           -0.7536     3.5080     1.1388 H       
  33 H33           -0.6582     3.5630    -0.6377 H       
  34 H34           -2.8665     3.8545     2.2805 H       
  35 H35           -6.1043     5.4792     0.0070 H       
  36 H36           -4.8670     5.0232    -2.0706 H       
  37 H37           -2.6325     3.9957    -1.9748 H       
  38 H38           -6.0116     4.3897     2.7120 H       
  39 H39           -6.1199     7.6994     2.0404 H       
  40 H40           -4.9053     8.5882     2.9908 H       
  41 H41           -4.4097     7.6718     1.5475 H       
@<TRIPOS>BOND
   1    1    2 1
   2    1    8 2
   3    1    9 am
   4    2    3 ar
   5    2    7 ar
   6    3    4 ar
   7    3   27 1
   8    4    5 ar
   9    4   28 1
  10    5    6 ar
  11    5   10 1
  12    6    7 ar
  13    6   29 1
  14    7   30 1
  15    9   15 1
  16    9   31 1
  17   10   11 1
  18   11   12 1
  19   11   13 1
  20   11   14 1
  21   15   16 1
  22   15   32 1
  23   15   33 1
  24   16   17 ar
  25   16   21 ar
  26   17   18 ar
  27   17   34 1
  28   18   19 ar
  29   18   22 1
  30   19   20 ar
  31   19   35 1
  32   20   21 ar
  33   20   36 1
  34   21   37 1
  35   22   23 am
  36   22   38 1
  37   23   24 2
  38   23   25 2
  39   23   26 1
  40   26   39 1
  41   26   40 1
  42   26   41 1

#	End of record

