#	Name: ASD01913799
#	Creating user name:	WinNT
#	Creation time:	15. 06. 2019 20:02

#	Modifying user name:	WinNT
#	Modification time:	15. 06. 2019 20:02

#	Program:	/corina/corina34_cracker 3.40 0067  02.08.2006

@<TRIPOS>MOLECULE
ASD01913799
  42   44    0    0    0
SMALL
NO_CHARGES


@<TRIPOS>ATOM
   1 C1            -0.0168     1.3795    -0.0224 C.ar    
   2 C2             0.0019    -0.0037     0.0132 C.ar    
   3 C3             1.2057    -0.6857     0.0396 C.ar    
   4 C4             2.3966     0.0098     0.0306 C.ar    
   5 C5             2.3856     1.4067    -0.0057 C.ar    
   6 C6             1.1661     2.0886    -0.0322 C.ar    
   7 C7             3.6180     2.1359    -0.0148 C.1     
   8 C8             4.6283     2.7338    -0.0222 C.1     
   9 C9             5.8607     3.4630    -0.0313 C.ar    
  10 C10            5.8581     4.8655    -0.0677 C.ar    
  11 C11            8.2483     4.7810    -0.0454 C.ar    
  12 N12            8.2181     3.4574    -0.0059 N.ar    
  13 C13            7.0835     2.7890     0.0019 C.ar    
  14 C14            7.0715     5.5234    -0.0746 C.ar    
  15 N15            9.4755     5.4395    -0.0514 N.am    
  16 C16           10.0934     5.6669    -1.2201 C.2     
  17 N17           11.2811     6.2851    -1.3015 N.am    
  18 C18           11.9737     6.7640    -0.1042 C.3     
  19 C19           11.5913     5.8780     1.0862 C.3     
  20 C20           10.0619     5.8748     1.2172 C.3     
  21 O21            9.5560     5.2976    -2.2462 O.2     
  22 C22           12.0940     4.4527     0.8483 C.3     
  23 C23           12.2141     6.4397     2.3658 C.3     
  24 H24           -0.9600     1.9050    -0.0471 H       
  25 H25           -0.9275    -0.5536     0.0207 H       
  26 H26            1.2126    -1.7653     0.0677 H       
  27 H27            3.3353    -0.5238     0.0520 H       
  28 H28            1.1500     3.1681    -0.0604 H       
  29 H29            4.9296     5.4167    -0.0902 H       
  30 H30            7.0986     1.7096     0.0346 H       
  31 H31            7.1074     6.6025    -0.1027 H       
  32 H32           11.6893     6.4172    -2.1714 H       
  33 H33           13.0511     6.7159    -0.2628 H       
  34 H34           11.6802     7.7939     0.0991 H       
  35 H35            9.7150     6.8792     1.4599 H       
  36 H36            9.7654     5.1851     2.0074 H       
  37 H37           13.1785     4.4635     0.7387 H       
  38 H38           11.8207     3.8247     1.6962 H       
  39 H39           11.6411     4.0545    -0.0597 H       
  40 H40           11.8465     7.4518     2.5350 H       
  41 H41           11.9406     5.8078     3.2108 H       
  42 H42           13.2991     6.4597     2.2633 H       
@<TRIPOS>BOND
   1    1    2 ar
   2    1    6 ar
   3    1   24 1
   4    2    3 ar
   5    2   25 1
   6    3    4 ar
   7    3   26 1
   8    4    5 ar
   9    4   27 1
  10    5    6 ar
  11    5    7 1
  12    6   28 1
  13    7    8 3
  14    8    9 1
  15    9   10 ar
  16    9   13 ar
  17   10   14 ar
  18   10   29 1
  19   11   12 ar
  20   11   15 1
  21   11   14 ar
  22   12   13 ar
  23   13   30 1
  24   14   31 1
  25   15   16 am
  26   15   20 1
  27   16   17 am
  28   16   21 2
  29   17   18 1
  30   17   32 1
  31   18   19 1
  32   18   33 1
  33   18   34 1
  34   19   20 1
  35   19   22 1
  36   19   23 1
  37   20   35 1
  38   20   36 1
  39   22   37 1
  40   22   38 1
  41   22   39 1
  42   23   40 1
  43   23   41 1
  44   23   42 1

#	End of record

