#	Name: ASD03330806
#	Creating user name:	WinNT
#	Creation time:	15. 06. 2019 20:38

#	Modifying user name:	WinNT
#	Modification time:	15. 06. 2019 20:38

#	Program:	/corina/corina34_cracker 3.40 0067  02.08.2006

@<TRIPOS>MOLECULE
ASD03330806
  56   59    0    0    0
SMALL
NO_CHARGES


@<TRIPOS>ATOM
   1 C1            -0.0028     1.3635    -0.1257 C.2     
   2 N2             0.0178     0.0076    -0.2178 N.pl3   
   3 C3             1.2724     1.7665     0.1343 C.2     
   4 N4             2.0516     0.6640     0.1800 N.2     
   5 C5             1.3083    -0.3957    -0.0360 C.2     
   6 C6             1.7894    -1.7942    -0.0756 C.ar    
   7 C7             1.7212     3.1559     0.3305 C.2     
   8 O8             0.9201     4.0687     0.2651 O.2     
   9 C9             3.4427     4.7254     0.7675 C.2     
  10 N10            3.0195     3.4154     0.5825 N.am    
  11 N11            4.6641     5.0835     1.0141 N.2     
  12 C12           -1.1496    -0.8458    -0.4553 C.3     
  13 C13           -1.9674    -0.2673    -1.6143 C.3     
  14 C14           -2.9656     0.7554    -1.0811 C.3     
  15 N15           -2.4175     1.4763     0.0694 N.3     
  16 C16           -1.2162     2.2393    -0.3008 C.3     
  17 C17            3.0816    -2.0782    -0.5184 C.ar    
  18 C18            3.5243    -3.3845    -0.5530 C.ar    
  19 C19           -3.4311     2.3510     0.6741 C.3     
  20 C20            2.6899    -4.4117    -0.1497 C.ar    
  21 C21            0.9549    -2.8340     0.3352 C.ar    
  22 C22            1.4073    -4.1367     0.2900 C.ar    
  23 S23            2.4300     6.1010     0.6958 S.3     
  24 C24            3.8079     7.1460     1.0321 C.2     
  25 C25            4.8896     6.3757     1.1618 C.2     
  26 C26            6.2576     6.9353     1.4558 C.3     
  27 C27            6.3321     7.3542     2.9255 C.3     
  28 C28            7.3166     5.8672     1.1756 C.3     
  29 C29            6.5128     8.1527     0.5650 C.3     
  30 H30            3.6584     2.6874     0.6347 H       
  31 H31           -0.8190    -1.8529    -0.7097 H       
  32 H32           -1.7651    -0.8796     0.4436 H       
  33 H33           -1.2971     0.2167    -2.3247 H       
  34 H34           -2.5055    -1.0719    -2.1154 H       
  35 H35           -3.2027     1.4688    -1.8704 H       
  36 H36           -3.8779     0.2409    -0.7793 H       
  37 H37           -1.1289     3.1157     0.3413 H       
  38 H38           -1.2910     2.5545    -1.3415 H       
  39 H39            3.7337    -1.2772    -0.8339 H       
  40 H40            4.5242    -3.6057    -0.8960 H       
  41 H41           -4.2767     1.7501     1.0086 H       
  42 H42           -2.9976     2.8745     1.5262 H       
  43 H43           -3.7710     3.0775    -0.0640 H       
  44 H44            3.0411    -5.4326    -0.1787 H       
  45 H45           -0.0448    -2.6201     0.6836 H       
  46 H46            0.7622    -4.9426     0.6074 H       
  47 H47            3.7822     8.2225     1.1150 H       
  48 H48            6.1503     6.4869     3.5602 H       
  49 H49            7.3216     7.7590     3.1382 H       
  50 H50            5.5777     8.1151     3.1252 H       
  51 H51            7.2634     5.5688     0.1286 H       
  52 H52            8.3060     6.2720     1.3882 H       
  53 H53            7.1347     4.9999     1.8102 H       
  54 H54            5.7583     8.9137     0.7646 H       
  55 H55            7.5023     8.5575     0.7776 H       
  56 H56            6.4597     7.8543    -0.4820 H       
@<TRIPOS>BOND
   1    1    2 1
   2    1    3 2
   3    1   16 1
   4    2   12 1
   5    2    5 1
   6    3    4 1
   7    3    7 1
   8    4    5 2
   9    5    6 1
  10    6   21 ar
  11    6   17 ar
  12    7    8 2
  13    7   10 am
  14    9   10 1
  15    9   11 2
  16    9   23 1
  17   10   30 1
  18   11   25 1
  19   12   13 1
  20   12   31 1
  21   12   32 1
  22   13   14 1
  23   13   33 1
  24   13   34 1
  25   14   15 1
  26   14   35 1
  27   14   36 1
  28   15   16 1
  29   15   19 1
  30   16   37 1
  31   16   38 1
  32   17   18 ar
  33   17   39 1
  34   18   20 ar
  35   18   40 1
  36   19   41 1
  37   19   42 1
  38   19   43 1
  39   20   22 ar
  40   20   44 1
  41   21   22 ar
  42   21   45 1
  43   22   46 1
  44   23   24 1
  45   24   25 2
  46   24   47 1
  47   25   26 1
  48   26   27 1
  49   26   28 1
  50   26   29 1
  51   27   48 1
  52   27   49 1
  53   27   50 1
  54   28   51 1
  55   28   52 1
  56   28   53 1
  57   29   54 1
  58   29   55 1
  59   29   56 1

#	End of record

