#	Name: ASD01912915
#	Creating user name:	WinNT
#	Creation time:	15. 06. 2019 20:00

#	Modifying user name:	WinNT
#	Modification time:	15. 06. 2019 20:00

#	Program:	/corina/corina34_cracker 3.40 0067  02.08.2006

@<TRIPOS>MOLECULE
ASD01912915
  44   48    0    0    0
SMALL
NO_CHARGES


@<TRIPOS>ATOM
   1 C1            -0.1040     1.1804     0.6595 C.2     
   2 N2             0.0086     0.0098    -0.0455 N.pl3   
   3 C3            -1.1059    -0.4867    -0.7048 C.2     
   4 C4            -2.2702     0.1483    -0.6649 C.2     
   5 N5            -2.4358     1.3307     0.0312 N.am    
   6 C6            -1.3942     1.8704     0.7028 C.2     
   7 C7             1.1392     1.4375     1.2068 C.2     
   8 C8             1.9473     0.3813     0.7893 C.2     
   9 N9             1.2158    -0.4229     0.0546 N.2     
  10 O10           -1.5235     2.9117     1.3211 O.2     
  11 C11           -3.6824     1.9656     0.0456 C.ar    
  12 C12            3.4052     0.1958     1.1227 C.3     
  13 O13            3.8475     1.2786     1.9436 O.3     
  14 C14            5.1485     1.2637     2.3363 C.ar    
  15 C15            5.6451     2.2840     3.1344 C.ar    
  16 C16            6.9680     2.2665     3.5322 C.ar    
  17 C17            7.7968     1.2333     3.1355 C.ar    
  18 C18            7.3043     0.2155     2.3398 C.ar    
  19 C19            5.9807     0.2251     1.9444 C.ar    
  20 C20           -3.9883     2.8928    -0.9272 C.ar    
  21 C21           -5.2396     3.5260    -0.9075 C.ar    
  22 C22           -6.1727     3.2060     0.1099 C.ar    
  23 C23           -5.8269     2.2549     1.0861 C.ar    
  24 C24           -4.6104     1.6498     1.0444 C.ar    
  25 C25           -5.5927     4.4804    -1.8829 C.ar    
  26 C26           -6.8293     5.0580    -1.8017 C.ar    
  27 C27           -7.6981     4.6972    -0.7751 C.ar    
  28 N28           -7.3659     3.8094     0.1306 N.ar    
  29 Cl29          -4.4883     4.9108    -3.1513 Cl      
  30 H30           -1.0244    -1.4082    -1.2621 H       
  31 H31           -3.1140    -0.2714    -1.1925 H       
  32 H32            1.4233     2.2766     1.8245 H       
  33 H33            3.5387    -0.7442     1.6583 H       
  34 H34            3.9887     0.1756     0.2023 H       
  35 H35            4.9983     3.0914     3.4441 H       
  36 H36            7.3552     3.0608     4.1532 H       
  37 H37            8.8306     1.2214     3.4476 H       
  38 H38            7.9539    -0.5901     2.0307 H       
  39 H39            5.5965    -0.5701     1.3228 H       
  40 H40           -3.2702     3.1300    -1.6982 H       
  41 H41           -6.5291     2.0027     1.8669 H       
  42 H42           -4.3531     0.9202     1.7980 H       
  43 H43           -7.1318     5.7934    -2.5327 H       
  44 H44           -8.6718     5.1616    -0.7233 H       
@<TRIPOS>BOND
   1    1    2 1
   2    1    7 2
   3    1    6 1
   4    2    3 1
   5    2    9 1
   6    3    4 2
   7    3   30 1
   8    4    5 1
   9    4   31 1
  10    5    6 am
  11    5   11 1
  12    6   10 2
  13    7    8 1
  14    7   32 1
  15    8    9 2
  16    8   12 1
  17   11   20 ar
  18   11   24 ar
  19   12   13 1
  20   12   33 1
  21   12   34 1
  22   13   14 1
  23   14   15 ar
  24   14   19 ar
  25   15   16 ar
  26   15   35 1
  27   16   17 ar
  28   16   36 1
  29   17   18 ar
  30   17   37 1
  31   18   19 ar
  32   18   38 1
  33   19   39 1
  34   20   21 ar
  35   20   40 1
  36   21   22 ar
  37   21   25 ar
  38   22   23 ar
  39   22   28 ar
  40   23   24 ar
  41   23   41 1
  42   24   42 1
  43   25   26 ar
  44   25   29 1
  45   26   27 ar
  46   26   43 1
  47   27   28 ar
  48   27   44 1

#	End of record

