#	Name: ASD01231299
#	Creating user name:	WinNT
#	Creation time:	15. 06. 2019 19:15

#	Modifying user name:	WinNT
#	Modification time:	15. 06. 2019 19:15

#	Program:	/corina/corina34_cracker 3.40 0067  02.08.2006

@<TRIPOS>MOLECULE
ASD01231299
  45   47    0    0    0
SMALL
NO_CHARGES


@<TRIPOS>ATOM
   1 C1            -0.9008     2.1127    -0.5579 C.3     
   2 C2            -1.4113     0.7505    -1.0320 C.3     
   3 C3            -1.1065     0.5819    -2.5218 C.3     
   4 S4            -0.5865    -0.5645    -0.0934 S.o2    
   5 O5            -1.1782    -1.8252    -0.3759 O.2     
   6 O6             0.8237    -0.3928    -0.1284 O.2     
   7 N7            -0.9953    -0.2656     1.4832 N.am    
   8 C8            -2.6701    -1.7561     2.5365 C.3     
   9 C9            -2.3925    -0.3728     1.9106 C.3     
  10 C10           -2.6822     0.5862     3.0847 C.3     
  11 C11           -3.6720    -0.1496     3.9624 C.ar    
  12 C12           -4.5108     0.3221     4.9571 C.ar    
  13 C13           -5.3439    -0.5516     5.6383 C.ar    
  14 C14           -5.3352    -1.9024     5.3203 C.ar    
  15 C15           -4.4978    -2.3696     4.3279 C.ar    
  16 C16           -3.6652    -1.4959     3.6474 C.ar    
  17 O17           -6.1664    -0.0869     6.6150 O.3     
  18 C18           -6.8843    -0.9920     7.3277 C.ar    
  19 C19           -6.3419    -1.5576     8.4756 C.ar    
  20 C20           -7.0667    -2.4767     9.2014 C.ar    
  21 C21           -8.3496    -2.8400     8.7825 C.ar    
  22 C22           -8.8915    -2.2684     7.6279 C.ar    
  23 C23           -8.1620    -1.3463     6.9108 C.ar    
  24 C24           -9.1066    -3.7955     9.5338 C.1     
  25 N25           -9.7070    -4.5536    10.1299 N.1     
  26 H26            0.1758     2.1728    -0.7176 H       
  27 H27           -1.3964     2.9028    -1.1219 H       
  28 H28           -1.1180     2.2328     0.5034 H       
  29 H29           -2.4879     0.6904    -0.8724 H       
  30 H30           -0.0299     0.6420    -2.6815 H       
  31 H31           -1.4702    -0.3885    -2.8596 H       
  32 H32           -1.6021     1.3721    -3.0858 H       
  33 H33           -0.3097    -0.0196     2.1238 H       
  34 H34           -3.0999    -2.4280     1.7935 H       
  35 H35           -1.7513    -2.1786     2.9430 H       
  36 H36           -3.0693    -0.1814     1.0779 H       
  37 H37           -1.7666     0.7933     3.6386 H       
  38 H38           -3.1202     1.5138     2.7161 H       
  39 H39           -4.5160     1.3736     5.2035 H       
  40 H40           -5.9824    -2.5868     5.8487 H       
  41 H41           -4.4913    -3.4209     4.0807 H       
  42 H42           -5.3504    -1.2764     8.7987 H       
  43 H43           -6.6442    -2.9163    10.0928 H       
  44 H44           -9.8825    -2.5465     7.3007 H       
  45 H45           -8.5817    -0.9008     6.0209 H       
@<TRIPOS>BOND
   1    1    2 1
   2    1   26 1
   3    1   27 1
   4    1   28 1
   5    2    3 1
   6    2    4 1
   7    2   29 1
   8    3   30 1
   9    3   31 1
  10    3   32 1
  11    4    5 2
  12    4    6 2
  13    4    7 am
  14    7    9 1
  15    7   33 1
  16    8    9 1
  17    8   16 1
  18    8   34 1
  19    8   35 1
  20    9   10 1
  21    9   36 1
  22   10   11 1
  23   10   37 1
  24   10   38 1
  25   11   12 ar
  26   11   16 ar
  27   12   13 ar
  28   12   39 1
  29   13   14 ar
  30   13   17 1
  31   14   15 ar
  32   14   40 1
  33   15   16 ar
  34   15   41 1
  35   17   18 1
  36   18   19 ar
  37   18   23 ar
  38   19   20 ar
  39   19   42 1
  40   20   21 ar
  41   20   43 1
  42   21   22 ar
  43   21   24 1
  44   22   23 ar
  45   22   44 1
  46   23   45 1
  47   24   25 3

#	End of record

