#	Name: ASD03091782
#	Creating user name:	WinNT
#	Creation time:	15. 06. 2019 20:31

#	Modifying user name:	WinNT
#	Modification time:	15. 06. 2019 20:31

#	Program:	/corina/corina34_cracker 3.40 0067  02.08.2006

@<TRIPOS>MOLECULE
ASD03091782
  31   33    0    0    0
SMALL
NO_CHARGES


@<TRIPOS>ATOM
   1 C1            -0.0122     1.4825    -0.0251 C.3     
   2 C2             0.0479    -0.0453    -0.0823 C.3     
   3 N3             0.7464    -0.5539     1.1051 N.3     
   4 C4             0.0303    -0.1951     2.3358 C.3     
   5 C5            -0.0309     1.3281     2.4671 C.3     
   6 C6             1.3937     1.8892     2.5289 C.3     
   7 N7             2.0641     1.6172     1.2501 N.am    
   8 C8             1.4129     2.0452     0.0045 C.3     
   9 C9             3.2546     0.9861     1.2201 C.2     
  10 O10            3.7462     0.6667     0.1560 O.2     
  11 C11            3.9646     0.6815     2.4863 C.2     
  12 C12            5.1514    -0.0885     2.6372 C.2     
  13 C13           -0.7484     1.9135     1.2470 C.3     
  14 N14            3.6287     1.0718     3.6907 N.2     
  15 O15            4.4067     0.6628     4.5209 O.3     
  16 C16            5.3862    -0.0671     3.9696 C.2     
  17 H17           -0.5360     1.8606    -0.9030 H       
  18 H18           -0.9647    -0.4479    -0.1081 H       
  19 H19            0.5843    -0.3543    -0.9794 H       
  20 H20            0.8835    -1.5517     1.0443 H       
  21 H21           -0.9821    -0.5972     2.2972 H       
  22 H22            0.5540    -0.6129     3.1956 H       
  23 H23           -0.5684     1.5950     3.3770 H       
  24 H24            1.3557     2.9650     2.7001 H       
  25 H25            1.9416     1.4072     3.3385 H       
  26 H26            1.9734     1.6659    -0.8499 H       
  27 H27            1.3768     3.1339    -0.0336 H       
  28 H28            5.7301    -0.5770     1.8672 H       
  29 H29           -0.7527     3.0014     1.3144 H       
  30 H30           -1.7740     1.5456     1.2165 H       
  31 H31            6.2043    -0.5450     4.4881 H       
@<TRIPOS>BOND
   1    1    2 1
   2    1    8 1
   3    1   13 1
   4    1   17 1
   5    2    3 1
   6    2   18 1
   7    2   19 1
   8    3    4 1
   9    3   20 1
  10    4    5 1
  11    4   21 1
  12    4   22 1
  13    5    6 1
  14    5   13 1
  15    5   23 1
  16    6    7 1
  17    6   24 1
  18    6   25 1
  19    7    8 1
  20    7    9 am
  21    8   26 1
  22    8   27 1
  23    9   10 2
  24    9   11 1
  25   11   12 1
  26   11   14 2
  27   12   16 2
  28   12   28 1
  29   13   29 1
  30   13   30 1
  31   14   15 1
  32   15   16 1
  33   16   31 1

#	End of record

