#	Name: ASD01884512
#	Creating user name:	WinNT
#	Creation time:	15. 06. 2019 19:48

#	Modifying user name:	WinNT
#	Modification time:	15. 06. 2019 19:48

#	Program:	/corina/corina34_cracker 3.40 0067  02.08.2006

@<TRIPOS>MOLECULE
ASD01884512
  67   71    0    0    0
SMALL
NO_CHARGES


@<TRIPOS>ATOM
   1 C1            -0.0168     1.3884     0.0097 C.2     
   2 C2             0.0021    -0.0041     0.0020 C.2     
   3 C3            -1.2095    -0.6965     0.0104 C.2     
   4 C4            -2.3831    -0.0157     0.0252 C.2     
   5 N5            -2.4093     1.3392     0.0327 N.am    
   6 C6            -1.2693     2.0558     0.0312 C.2     
   7 O7            -1.3129     3.2741     0.0383 O.2     
   8 C8            -3.6983     2.0352     0.0483 C.3     
   9 C9            -4.1273     2.2662     1.4744 C.ar    
  10 C10           -3.7545     3.4263     2.1279 C.ar    
  11 C11           -4.1464     3.6404     3.4352 C.ar    
  12 C12           -4.9147     2.6903     4.0923 C.ar    
  13 C13           -5.2875     1.5272     3.4343 C.ar    
  14 C14           -4.8977     1.3204     2.1252 C.ar    
  15 C15            1.2059     2.1337     0.0020 C.1     
  16 N16            2.1759     2.7249    -0.0041 N.1     
  17 C17            1.3105    -0.7515    -0.0155 C.3     
  18 N18            1.6901    -1.1066     1.3585 N.3     
  19 C19            2.8290    -2.0352     1.3670 C.3     
  20 C20            3.2431    -2.3172     2.8131 C.3     
  21 N21            2.1012    -2.8822     3.5456 N.3     
  22 C22            0.9623    -1.9536     3.5371 C.3     
  23 C23            0.5482    -1.6716     2.0910 C.3     
  24 C24            2.4808    -3.2373     4.9196 C.3     
  25 C25            2.9645    -1.9909     5.6581 C.3     
  26 C26            3.1452    -2.2811     7.1251 C.ar    
  27 C27            2.5776    -3.3743     7.7397 C.ar    
  28 C28            1.7362    -4.3774     6.9947 C.3     
  29 C29            1.2627    -3.7978     5.6633 C.3     
  30 C30            3.9176    -1.3979     7.8688 C.ar    
  31 C31            4.1176    -1.6059     9.2175 C.ar    
  32 C32            3.5445    -2.7020     9.8356 C.ar    
  33 C33            2.7783    -3.5808     9.0987 C.ar    
  34 O34           -5.3012     2.8985     5.3784 O.3     
  35 C35           -6.0908     1.8776     5.9919 C.3     
  36 F36           -5.3726     0.6771     6.0047 F       
  37 F37           -6.3981     2.2513     7.3045 F       
  38 F38           -7.2748     1.7050     5.2669 F       
  39 H39           -1.2130    -1.7765     0.0046 H       
  40 H40           -3.3137    -0.5638     0.0308 H       
  41 H41           -3.5999     2.9937    -0.4613 H       
  42 H42           -4.4456     1.4275    -0.4619 H       
  43 H43           -3.1561     4.1654     1.6161 H       
  44 H44           -3.8547     4.5465     3.9453 H       
  45 H45           -5.8856     0.7861     3.9437 H       
  46 H46           -5.1876     0.4151     1.6125 H       
  47 H47            1.2023    -1.6595    -0.6087 H       
  48 H48            2.0835    -0.1207    -0.4544 H       
  49 H49            2.5411    -2.9683     0.8826 H       
  50 H50            3.6659    -1.5892     0.8295 H       
  51 H51            4.0692    -3.0283     2.8228 H       
  52 H52            3.5569    -1.3883     3.2893 H       
  53 H53            0.1254    -2.3996     4.0746 H       
  54 H54            1.2502    -1.0205     4.0215 H       
  55 H55           -0.2779    -0.9605     2.0813 H       
  56 H56            0.2344    -2.6005     1.6148 H       
  57 H57            3.2749    -3.9836     4.8998 H       
  58 H58            3.9163    -1.6694     5.2354 H       
  59 H59            2.2307    -1.1940     5.5371 H       
  60 H60            2.3276    -5.2735     6.8066 H       
  61 H61            0.8693    -4.6402     7.6009 H       
  62 H62            0.5442    -2.9986     5.8456 H       
  63 H63            0.7969    -4.5819     5.0665 H       
  64 H64            4.3655    -0.5414     7.3868 H       
  65 H65            4.7201    -0.9152     9.7889 H       
  66 H66            3.6966    -2.8696    10.8916 H       
  67 H67            2.3305    -4.4363     9.5822 H       
@<TRIPOS>BOND
   1    1    2 2
   2    1   15 1
   3    1    6 1
   4    2    3 1
   5    2   17 1
   6    3    4 2
   7    3   39 1
   8    4    5 1
   9    4   40 1
  10    5    8 1
  11    5    6 am
  12    6    7 2
  13    8    9 1
  14    8   41 1
  15    8   42 1
  16    9   10 ar
  17    9   14 ar
  18   10   11 ar
  19   10   43 1
  20   11   12 ar
  21   11   44 1
  22   12   34 1
  23   12   13 ar
  24   13   14 ar
  25   13   45 1
  26   14   46 1
  27   15   16 3
  28   17   18 1
  29   17   47 1
  30   17   48 1
  31   18   19 1
  32   18   23 1
  33   19   20 1
  34   19   49 1
  35   19   50 1
  36   20   21 1
  37   20   51 1
  38   20   52 1
  39   21   22 1
  40   21   24 1
  41   22   23 1
  42   22   53 1
  43   22   54 1
  44   23   55 1
  45   23   56 1
  46   24   25 1
  47   24   29 1
  48   24   57 1
  49   25   26 1
  50   25   58 1
  51   25   59 1
  52   26   27 ar
  53   26   30 ar
  54   27   28 1
  55   27   33 ar
  56   28   29 1
  57   28   60 1
  58   28   61 1
  59   29   62 1
  60   29   63 1
  61   30   31 ar
  62   30   64 1
  63   31   32 ar
  64   31   65 1
  65   32   33 ar
  66   32   66 1
  67   33   67 1
  68   34   35 1
  69   35   36 1
  70   35   37 1
  71   35   38 1

#	End of record

