#	Name: ASD01900729
#	Creating user name:	WinNT
#	Creation time:	15. 06. 2019 19:52

#	Modifying user name:	WinNT
#	Modification time:	15. 06. 2019 19:52

#	Program:	/corina/corina34_cracker 3.40 0067  02.08.2006

@<TRIPOS>MOLECULE
ASD01900729
  33   36    0    0    0
SMALL
NO_CHARGES


@<TRIPOS>ATOM
   1 C1            -0.0183     1.4025     0.1324 C.ar    
   2 C2            -0.0081     0.0176     0.1213 C.ar    
   3 C3             1.1829    -0.6779     0.0624 C.ar    
   4 C4             2.3875     0.0111     0.0133 C.ar    
   5 C5             2.3724     1.4127     0.0291 C.ar    
   6 O6             3.5588    -0.6565    -0.0564 O.3     
   7 C7             4.7341    -0.0516     0.1901 C.2     
   8 C8             4.8736     1.2933     0.2214 C.2     
   9 C9             3.6751     2.1244    -0.0107 C.2     
  10 C10            5.9238    -0.8920     0.4378 C.ar    
  11 N11            7.0916    -0.2938     0.6827 N.ar    
  12 C12            8.1854    -0.9877     0.9104 C.ar    
  13 C13            8.1051    -2.3937     0.8918 C.ar    
  14 C14            6.8461    -2.9949     0.6279 C.ar    
  15 N15            5.7887    -2.2060     0.4133 N.ar    
  16 C16            1.1700     2.1048     0.0864 C.ar    
  17 C17            9.2241    -3.2052     1.1242 C.ar    
  18 C18            9.0884    -4.5610     1.0936 C.ar    
  19 C19            7.8537    -5.1526     0.8349 C.ar    
  20 C20            6.7454    -4.3949     0.6046 C.ar    
  21 N21            3.7563     3.4118    -0.2377 N.2     
  22 O22            2.5980     4.1413    -0.6001 O.3     
  23 H23           -0.9575     1.9342     0.1725 H       
  24 H24           -0.9417    -0.5239     0.1596 H       
  25 H25            1.1778    -1.7579     0.0549 H       
  26 H26            5.8352     1.7470     0.4110 H       
  27 H27            9.1239    -0.4907     1.1069 H       
  28 H28            1.1641     3.1847     0.0953 H       
  29 H29           10.1870    -2.7594     1.3256 H       
  30 H30            9.9508    -5.1861     1.2723 H       
  31 H31            7.7741    -6.2295     0.8162 H       
  32 H32            5.7953    -4.8681     0.4055 H       
  33 H33            2.7567     5.0838    -0.7470 H       
@<TRIPOS>BOND
   1    1    2 ar
   2    1   16 ar
   3    1   23 1
   4    2    3 ar
   5    2   24 1
   6    3    4 ar
   7    3   25 1
   8    4    5 ar
   9    4    6 1
  10    5   16 ar
  11    5    9 1
  12    6    7 1
  13    7    8 2
  14    7   10 1
  15    8    9 1
  16    8   26 1
  17    9   21 2
  18   10   11 ar
  19   10   15 ar
  20   11   12 ar
  21   12   13 ar
  22   12   27 1
  23   13   14 ar
  24   13   17 ar
  25   14   15 ar
  26   14   20 ar
  27   16   28 1
  28   17   18 ar
  29   17   29 1
  30   18   19 ar
  31   18   30 1
  32   19   20 ar
  33   19   31 1
  34   20   32 1
  35   21   22 1
  36   22   33 1

#	End of record

