#	Name: ASD01916487
#	Creating user name:	WinNT
#	Creation time:	15. 06. 2019 20:07

#	Modifying user name:	WinNT
#	Modification time:	15. 06. 2019 20:07

#	Program:	/corina/corina34_cracker 3.40 0067  02.08.2006

@<TRIPOS>MOLECULE
ASD01916487
  40   43    0    0    0
SMALL
NO_CHARGES


@<TRIPOS>ATOM
   1 C1            -0.0171     1.4080     0.0098 C.ar    
   2 C2             0.0021    -0.0041     0.0020 C.ar    
   3 N3            -1.1272    -0.7006    -0.0247 N.ar    
   4 C4            -2.2984    -0.1104    -0.0245 C.ar    
   5 C5            -2.4082     1.2905     0.0011 C.ar    
   6 C6            -1.2493     2.0684     0.0161 C.ar    
   7 N7             1.1551     2.0794     0.0022 N.2     
   8 C8             2.3175     1.4766     0.0134 C.2     
   9 N9             2.4255     0.1275     0.1079 N.am    
  10 C10            1.3182    -0.6586     0.0362 C.2     
  11 C11           -3.6972     1.9142     0.0113 C.1     
  12 C12           -4.7539     2.4255     0.0196 C.1     
  13 C13           -6.0429     3.0492     0.0297 C.ar    
  14 N14           -6.1343     4.3754     0.0539 N.ar    
  15 C15           -7.3009     4.9862     0.0639 C.ar    
  16 C16           -8.4813     4.2651     0.0500 C.ar    
  17 C17           -8.4330     2.8777     0.0245 C.ar    
  18 C18           -7.1957     2.2597     0.0083 C.ar    
  19 O19            1.4140    -1.8716     0.0018 O.2     
  20 C20            3.5313     2.3653    -0.1342 C.3     
  21 C21            4.7685     1.6785     0.4408 C.3     
  22 C22            4.8688     0.2808    -0.1841 C.3     
  23 C23            3.7016    -0.5557     0.3340 C.3     
  24 C24            6.0183     2.4904     0.0951 C.3     
  25 F25            5.9060     3.7741     0.6399 F       
  26 F26            7.1475     1.8563     0.6244 F       
  27 F27            6.1444     2.5833    -1.2951 F       
  28 H28           -3.1951    -0.7120    -0.0446 H       
  29 H29           -1.3029     3.1469     0.0325 H       
  30 H30           -7.3366     6.0654     0.0837 H       
  31 H31           -9.4323     4.7769     0.0591 H       
  32 H32           -9.3416     2.2940     0.0136 H       
  33 H33           -7.1216     1.1825    -0.0116 H       
  34 H34            3.6957     2.5784    -1.1905 H       
  35 H35            3.3593     3.3015     0.3968 H       
  36 H36            4.6727     1.5928     1.5232 H       
  37 H37            4.8127     0.3583    -1.2699 H       
  38 H38            5.8115    -0.1844     0.1041 H       
  39 H39            3.8310    -0.7280     1.4025 H       
  40 H40            3.6909    -1.5148    -0.1837 H       
@<TRIPOS>BOND
   1    1    2 ar
   2    1    7 1
   3    1    6 ar
   4    2    3 ar
   5    2   10 1
   6    3    4 ar
   7    4    5 ar
   8    4   28 1
   9    5    6 ar
  10    5   11 1
  11    6   29 1
  12    7    8 2
  13    8    9 1
  14    8   20 1
  15    9   10 am
  16    9   23 1
  17   10   19 2
  18   11   12 3
  19   12   13 1
  20   13   14 ar
  21   13   18 ar
  22   14   15 ar
  23   15   16 ar
  24   15   30 1
  25   16   17 ar
  26   16   31 1
  27   17   18 ar
  28   17   32 1
  29   18   33 1
  30   20   21 1
  31   20   34 1
  32   20   35 1
  33   21   24 1
  34   21   22 1
  35   21   36 1
  36   22   23 1
  37   22   37 1
  38   22   38 1
  39   23   39 1
  40   23   40 1
  41   24   25 1
  42   24   26 1
  43   24   27 1

#	End of record

