#	Name: ASD01140408
#	Creating user name:	WinNT
#	Creation time:	15. 06. 2019 19:00

#	Modifying user name:	WinNT
#	Modification time:	15. 06. 2019 19:00

#	Program:	/corina/corina34_cracker 3.40 0067  02.08.2006

@<TRIPOS>MOLECULE
ASD01140408
  18   18    0    0    0
SMALL
NO_CHARGES


@<TRIPOS>ATOM
   1 C1            -0.0180     1.4727     0.0101 C.2     
   2 C2             0.0021    -0.0041     0.0020 C.ar    
   3 C3             1.2206    -0.6900    -0.0133 C.ar    
   4 C4             1.2316    -2.0726    -0.0204 C.ar    
   5 C5             0.0418    -2.7763    -0.0123 C.ar    
   6 C6            -1.1694    -2.1026     0.0024 C.ar    
   7 C7            -1.1954    -0.7218     0.0154 C.ar    
   8 O8             1.0265     2.0949     0.0035 O.2     
   9 N9            -1.1942     2.1307     0.0193 N.am    
  10 N10           -1.2127     3.4965     0.0268 N.3     
  11 F11           -2.3274    -2.7984     0.0093 F       
  12 F12            2.3842    -0.0035    -0.0216 F       
  13 H13            2.1718    -2.6040    -0.0325 H       
  14 H14            0.0561    -3.8562    -0.0179 H       
  15 H15           -2.1400    -0.1984     0.0318 H       
  16 H16           -2.0276     1.6343     0.0205 H       
  17 H17           -0.6952     3.8695    -0.7550 H       
  18 H18           -2.1595     3.8453     0.0332 H       
@<TRIPOS>BOND
   1    1    2 1
   2    1    8 2
   3    1    9 am
   4    2    3 ar
   5    2    7 ar
   6    3    4 ar
   7    3   12 1
   8    4    5 ar
   9    4   13 1
  10    5    6 ar
  11    5   14 1
  12    6    7 ar
  13    6   11 1
  14    7   15 1
  15    9   10 1
  16    9   16 1
  17   10   17 1
  18   10   18 1

#	End of record

