#	Name: ASD03320105
#	Creating user name:	WinNT
#	Creation time:	15. 06. 2019 20:36

#	Modifying user name:	WinNT
#	Modification time:	15. 06. 2019 20:36

#	Program:	/corina/corina34_cracker 3.40 0067  02.08.2006

@<TRIPOS>MOLECULE
ASD03320105
  45   47    0    0    0
SMALL
NO_CHARGES


@<TRIPOS>ATOM
   1 C1            -0.0181     1.4706     0.0147 C.2     
   2 C2             0.0015    -0.0045     0.0117 C.ar    
   3 C3             1.2205    -0.7002     0.0011 C.ar    
   4 C4             1.1911    -2.0690    -0.0009 C.ar    
   5 C5            -0.0388    -2.7267     0.0076 C.ar    
   6 N6            -1.1757    -2.0449     0.0175 N.ar    
   7 C7            -1.1918    -0.7281     0.0251 C.ar    
   8 O8             1.0269     2.0926     0.0081 O.2     
   9 N9            -1.1941     2.1289     0.0193 N.am    
  10 C10           -1.2149     3.5250     0.1327 C.ar    
  11 C11           -2.1836     4.2615    -0.5366 C.ar    
  12 C12           -2.2041     5.6373    -0.4254 C.ar    
  13 C13           -1.2557     6.2851     0.3566 C.ar    
  14 C14           -0.2869     5.5478     1.0264 C.ar    
  15 C15           -0.2703     4.1717     0.9189 C.ar    
  16 S16           -1.2811     8.0412     0.4983 S.3     
  17 C17            0.1210     8.3822     1.5977 C.3     
  18 F18            1.2992     7.9070     1.0119 F       
  19 F19            0.2265     9.7618     1.8047 F       
  20 F20           -0.0816     7.7408     2.8244 F       
  21 N21           -0.0728    -4.1114     0.0051 N.3     
  22 C22           -1.4661    -4.6073     0.0152 C.3     
  23 C23           -1.4767    -5.9082     0.8393 C.3     
  24 C24           -0.0181    -6.0958     1.3162 C.3     
  25 C25            0.5617    -4.6616     1.2302 C.3     
  26 C26           -1.9051    -7.0878    -0.0359 C.3     
  27 O27           -2.0213    -8.2617     0.7706 O.3     
  28 Br28           2.8026    -3.0584    -0.0155 Br      
  29 H29            2.1602    -0.1679    -0.0056 H       
  30 H30           -2.1360    -0.2040     0.0378 H       
  31 H31           -2.0262     1.6360    -0.0560 H       
  32 H32           -2.9207     3.7579    -1.1443 H       
  33 H33           -2.9570     6.2100    -0.9464 H       
  34 H34            0.4507     6.0511     1.6340 H       
  35 H35            0.4800     3.5982     1.4430 H       
  36 H36           -2.1199    -3.8687     0.4789 H       
  37 H37           -1.7952    -4.8107    -1.0039 H       
  38 H38           -2.1446    -5.8086     1.6948 H       
  39 H39            0.0080    -6.4615     2.3427 H       
  40 H40            0.5213    -6.7704     0.6514 H       
  41 H41            1.6459    -4.6908     1.1220 H       
  42 H42            0.2771    -4.0784     2.1060 H       
  43 H43           -2.8677    -6.8671    -0.4972 H       
  44 H44           -1.1591    -7.2533    -0.8131 H       
  45 H45           -2.2903    -9.0506     0.2804 H       
@<TRIPOS>BOND
   1    1    2 1
   2    1    8 2
   3    1    9 am
   4    2    3 ar
   5    2    7 ar
   6    3    4 ar
   7    3   29 1
   8    4    5 ar
   9    4   28 1
  10    5    6 ar
  11    5   21 1
  12    6    7 ar
  13    7   30 1
  14    9   10 1
  15    9   31 1
  16   10   11 ar
  17   10   15 ar
  18   11   12 ar
  19   11   32 1
  20   12   13 ar
  21   12   33 1
  22   13   14 ar
  23   13   16 1
  24   14   15 ar
  25   14   34 1
  26   15   35 1
  27   16   17 1
  28   17   18 1
  29   17   19 1
  30   17   20 1
  31   21   22 1
  32   21   25 1
  33   22   23 1
  34   22   36 1
  35   22   37 1
  36   23   24 1
  37   23   26 1
  38   23   38 1
  39   24   25 1
  40   24   39 1
  41   24   40 1
  42   25   41 1
  43   25   42 1
  44   26   27 1
  45   26   43 1
  46   26   44 1
  47   27   45 1

#	End of record

