#	Name: ASD01670030
#	Creating user name:	WinNT
#	Creation time:	15. 06. 2019 19:22

#	Modifying user name:	WinNT
#	Modification time:	15. 06. 2019 19:22

#	Program:	/corina/corina34_cracker 3.40 0067  02.08.2006

@<TRIPOS>MOLECULE
ASD01670030
  36   39    0    0    0
SMALL
NO_CHARGES


@<TRIPOS>ATOM
   1 O1            -4.2822     0.3720     2.2872 O.2     
   2 C2            -3.3950     0.2865     1.4613 C.2     
   3 O3            -2.8205    -0.9064     1.2108 O.3     
   4 C4            -2.9514     1.4865     0.7292 C.ar    
   5 C5            -1.9883     2.3334     1.2863 C.ar    
   6 C6            -1.4006     2.0203     2.6382 C.3     
   7 N7            -0.3265     2.9710     2.9358 N.am    
   8 C8            -0.5000     4.0993     3.6447 C.2     
   9 O9            -1.5393     4.4915     4.1316 O.2     
  10 C10            0.8457     4.7885     3.7218 C.3     
  11 C11            1.7717     3.8732     2.9542 C.ar    
  12 C12            3.1154     3.9329     2.6604 C.ar    
  13 C13            3.7055     2.9235     1.9200 C.ar    
  14 C14            2.9421     1.8583     1.4781 C.ar    
  15 C15            1.5956     1.7961     1.7710 C.ar    
  16 C16            0.9954     2.8060     2.5208 C.ar    
  17 C17           -1.5765     3.4540     0.5987 C.ar    
  18 C18           -2.1119     3.7488    -0.6442 C.ar    
  19 C19           -3.0669     2.9209    -1.2098 C.ar    
  20 O20           -3.7357     2.9912    -2.3981 O.3     
  21 C21           -4.8673     2.1125    -2.2537 C.3     
  22 O22           -4.4257     1.1433    -1.2848 O.3     
  23 C23           -3.4883     1.7809    -0.5301 C.ar    
  24 H24           -3.0943    -1.6505     1.7643 H       
  25 H25           -2.1770     2.0994     3.3991 H       
  26 H26           -0.9982     1.0073     2.6336 H       
  27 H27            0.8000     5.7695     3.2489 H       
  28 H28            1.1702     4.8779     4.7585 H       
  29 H29            3.7082     4.7665     3.0070 H       
  30 H30            4.7593     2.9677     1.6877 H       
  31 H31            3.4028     1.0709     0.9000 H       
  32 H32            1.0062     0.9612     1.4220 H       
  33 H33           -0.8325     4.1063     1.0314 H       
  34 H34           -1.7828     4.6298    -1.1752 H       
  35 H35           -5.7326     2.6604    -1.8806 H       
  36 H36           -5.0994     1.6278    -3.2021 H       
@<TRIPOS>BOND
   1    1    2 2
   2    2    3 1
   3    2    4 1
   4    3   24 1
   5    4    5 ar
   6    4   23 ar
   7    5    6 1
   8    5   17 ar
   9    6    7 1
  10    6   25 1
  11    6   26 1
  12    7    8 am
  13    7   16 1
  14    8    9 2
  15    8   10 1
  16   10   11 1
  17   10   27 1
  18   10   28 1
  19   11   12 ar
  20   11   16 ar
  21   12   13 ar
  22   12   29 1
  23   13   14 ar
  24   13   30 1
  25   14   15 ar
  26   14   31 1
  27   15   16 ar
  28   15   32 1
  29   17   18 ar
  30   17   33 1
  31   18   19 ar
  32   18   34 1
  33   19   20 1
  34   19   23 ar
  35   20   21 1
  36   21   22 1
  37   21   35 1
  38   21   36 1
  39   22   23 1

#	End of record

