#	Name: ASD01028814
#	Creating user name:	WinNT
#	Creation time:	15. 06. 2019 18:58

#	Modifying user name:	WinNT
#	Modification time:	15. 06. 2019 18:58

#	Program:	/corina/corina34_cracker 3.40 0067  02.08.2006

@<TRIPOS>MOLECULE
ASD01028814
  57   62    0    0    0
SMALL
NO_CHARGES


@<TRIPOS>ATOM
   1 N1            -0.0157     1.3083     0.0092 N.ar    
   2 C2             0.0021    -0.0041     0.0020 C.ar    
   3 C3             1.1931    -0.7187    -0.0127 C.ar    
   4 C4             2.4009    -0.0419    -0.0206 C.ar    
   5 C5             2.3689     1.3754    -0.0131 C.ar    
   6 N6             3.4940     2.0906    -0.0204 N.ar    
   7 C7             3.4681     3.4018    -0.0140 C.ar    
   8 C8             2.2672     4.1074     0.0011 C.ar    
   9 C9             1.0796     3.4331     0.0092 C.ar    
  10 C10            1.1126     2.0250     0.0023 C.ar    
  11 N11            3.6056    -0.7296    -0.0349 N.pl3   
  12 N12            3.3357     8.0923    -1.0307 N.3     
  13 C13            3.7006     7.6430     0.3189 C.3     
  14 C14            3.6797     6.1137     0.3720 C.3     
  15 C15            2.2785     5.6143     0.0090 C.3     
  16 C16            1.9033     6.1361    -1.3808 C.3     
  17 C17            1.9757     7.6648    -1.3830 C.3     
  18 F18            1.3564     6.0838     0.9506 F       
  19 C19            3.6127    -2.1946    -0.0419 C.3     
  20 C20            7.0131    -3.3798     0.5382 C.2     
  21 C21            8.0333    -3.7360     1.4405 C.2     
  22 C22            7.7946    -3.6540     2.7760 C.2     
  23 C23            6.5375    -3.2169     3.2447 C.2     
  24 N24            5.5842    -2.8840     2.4029 N.2     
  25 N25            5.7989    -2.9571     1.0251 N.pl3   
  26 N26            5.7567    -2.9376    -1.1226 N.2     
  27 N27            6.9297    -3.3440    -0.7817 N.2     
  28 C28            5.0359    -2.6899    -0.0573 C.2     
  29 C29            6.2886    -3.1320     4.7049 C.ar    
  30 C30            5.0511    -2.7017     5.1789 C.ar    
  31 C31            4.8235    -2.6246     6.5404 C.ar    
  32 C32            5.8235    -2.9738     7.4327 C.ar    
  33 C33            7.0554    -3.4016     6.9660 C.ar    
  34 C34            7.2898    -3.4877     5.6061 C.ar    
  35 F35            8.0275    -3.7406     7.8408 F       
  36 F36            3.6239    -2.2075     7.0011 F       
  37 H37           -0.9341    -0.5426     0.0081 H       
  38 H38            1.1771    -1.7986    -0.0177 H       
  39 H39            4.4000     3.9475    -0.0203 H       
  40 H40            0.1400     3.9655     0.0206 H       
  41 H41            4.4433    -0.2405    -0.0403 H       
  42 H42            3.4342     9.0926    -1.1178 H       
  43 H43            4.7007     8.0013     0.5629 H       
  44 H44            2.9864     8.0412     1.0397 H       
  45 H45            4.4036     5.7150    -0.3388 H       
  46 H46            3.9354     5.7810     1.3779 H       
  47 H47            2.5992     5.7378    -2.1191 H       
  48 H48            0.8898     5.8194    -1.6271 H       
  49 H49            1.2696     8.0629    -0.6543 H       
  50 H50            1.7230     8.0389    -2.3752 H       
  51 H51            3.1089    -2.5646     0.8510 H       
  52 H52            3.0926    -2.5562    -0.9289 H       
  53 H53            8.9933    -4.0705     1.0761 H       
  54 H54            8.5682    -3.9241     3.4796 H       
  55 H55            4.2710    -2.4285     4.4838 H       
  56 H56            5.6424    -2.9120     8.4956 H       
  57 H57            8.2491    -3.8260     5.2431 H       
@<TRIPOS>BOND
   1    1    2 ar
   2    1   10 ar
   3    2    3 ar
   4    2   37 1
   5    3    4 ar
   6    3   38 1
   7    4    5 ar
   8    4   11 1
   9    5    6 ar
  10    5   10 ar
  11    6    7 ar
  12    7    8 ar
  13    7   39 1
  14    8    9 ar
  15    8   15 1
  16    9   10 ar
  17    9   40 1
  18   11   19 1
  19   11   41 1
  20   12   13 1
  21   12   17 1
  22   12   42 1
  23   13   14 1
  24   13   43 1
  25   13   44 1
  26   14   15 1
  27   14   45 1
  28   14   46 1
  29   15   16 1
  30   15   18 1
  31   16   17 1
  32   16   47 1
  33   16   48 1
  34   17   49 1
  35   17   50 1
  36   19   28 1
  37   19   51 1
  38   19   52 1
  39   20   21 1
  40   20   25 1
  41   20   27 2
  42   21   22 2
  43   21   53 1
  44   22   23 1
  45   22   54 1
  46   23   24 2
  47   23   29 1
  48   24   25 1
  49   25   28 1
  50   26   27 1
  51   26   28 2
  52   29   30 ar
  53   29   34 ar
  54   30   31 ar
  55   30   55 1
  56   31   32 ar
  57   31   36 1
  58   32   33 ar
  59   32   56 1
  60   33   34 ar
  61   33   35 1
  62   34   57 1

#	End of record

