#	Name: ASD03082020
#	Creating user name:	WinNT
#	Creation time:	15. 06. 2019 20:27

#	Modifying user name:	WinNT
#	Modification time:	15. 06. 2019 20:27

#	Program:	/corina/corina34_cracker 3.40 0067  02.08.2006

@<TRIPOS>MOLECULE
ASD03082020
  50   52    0    0    0
SMALL
NO_CHARGES


@<TRIPOS>ATOM
   1 C1             0.2525     1.1446    -0.3407 C.3     
   2 N2             0.1025    -0.3101    -0.2027 N.3     
   3 C3             0.5886    -1.0118    -1.3982 C.3     
   4 C4             2.0898    -0.7528    -1.5635 C.3     
   5 N5             2.3163     0.7005    -1.5601 N.am    
   6 C6             1.7400     1.4921    -0.4626 C.3     
   7 S7             3.1973     1.4261    -2.7600 S.o2    
   8 C8            -1.2916    -0.6703     0.0887 C.3     
   9 C9            -2.1609    -0.3056    -1.0870 C.2     
  10 N10           -3.4632    -0.6527    -1.0954 N.am    
  11 O11           -1.6886     0.3001    -2.0257 O.2     
  12 C12           -4.2963    -0.2218    -2.1363 C.ar    
  13 C13           -5.3398    -1.0285    -2.5700 C.ar    
  14 C14           -6.1608    -0.6031    -3.5956 C.ar    
  15 C15           -5.9428     0.6298    -4.1929 C.ar    
  16 C16           -4.9001     1.4361    -3.7605 C.ar    
  17 C17           -4.0822     1.0145    -2.7308 C.ar    
  18 O18            4.0388     0.4192    -3.3049 O.2     
  19 C19            2.0688     1.8759    -4.0364 C.ar    
  20 O20            3.6921     2.6417    -2.2153 O.2     
  21 C21            1.8578     3.2085    -4.3343 C.ar    
  22 C22            0.9720     3.5617    -5.3355 C.ar    
  23 C23            0.2966     2.5824    -6.0394 C.ar    
  24 C24            0.5065     1.2487    -5.7434 C.ar    
  25 C25            1.3974     0.8937    -4.7451 C.ar    
  26 F26            1.6037    -0.4096    -4.4552 F       
  27 O27           -6.7513     1.0479    -5.2030 O.3     
  28 C28           -6.4692     2.3280    -5.7722 C.3     
  29 H29           -0.2740     1.4815    -1.2337 H       
  30 H30           -0.1656     1.6383     0.5365 H       
  31 H31            0.4141    -2.0821    -1.2879 H       
  32 H32            0.0573    -0.6449    -2.2765 H       
  33 H33            2.6334    -1.2100    -0.7367 H       
  34 H34            2.4324    -1.1746    -2.5084 H       
  35 H35            1.8513     2.5544    -0.6797 H       
  36 H36            2.2500     1.2507     0.4700 H       
  37 H37           -1.3591    -1.7427     0.2718 H       
  38 H38           -1.6296    -0.1288     0.9723 H       
  39 H39           -3.8237    -1.2007    -0.3809 H       
  40 H40           -5.5092    -1.9887    -2.1055 H       
  41 H41           -6.9725    -1.2305    -3.9329 H       
  42 H42           -4.7307     2.3957    -4.2262 H       
  43 H43           -3.2704     1.6424    -2.3942 H       
  44 H44            2.3846     3.9745    -3.7848 H       
  45 H45            0.8074     4.6036    -5.5675 H       
  46 H46           -0.3956     2.8595    -6.8208 H       
  47 H47           -0.0216     0.4837    -6.2933 H       
  48 H48           -5.4606     2.3276    -6.1854 H       
  49 H49           -7.1866     2.5391    -6.5652 H       
  50 H50           -6.5453     3.0936    -5.0002 H       
@<TRIPOS>BOND
   1    1    2 1
   2    1    6 1
   3    1   29 1
   4    1   30 1
   5    2    3 1
   6    2    8 1
   7    3    4 1
   8    3   31 1
   9    3   32 1
  10    4    5 1
  11    4   33 1
  12    4   34 1
  13    5    6 1
  14    5    7 am
  15    6   35 1
  16    6   36 1
  17    7   18 2
  18    7   19 1
  19    7   20 2
  20    8    9 1
  21    8   37 1
  22    8   38 1
  23    9   10 am
  24    9   11 2
  25   10   12 1
  26   10   39 1
  27   12   13 ar
  28   12   17 ar
  29   13   14 ar
  30   13   40 1
  31   14   15 ar
  32   14   41 1
  33   15   16 ar
  34   15   27 1
  35   16   17 ar
  36   16   42 1
  37   17   43 1
  38   19   21 ar
  39   19   25 ar
  40   21   22 ar
  41   21   44 1
  42   22   23 ar
  43   22   45 1
  44   23   24 ar
  45   23   46 1
  46   24   25 ar
  47   24   47 1
  48   25   26 1
  49   27   28 1
  50   28   48 1
  51   28   49 1
  52   28   50 1

#	End of record

