#	Name: ASD09080045
#	Creating user name:	WinNT
#	Creation time:	15. 06. 2019 21:20

#	Modifying user name:	WinNT
#	Modification time:	15. 06. 2019 21:20

#	Program:	/corina/corina34_cracker 3.40 0067  02.08.2006

@<TRIPOS>MOLECULE
ASD09080045
  63   65    0    0    0
SMALL
NO_CHARGES


@<TRIPOS>ATOM
   1 C1            -0.0166     1.3760     0.0096 C.ar    
   2 C2             0.0021    -0.0041     0.0020 C.ar    
   3 C3             1.2195    -0.6816    -0.0133 C.ar    
   4 C4             2.4120     0.0390    -0.0209 C.ar    
   5 C5             2.3816     1.4188    -0.0132 C.ar    
   6 C6             1.1702     2.0863     0.0021 C.ar    
   7 C7             1.1434     3.5931     0.0104 C.3     
   8 C8             1.1204     4.1107    -1.4291 C.3     
   9 C9             0.9676     5.6330    -1.4213 C.3     
  10 N10            2.3726     3.7491    -2.0982 N.am    
  11 C11            0.9446     6.1507    -2.8609 C.3     
  12 O12           -0.0827     5.4786    -3.5924 O.3     
  13 O13           -0.2538     5.9858    -0.7688 O.3     
  14 C14            2.4097     3.6303    -3.4402 C.2     
  15 C15            3.6977     3.2583    -4.1284 C.3     
  16 O16            1.4065     3.8229    -4.0940 O.2     
  17 C17            1.2459    -2.1653    -0.0210 C.ar    
  18 C18            2.4634    -2.8426    -0.0363 C.ar    
  19 C19            2.4827    -4.2239    -0.0435 C.ar    
  20 C20            1.2952    -4.9350    -0.0355 C.ar    
  21 C21            0.0832    -4.2667    -0.0203 C.ar    
  22 C22            0.0534    -2.8856    -0.0072 C.ar    
  23 Cl23           3.9989    -5.0692    -0.0632 Cl      
  24 Cl24          -1.4019    -5.1656    -0.0104 Cl      
  25 C25            0.6714     7.6327    -2.8575 C.2     
  26 O26           -0.3483     8.0602    -3.3447 O.2     
  27 O27            1.5609     8.4779    -2.3133 O.3     
  28 C28            2.3557    10.6921    -1.6841 C.3     
  29 C29            1.2319     9.8918    -2.3455 C.3     
  30 O30            3.4828     3.1957    -5.5397 O.3     
  31 C31            4.5522     2.8704    -6.3128 C.ar    
  32 C32            4.4148     2.7914    -7.6910 C.ar    
  33 C33            5.5033     2.4605    -8.4746 C.ar    
  34 C34            6.7289     2.2081    -7.8864 C.ar    
  35 C35            6.8683     2.2857    -6.5130 C.ar    
  36 C36            5.7843     2.6222    -5.7255 C.ar    
  37 H37           -0.9597     1.9022     0.0169 H       
  38 H38           -0.9252    -0.5577     0.0083 H       
  39 H39            3.3584    -0.4812    -0.0324 H       
  40 H40            3.3053     1.9784    -0.0190 H       
  41 H41            0.2521     3.9377     0.5347 H       
  42 H42            2.0317     3.9695     0.5178 H       
  43 H43            0.2813     3.6640    -1.9625 H       
  44 H44            1.8066     6.0797    -0.8879 H       
  45 H45            3.1749     3.5951    -1.5753 H       
  46 H46            1.9094     5.9602    -3.3310 H       
  47 H47           -0.9702     5.6043    -3.2298 H       
  48 H48           -0.3090     5.6888     0.1498 H       
  49 H49            4.4567     4.0094    -3.9094 H       
  50 H50            4.0342     2.2860    -3.7686 H       
  51 H51            3.3904    -2.2886    -0.0429 H       
  52 H52            1.3145    -6.0148    -0.0416 H       
  53 H53           -0.8928    -2.3651     0.0046 H       
  54 H54            2.4712    10.3694    -0.6494 H       
  55 H55            3.2878    10.5236    -2.2235 H       
  56 H56            2.1088    11.7535    -1.7083 H       
  57 H57            1.1164    10.2145    -3.3802 H       
  58 H58            0.2998    10.0603    -1.8062 H       
  59 H59            3.4577     2.9882    -8.1509 H       
  60 H60            5.3969     2.3986    -9.5476 H       
  61 H61            7.5787     1.9495    -8.5007 H       
  62 H62            7.8264     2.0873    -6.0558 H       
  63 H63            5.8948     2.6875    -4.6531 H       
@<TRIPOS>BOND
   1    1    2 ar
   2    1    6 ar
   3    1   37 1
   4    2    3 ar
   5    2   38 1
   6    3    4 ar
   7    3   17 1
   8    4    5 ar
   9    4   39 1
  10    5    6 ar
  11    5   40 1
  12    6    7 1
  13    7    8 1
  14    7   41 1
  15    7   42 1
  16    8    9 1
  17    8   10 1
  18    8   43 1
  19    9   11 1
  20    9   13 1
  21    9   44 1
  22   10   14 am
  23   10   45 1
  24   11   12 1
  25   11   25 1
  26   11   46 1
  27   12   47 1
  28   13   48 1
  29   14   15 1
  30   14   16 2
  31   15   30 1
  32   15   49 1
  33   15   50 1
  34   17   18 ar
  35   17   22 ar
  36   18   19 ar
  37   18   51 1
  38   19   20 ar
  39   19   23 1
  40   20   21 ar
  41   20   52 1
  42   21   22 ar
  43   21   24 1
  44   22   53 1
  45   25   26 2
  46   25   27 1
  47   27   29 1
  48   28   29 1
  49   28   54 1
  50   28   55 1
  51   28   56 1
  52   29   57 1
  53   29   58 1
  54   30   31 1
  55   31   32 ar
  56   31   36 ar
  57   32   33 ar
  58   32   59 1
  59   33   34 ar
  60   33   60 1
  61   34   35 ar
  62   34   61 1
  63   35   36 ar
  64   35   62 1
  65   36   63 1

#	End of record

