#	Name: ASD00191051
#	Creating user name:	WinNT
#	Creation time:	15. 06. 2019 18:33

#	Modifying user name:	WinNT
#	Modification time:	15. 06. 2019 18:33

#	Program:	/corina/corina34_cracker 3.40 0067  02.08.2006

@<TRIPOS>MOLECULE
ASD00191051
  49   52    0    0    0
SMALL
NO_CHARGES


@<TRIPOS>ATOM
   1 C1            -0.0324     1.4021     0.4022 C.ar    
   2 C2            -0.0151    -0.0125     0.4158 C.ar    
   3 N3            -1.1511    -0.6964     0.2304 N.ar    
   4 C4            -2.3001    -0.0800     0.0331 C.ar    
   5 C5            -2.3893     1.3152     0.0076 C.ar    
   6 C6            -1.2612     2.0733     0.1855 C.ar    
   7 C7             1.1598     2.1123     0.5963 C.ar    
   8 C8             2.3245     1.4330     0.7963 C.ar    
   9 C9             2.3449     0.0409     0.8099 C.ar    
  10 C10            1.2040    -0.6791     0.6248 C.ar    
  11 C11           -3.3616    -2.2259    -0.2689 C.ar    
  12 C12           -4.3732    -3.0309     0.2385 C.ar    
  13 C13           -4.2871    -4.4045     0.1194 C.ar    
  14 C14           -3.1941    -4.9790    -0.5043 C.ar    
  15 C15           -2.1834    -4.1789    -1.0115 C.ar    
  16 C16           -2.2651    -2.8044    -0.8953 C.ar    
  17 N17           -1.3230     3.4633     0.1650 N.am    
  18 C18           -2.2441     4.0858    -0.5970 C.2     
  19 C19           -2.2384     5.5886    -0.7091 C.3     
  20 O20           -3.0775     3.4365    -1.1925 O.2     
  21 N21           -3.4497    -0.8351    -0.1545 N.pl3   
  22 C22           -3.3779     6.0359    -1.6268 C.3     
  23 C23           -3.3721     7.5617    -1.7406 C.3     
  24 C24           -3.5632     8.1773    -0.3530 C.3     
  25 C25           -2.4236     7.7300     0.5648 C.3     
  26 C26           -2.4295     6.2042     0.6785 C.3     
  27 Cl27          -0.8133    -4.9035    -1.7935 Cl      
  28 Cl28          -3.0887    -6.7056    -0.6511 Cl      
  29 H29           -3.3434     1.7941    -0.1563 H       
  30 H30            1.1560     3.1922     0.5871 H       
  31 H31            3.2428     1.9814     0.9458 H       
  32 H32            3.2798    -0.4757     0.9700 H       
  33 H33            1.2362    -1.7585     0.6377 H       
  34 H34           -5.2266    -2.5834     0.7262 H       
  35 H35           -5.0737    -5.0305     0.5139 H       
  36 H36           -1.4771    -2.1806    -1.2907 H       
  37 H37           -0.7032     3.9843     0.6992 H       
  38 H38           -1.2863     5.9183    -1.1248 H       
  39 H39           -4.3140    -0.3979    -0.2063 H       
  40 H40           -3.2418     5.5973    -2.6153 H       
  41 H41           -4.3300     5.7062    -1.2110 H       
  42 H42           -2.4200     7.8914    -2.1564 H       
  43 H43           -4.1839     7.8804    -2.3944 H       
  44 H44           -3.5590     9.2643    -0.4340 H       
  45 H45           -4.5153     7.8476     0.0628 H       
  46 H46           -1.4715     8.0597     0.1490 H       
  47 H47           -2.5598     8.1686     1.5533 H       
  48 H48           -3.3816     5.8745     1.0943 H       
  49 H49           -1.6176     5.8855     1.3323 H       
@<TRIPOS>BOND
   1    1    2 ar
   2    1    7 ar
   3    1    6 ar
   4    2    3 ar
   5    2   10 ar
   6    3    4 ar
   7    4    5 ar
   8    4   21 1
   9    5    6 ar
  10    5   29 1
  11    6   17 1
  12    7    8 ar
  13    7   30 1
  14    8    9 ar
  15    8   31 1
  16    9   10 ar
  17    9   32 1
  18   10   33 1
  19   11   12 ar
  20   11   16 ar
  21   11   21 1
  22   12   13 ar
  23   12   34 1
  24   13   14 ar
  25   13   35 1
  26   14   15 ar
  27   14   28 1
  28   15   16 ar
  29   15   27 1
  30   16   36 1
  31   17   18 am
  32   17   37 1
  33   18   19 1
  34   18   20 2
  35   19   22 1
  36   19   26 1
  37   19   38 1
  38   21   39 1
  39   22   23 1
  40   22   40 1
  41   22   41 1
  42   23   24 1
  43   23   42 1
  44   23   43 1
  45   24   25 1
  46   24   44 1
  47   24   45 1
  48   25   26 1
  49   25   46 1
  50   25   47 1
  51   26   48 1
  52   26   49 1

#	End of record

