#	Name: ASD01908372
#	Creating user name:	WinNT
#	Creation time:	15. 06. 2019 19:55

#	Modifying user name:	WinNT
#	Modification time:	15. 06. 2019 19:55

#	Program:	/corina/corina34_cracker 3.40 0067  02.08.2006

@<TRIPOS>MOLECULE
ASD01908372
  39   42    0    0    0
SMALL
NO_CHARGES


@<TRIPOS>ATOM
   1 C1            -0.0188     1.3447    -0.0698 C.ar    
   2 C2             0.0060    -0.0143     0.1803 C.ar    
   3 C3             1.2152    -0.6696     0.2874 C.ar    
   4 C4             2.4100     0.0261     0.1458 C.ar    
   5 C5             2.3854     1.3796    -0.1033 C.ar    
   6 C6             1.1658     2.0375    -0.2107 C.ar    
   7 S7             4.0686    -0.5671     0.2358 S.o2    
   8 N8             5.0540     0.7442    -0.0172 N.am    
   9 S9             4.0214     2.0241    -0.2409 S.o2    
  10 C10            6.4526     0.7660    -0.0367 C.ar    
  11 C11            7.1255     1.9595    -0.2645 C.ar    
  12 C12            7.1686    -0.4047     0.1773 C.ar    
  13 C13            8.5489    -0.3828     0.1584 C.ar    
  14 C14            9.2214     0.8095    -0.0745 C.ar    
  15 C15            8.5058     1.9810    -0.2833 C.ar    
  16 N16           10.6226     0.8316    -0.0932 N.am    
  17 C17           11.3065    -0.2169    -0.5926 C.2     
  18 O18           10.7139    -1.2138    -0.9478 O.2     
  19 C19           12.8075    -0.1506    -0.7097 C.3     
  20 O20            4.1794     2.4385    -1.5909 O.2     
  21 O21            4.2079     2.8917     0.8689 O.2     
  22 O22            4.2784    -0.9759     1.5805 O.2     
  23 O23            4.2499    -1.4290    -0.8793 O.2     
  24 C24           13.5259    -1.3731    -1.2844 C.3     
  25 C25           13.4044    -0.0955    -2.1174 C.3     
  26 H26           -0.9627     1.8619    -0.1590 H       
  27 H27           -0.9184    -0.5615     0.2918 H       
  28 H28            1.2336    -1.7316     0.4831 H       
  29 H29            1.1454     3.0994    -0.4065 H       
  30 H30            6.5689     2.8707    -0.4272 H       
  31 H31            6.6457    -1.3320     0.3589 H       
  32 H32            9.1057    -1.2930     0.3252 H       
  33 H33            9.0290     2.9083    -0.4645 H       
  34 H34           11.1002     1.6015     0.2533 H       
  35 H35           13.3160     0.4091     0.0753 H       
  36 H36           14.5072    -1.6175    -0.8778 H       
  37 H37           12.9128    -2.2253    -1.5778 H       
  38 H38           12.7116    -0.1071    -2.9587 H       
  39 H39           14.3059     0.5007    -2.2587 H       
@<TRIPOS>BOND
   1    1    2 ar
   2    1    6 ar
   3    1   26 1
   4    2    3 ar
   5    2   27 1
   6    3    4 ar
   7    3   28 1
   8    4    5 ar
   9    4    7 1
  10    5    6 ar
  11    5    9 1
  12    6   29 1
  13    7    8 am
  14    7   22 2
  15    7   23 2
  16    8    9 am
  17    8   10 1
  18    9   20 2
  19    9   21 2
  20   10   11 ar
  21   10   12 ar
  22   11   15 ar
  23   11   30 1
  24   12   13 ar
  25   12   31 1
  26   13   14 ar
  27   13   32 1
  28   14   15 ar
  29   14   16 1
  30   15   33 1
  31   16   17 am
  32   16   34 1
  33   17   18 2
  34   17   19 1
  35   19   24 1
  36   19   25 1
  37   19   35 1
  38   24   25 1
  39   24   36 1
  40   24   37 1
  41   25   38 1
  42   25   39 1

#	End of record

