#	Name: ASD03540525
#	Creating user name:	WinNT
#	Creation time:	15. 06. 2019 20:43

#	Modifying user name:	WinNT
#	Modification time:	15. 06. 2019 20:43

#	Program:	/corina/corina34_cracker 3.40 0067  02.08.2006

@<TRIPOS>MOLECULE
ASD03540525
  55   58    0    0    0
SMALL
NO_CHARGES


@<TRIPOS>ATOM
   1 C1            -0.0162     1.3403     0.0094 C.2     
   2 N2             0.0021    -0.0041     0.0020 N.am    
   3 C3             1.2002    -0.6918    -0.0126 C.ar    
   4 C4             2.4008     0.0415    -0.0201 C.ar    
   5 C5             2.3245     1.5138    -0.0120 C.2     
   6 N6             1.0997     2.0864     0.0028 N.am    
   7 C7             1.2593    -2.0835    -0.0197 C.ar    
   8 C8             3.6089    -0.6470    -0.0344 C.ar    
   9 C9             3.5757    -2.0412    -0.0407 C.ar    
  10 N10            2.4200    -2.6981    -0.0332 N.ar    
  11 C11            4.8452    -2.8002    -0.0564 C.2     
  12 O12            5.9070    -2.2086    -0.0637 O.2     
  13 N13            4.8246    -4.1478    -0.0625 N.am    
  14 C14            6.0820    -4.8996    -0.0781 C.3     
  15 C15            5.7840    -6.3768    -0.0822 C.ar    
  16 C16            5.6361    -7.0477    -1.2821 C.ar    
  17 C17            5.3629    -8.4018    -1.2886 C.ar    
  18 C18            5.2370    -9.0886    -0.0898 C.ar    
  19 C19            5.3858    -8.4132     1.1128 C.ar    
  20 C20            5.6645    -7.0601     1.1139 C.ar    
  21 O21            4.9678   -10.4207    -0.0935 O.3     
  22 C22            4.8517   -11.0626     1.1779 C.3     
  23 O23            3.3327     2.1928    -0.0176 O.2     
  24 O24           -1.0922     1.9059     0.0175 O.2     
  25 C25           -1.2607    -0.7468     0.0100 C.3     
  26 C26            0.9884     3.5471     0.0112 C.3     
  27 C27            0.9635     4.0408     1.4348 C.ar    
  28 C28            2.1487     4.3576     2.0746 C.ar    
  29 C29            2.1332     4.8101     3.3776 C.ar    
  30 C30            0.9177     4.9486     4.0508 C.ar    
  31 C31           -0.2746     4.6275     3.3989 C.ar    
  32 C32           -0.2449     4.1807     2.0941 C.ar    
  33 C33            0.8941     5.4173     5.4037 C.1     
  34 N34            0.8754     5.7891     6.4769 N.1     
  35 H35            0.3461    -2.6601    -0.0137 H       
  36 H36            4.5491    -0.1156    -0.0409 H       
  37 H37            3.9773    -4.6200    -0.0567 H       
  38 H38            6.6490    -4.6408    -0.9723 H       
  39 H39            6.6659    -4.6492     0.8076 H       
  40 H40            5.7339    -6.5125    -2.2151 H       
  41 H41            5.2472    -8.9253    -2.2261 H       
  42 H42            5.2882    -8.9456     2.0474 H       
  43 H43            5.7852    -6.5348     2.0497 H       
  44 H44            5.7874   -10.9545     1.7263 H       
  45 H45            4.0428   -10.6020     1.7449 H       
  46 H46            4.6363   -12.1212     1.0321 H       
  47 H47           -2.0948    -0.0452     0.0218 H       
  48 H48           -1.3219    -1.3691    -0.8827 H       
  49 H49           -1.3049    -1.3787     0.8971 H       
  50 H50            1.8434     3.9796    -0.5085 H       
  51 H51            0.0687     3.8444    -0.4926 H       
  52 H52            3.0881     4.2501     1.5527 H       
  53 H53            3.0591     5.0564     3.8761 H       
  54 H54           -1.2182     4.7323     3.9137 H       
  55 H55           -1.1666     3.9359     1.5873 H       
@<TRIPOS>BOND
   1    1    2 am
   2    1    6 am
   3    1   24 2
   4    2    3 1
   5    2   25 1
   6    3    4 ar
   7    3    7 ar
   8    4    5 1
   9    4    8 ar
  10    5    6 am
  11    5   23 2
  12    6   26 1
  13    7   10 ar
  14    7   35 1
  15    8    9 ar
  16    8   36 1
  17    9   10 ar
  18    9   11 1
  19   11   12 2
  20   11   13 am
  21   13   14 1
  22   13   37 1
  23   14   15 1
  24   14   38 1
  25   14   39 1
  26   15   16 ar
  27   15   20 ar
  28   16   17 ar
  29   16   40 1
  30   17   18 ar
  31   17   41 1
  32   18   19 ar
  33   18   21 1
  34   19   20 ar
  35   19   42 1
  36   20   43 1
  37   21   22 1
  38   22   44 1
  39   22   45 1
  40   22   46 1
  41   25   47 1
  42   25   48 1
  43   25   49 1
  44   26   27 1
  45   26   50 1
  46   26   51 1
  47   27   28 ar
  48   27   32 ar
  49   28   29 ar
  50   28   52 1
  51   29   30 ar
  52   29   53 1
  53   30   31 ar
  54   30   33 1
  55   31   32 ar
  56   31   54 1
  57   32   55 1
  58   33   34 3

#	End of record

