#	Name: ASD00190089
#	Creating user name:	WinNT
#	Creation time:	15. 06. 2019 18:33

#	Modifying user name:	WinNT
#	Modification time:	15. 06. 2019 18:33

#	Program:	/corina/corina34_cracker 3.40 0067  02.08.2006

@<TRIPOS>MOLECULE
ASD00190089
  33   35    0    0    0
SMALL
NO_CHARGES


@<TRIPOS>ATOM
   1 C1            -0.0169     1.3976     0.0097 C.ar    
   2 C2             0.0021    -0.0041     0.0020 C.ar    
   3 N3             1.1793    -0.6333    -0.0126 N.ar    
   4 C4             2.3094     0.0545    -0.0197 C.ar    
   5 N5             2.3190     1.3801    -0.0127 N.ar    
   6 C6             1.1896     2.0717     0.0018 C.ar    
   7 N7             3.5135    -0.6280    -0.0344 N.pl3   
   8 C8            -1.2548    -0.7692     0.0104 C.2     
   9 C9            -1.2237    -2.1140     0.0029 C.2     
  10 C10           -2.4804    -2.8790     0.0112 C.ar    
  11 C11           -2.4484    -4.2783     0.0034 C.ar    
  12 C12           -3.6153    -4.9876     0.0117 C.ar    
  13 C13           -4.8417    -4.3164     0.0275 C.ar    
  14 C14           -4.8745    -2.9187     0.0348 C.ar    
  15 C15           -3.7085    -2.2080     0.0329 C.ar    
  16 C16           -6.1025    -5.0839     0.0359 C.2     
  17 C17           -7.3410    -4.5480     0.0511 C.2     
  18 C18           -8.3669    -5.4690     0.0564 C.2     
  19 C19           -7.9798    -6.7486     0.0457 C.2     
  20 S20           -6.2237    -6.8385     0.0201 S.3     
  21 H21           -0.9521     1.9379     0.0171 H       
  22 H22            1.2113     3.1515     0.0071 H       
  23 H23            3.5212    -1.5980    -0.0394 H       
  24 H24            4.3496    -0.1363    -0.0397 H       
  25 H25           -2.2023    -0.2510     0.0226 H       
  26 H26           -0.2762    -2.6322    -0.0093 H       
  27 H27           -1.5012    -4.7969    -0.0095 H       
  28 H28           -3.5908    -6.0673     0.0056 H       
  29 H29           -5.8223    -2.4010     0.0463 H       
  30 H30           -3.7340    -1.1283     0.0389 H       
  31 H31           -7.5147    -3.4821     0.0589 H       
  32 H32           -9.4069    -5.1781     0.0686 H       
  33 H33           -8.6455    -7.5990     0.0483 H       
@<TRIPOS>BOND
   1    1    2 ar
   2    1    6 ar
   3    1   21 1
   4    2    3 ar
   5    2    8 1
   6    3    4 ar
   7    4    5 ar
   8    4    7 1
   9    5    6 ar
  10    6   22 1
  11    7   23 1
  12    7   24 1
  13    8    9 2
  14    8   25 1
  15    9   10 1
  16    9   26 1
  17   10   11 ar
  18   10   15 ar
  19   11   12 ar
  20   11   27 1
  21   12   13 ar
  22   12   28 1
  23   13   14 ar
  24   13   16 1
  25   14   15 ar
  26   14   29 1
  27   15   30 1
  28   16   17 2
  29   16   20 1
  30   17   18 1
  31   17   31 1
  32   18   19 2
  33   18   32 1
  34   19   20 1
  35   19   33 1

#	End of record

