#	Name: ASD00990016
#	Creating user name:	WinNT
#	Creation time:	15. 06. 2019 18:54

#	Modifying user name:	WinNT
#	Modification time:	15. 06. 2019 18:54

#	Program:	/corina/corina34_cracker 3.40 0067  02.08.2006

@<TRIPOS>MOLECULE
ASD00990016
  69   72    0    0    0
SMALL
NO_CHARGES


@<TRIPOS>ATOM
   1 C1            -2.5822     5.0801     1.5252 C.2     
   2 C2            -2.6971     6.0303     2.6893 C.3     
   3 O3            -3.5832     4.6423     0.9987 O.2     
   4 N4            -1.3671     4.7213     1.0656 N.am    
   5 C5            -0.1615     5.3419     1.6204 C.3     
   6 S6            -6.4607     6.2245     3.7867 S.3     
   7 C7            -4.8317     5.5294     3.7491 C.2     
   8 N8            -4.1102     6.3183     2.9469 N.am    
   9 C9            -4.7249     7.4125     2.3653 C.ar    
  10 C10           -6.0715     7.5643     2.6992 C.ar    
  11 C11           -4.1600     8.3619     1.5005 C.ar    
  12 C12           -4.9156     9.4006     1.0059 C.ar    
  13 C13           -6.2508     9.5331     1.3499 C.ar    
  14 C14           -6.8278     8.6089     2.1997 C.ar    
  15 O15           -4.4471     4.5346     4.3356 O.2     
  16 Cl16          -4.1863    10.5591    -0.0616 Cl      
  17 C17           -1.2518     3.7107     0.0113 C.3     
  18 C18           -1.1936     4.3908    -1.3322 C.2     
  19 N19           -2.2296     4.7847    -2.0137 N.2     
  20 C20           -1.8213     5.3564    -3.1757 C.ar    
  21 C21           -0.4171     5.2986    -3.1888 C.ar    
  22 N22           -0.0500     4.6876    -2.0065 N.pl3   
  23 C23           -2.4954     5.9359    -4.2534 C.ar    
  24 C24           -1.7873     6.4399    -5.3078 C.ar    
  25 C25           -0.4012     6.3831    -5.3212 C.ar    
  26 C26            0.2852     5.8158    -4.2684 C.ar    
  27 C27            1.3176     4.4076    -1.5620 C.3     
  28 C28            1.7925     3.0880    -2.1734 C.3     
  29 O29            3.0807     2.7571    -1.6507 O.3     
  30 Si30           3.6455     1.3092    -2.1454 Si      
  31 C31            2.4156    -0.0198    -1.7070 C.3     
  32 C32            3.8969     1.3383    -3.9911 C.3     
  33 C33            5.2690     0.9551    -1.3030 C.3     
  34 C34            5.0443     0.8301     0.2053 C.3     
  35 C35            5.8486    -0.3540    -1.8425 C.3     
  36 C36            6.2472     2.0985    -1.5799 C.3     
  37 H37           -2.2516     5.5761     3.5744 H       
  38 H38           -2.1743     6.9574     2.4545 H       
  39 H39            0.1842     4.7626     2.4766 H       
  40 H40            0.6181     5.3656     0.8591 H       
  41 H41           -0.3900     6.3591     1.9384 H       
  42 H42           -3.1204     8.2770     1.2201 H       
  43 H43           -6.8357    10.3517     0.9574 H       
  44 H44           -7.8680     8.7029     2.4745 H       
  45 H45           -0.3428     3.1288     0.1636 H       
  46 H46           -2.1171     3.0488     0.0463 H       
  47 H47           -3.5742     5.9850    -4.2534 H       
  48 H48           -2.3121     6.8867    -6.1393 H       
  49 H49            0.1439     6.7860    -6.1620 H       
  50 H50            1.3643     5.7744    -4.2836 H       
  51 H51            1.9763     5.2146    -1.8828 H       
  52 H52            1.3380     4.3325    -0.4747 H       
  53 H53            1.0853     2.2968    -1.9245 H       
  54 H54            1.8556     3.1913    -3.2567 H       
  55 H55            1.4454     0.2264    -2.1386 H       
  56 H56            2.7574    -0.9760    -2.1031 H       
  57 H57            2.3244    -0.0872    -0.6229 H       
  58 H58            4.5472     2.1719    -4.2561 H       
  59 H59            4.3569     0.4030    -4.3099 H       
  60 H60            2.9336     1.4570    -4.4872 H       
  61 H61            4.3474     0.0156     0.4026 H       
  62 H62            5.9942     0.6230     0.6982 H       
  63 H63            4.6314     1.7628     0.5897 H       
  64 H64            6.0897    -0.2365    -2.8990 H       
  65 H65            6.7533    -0.6060    -1.2892 H       
  66 H66            5.1158    -1.1521    -1.7236 H       
  67 H67            5.8342     3.0311    -1.1955 H       
  68 H68            7.1971     1.8913    -1.0870 H       
  69 H69            6.4072     2.1875    -2.6544 H       
@<TRIPOS>BOND
   1    1    2 1
   2    1    3 2
   3    1    4 am
   4    2    8 1
   5    2   37 1
   6    2   38 1
   7    4    5 1
   8    4   17 1
   9    5   39 1
  10    5   40 1
  11    5   41 1
  12    6    7 1
  13    6   10 1
  14    7    8 am
  15    7   15 2
  16    8    9 1
  17    9   10 ar
  18    9   11 ar
  19   10   14 ar
  20   11   12 ar
  21   11   42 1
  22   12   13 ar
  23   12   16 1
  24   13   14 ar
  25   13   43 1
  26   14   44 1
  27   17   18 1
  28   17   45 1
  29   17   46 1
  30   18   19 2
  31   18   22 1
  32   19   20 1
  33   20   21 ar
  34   20   23 ar
  35   21   22 1
  36   21   26 ar
  37   22   27 1
  38   23   24 ar
  39   23   47 1
  40   24   25 ar
  41   24   48 1
  42   25   26 ar
  43   25   49 1
  44   26   50 1
  45   27   28 1
  46   27   51 1
  47   27   52 1
  48   28   29 1
  49   28   53 1
  50   28   54 1
  51   29   30 1
  52   30   31 1
  53   30   32 1
  54   30   33 1
  55   31   55 1
  56   31   56 1
  57   31   57 1
  58   32   58 1
  59   32   59 1
  60   32   60 1
  61   33   34 1
  62   33   36 1
  63   33   35 1
  64   34   61 1
  65   34   62 1
  66   34   63 1
  67   35   64 1
  68   35   65 1
  69   35   66 1
  70   36   67 1
  71   36   68 1
  72   36   69 1

#	End of record

