#	Name: ASD04560171
#	Creating user name:	WinNT
#	Creation time:	15. 06. 2019 20:49

#	Modifying user name:	WinNT
#	Modification time:	15. 06. 2019 20:49

#	Program:	/corina/corina34_cracker 3.40 0067  02.08.2006

@<TRIPOS>MOLECULE
ASD04560171
  40   42    0    0    0
SMALL
NO_CHARGES


@<TRIPOS>ATOM
   1 C1            -0.0174     1.3728     0.0245 C.ar    
   2 C2             0.0010    -0.0041     0.0241 C.ar    
   3 C3             1.2127    -0.6849     0.0141 C.ar    
   4 C4             2.4104     0.0204     0.0044 C.ar    
   5 C5             2.4007     1.3973     0.0043 C.ar    
   6 C6             1.1846     2.0856     0.0143 C.ar    
   7 C7             1.1696     3.5613     0.0137 C.2     
   8 O8             2.2163     4.1800     0.0044 O.2     
   9 N9            -0.0044     4.2233     0.0234 N.am    
  10 C10           -0.0203     5.6182     0.1357 C.ar    
  11 C11           -0.9893     6.3584    -0.5289 C.ar    
  12 C12            0.9117     7.6404     1.0265 C.ar    
  13 C13            0.9295     6.2638     0.9166 C.ar    
  14 O14            1.2265    -2.0420     0.0142 O.3     
  15 C15           -1.0034     7.7348    -0.4163 C.ar    
  16 C16           -0.0522     8.3769     0.3587 C.ar    
  17 F17           -0.0678     9.7234     0.4675 F       
  18 C18            2.5063    -2.6778     0.0037 C.3     
  19 C19            2.3240    -4.1737     0.0054 C.ar    
  20 C20            2.2305    -4.8600    -1.1909 C.ar    
  21 C21            2.0632    -6.2322    -1.1892 C.ar    
  22 C22            1.9901    -6.9182     0.0087 C.ar    
  23 C23            2.0845    -6.2320     1.2050 C.ar    
  24 C24            2.2561    -4.8603     1.2033 C.ar    
  25 H25           -0.9593     1.9010     0.0281 H       
  26 H26           -0.9275    -0.5558     0.0319 H       
  27 H27            3.3499    -0.5123    -0.0026 H       
  28 H28            3.3318     1.9447    -0.0029 H       
  29 H29           -0.8383     3.7329    -0.0476 H       
  30 H30           -1.7311     5.8580    -1.1337 H       
  31 H31            1.6502     8.1428     1.6337 H       
  32 H32            1.6812     5.6897     1.4378 H       
  33 H33           -1.7566     8.3108    -0.9332 H       
  34 H34            3.0528    -2.3794    -0.8910 H       
  35 H35            3.0677    -2.3791     0.8889 H       
  36 H36            2.2876    -4.3241    -2.1268 H       
  37 H37            1.9894    -6.7683    -2.1239 H       
  38 H38            1.8587    -7.9901     0.0100 H       
  39 H39            2.0270    -6.7678     2.1409 H       
  40 H40            2.3299    -4.3242     2.1379 H       
@<TRIPOS>BOND
   1    1    2 ar
   2    1    6 ar
   3    1   25 1
   4    2    3 ar
   5    2   26 1
   6    3    4 ar
   7    3   14 1
   8    4    5 ar
   9    4   27 1
  10    5    6 ar
  11    5   28 1
  12    6    7 1
  13    7    8 2
  14    7    9 am
  15    9   10 1
  16    9   29 1
  17   10   11 ar
  18   10   13 ar
  19   11   15 ar
  20   11   30 1
  21   12   13 ar
  22   12   16 ar
  23   12   31 1
  24   13   32 1
  25   14   18 1
  26   15   16 ar
  27   15   33 1
  28   16   17 1
  29   18   19 1
  30   18   34 1
  31   18   35 1
  32   19   20 ar
  33   19   24 ar
  34   20   21 ar
  35   20   36 1
  36   21   22 ar
  37   21   37 1
  38   22   23 ar
  39   22   38 1
  40   23   24 ar
  41   23   39 1
  42   24   40 1

#	End of record

