#	Name: ASD03331512
#	Creating user name:	WinNT
#	Creation time:	15. 06. 2019 20:39

#	Modifying user name:	WinNT
#	Modification time:	15. 06. 2019 20:39

#	Program:	/corina/corina34_cracker 3.40 0067  02.08.2006

@<TRIPOS>MOLECULE
ASD03331512
  67   70    0    0    0
SMALL
NO_CHARGES


@<TRIPOS>ATOM
   1 C1             0.4232     1.6533    -1.2484 C.ar    
   2 C2             0.5580     0.3118    -1.5396 C.ar    
   3 C3             1.5997    -0.4179    -0.9915 C.ar    
   4 C4             2.5119     0.1931    -0.1486 C.ar    
   5 C5             2.3874     1.5354     0.1510 C.ar    
   6 C6             1.3392     2.2758    -0.3993 C.ar    
   7 C7             1.2001     3.7138    -0.0832 C.2     
   8 Cl8            3.5314     2.3004     1.2092 Cl      
   9 C9             2.1905     4.6397    -0.1487 C.2     
  10 N10            0.0441     4.3395     0.3208 N.pl3   
  11 C11            0.2976     5.6568     0.5168 C.2     
  12 C12           -1.1978     3.7153     0.5004 C.ar    
  13 C13           -1.3634     2.7728     1.5064 C.ar    
  14 C14           -2.5882     2.1591     1.6814 C.ar    
  15 C15           -3.6498     2.4825     0.8547 C.ar    
  16 C16           -3.4872     3.4213    -0.1490 C.ar    
  17 C17           -2.2662     4.0426    -0.3237 C.ar    
  18 C18            1.6274     5.8849     0.2343 C.2     
  19 C19            2.3301     7.1770     0.3119 C.2     
  20 N20            3.2194     7.5188    -0.6414 N.am    
  21 C21            4.0136     8.7487    -0.5179 C.3     
  22 C22            3.8327     9.5824    -1.7904 C.3     
  23 C23            4.1840     8.7271    -3.0099 C.3     
  24 C24            3.2392     7.5253    -3.0815 C.3     
  25 C25            3.4174     6.6655    -1.8209 C.3     
  26 C26            4.0377     9.5668    -4.2805 C.3     
  27 O27            2.1078     7.9356     1.2363 O.2     
  28 C28            4.5074     8.7519    -5.4872 C.3     
  29 Cl29          -5.1880     1.7090     1.0768 Cl      
  30 C30           -0.7018     6.6927     0.9630 C.3     
  31 C31           -0.7046     6.7738     2.4908 C.3     
  32 C32           -1.7193     7.8256     2.9438 C.3     
  33 Cl33           1.7617    -2.1060    -1.3628 Cl      
  34 C34            4.3612     9.5916    -6.7578 C.3     
  35 O35            4.7999     8.8306    -7.8849 O.3     
  36 O36           -1.7219     7.9013     4.3708 O.3     
  37 H37           -0.3871     2.2219    -1.6801 H       
  38 H38           -0.1508    -0.1707    -2.1963 H       
  39 H39            3.3222    -0.3810     0.2759 H       
  40 H40            3.2158     4.4620    -0.4378 H       
  41 H41           -0.5349     2.5196     2.1513 H       
  42 H42           -2.7174     1.4259     2.4638 H       
  43 H43           -4.3171     3.6715    -0.7933 H       
  44 H44           -2.1399     4.7754    -1.1070 H       
  45 H45            3.6709     9.3199     0.3449 H       
  46 H46            5.0661     8.4933    -0.3950 H       
  47 H47            2.7968     9.9133    -1.8643 H       
  48 H48            4.4907    10.4505    -1.7531 H       
  49 H49            5.2122     8.3761    -2.9233 H       
  50 H50            2.2089     7.8756    -3.1432 H       
  51 H51            3.4748     6.9293    -3.9632 H       
  52 H52            4.4213     6.2410    -1.8070 H       
  53 H53            2.6793     5.8634    -1.8183 H       
  54 H54            2.9921     9.8443    -4.4143 H       
  55 H55            4.6443    10.4681    -4.1923 H       
  56 H56            5.5530     8.4745    -5.3535 H       
  57 H57            3.9008     7.8507    -5.5755 H       
  58 H58           -0.4291     7.6630     0.5481 H       
  59 H59           -1.6954     6.4138     0.6121 H       
  60 H60           -0.9773     5.8035     2.9057 H       
  61 H61            0.2889     7.0527     2.8417 H       
  62 H62           -1.4466     8.7959     2.5289 H       
  63 H63           -2.7129     7.5466     2.5929 H       
  64 H64            3.3156     9.8691    -6.8916 H       
  65 H65            4.9678    10.4929    -6.6696 H       
  66 H66            4.7352     9.3017    -8.7269 H       
  67 H67           -2.3435     8.5497     4.7291 H       
@<TRIPOS>BOND
   1    1    2 ar
   2    1    6 ar
   3    1   37 1
   4    2    3 ar
   5    2   38 1
   6    3    4 ar
   7    3   33 1
   8    4    5 ar
   9    4   39 1
  10    5    6 ar
  11    5    8 1
  12    6    7 1
  13    7   10 1
  14    7    9 2
  15    9   18 1
  16    9   40 1
  17   10   11 1
  18   10   12 1
  19   11   18 2
  20   11   30 1
  21   12   13 ar
  22   12   17 ar
  23   13   14 ar
  24   13   41 1
  25   14   15 ar
  26   14   42 1
  27   15   16 ar
  28   15   29 1
  29   16   17 ar
  30   16   43 1
  31   17   44 1
  32   18   19 1
  33   19   20 am
  34   19   27 2
  35   20   21 1
  36   20   25 1
  37   21   22 1
  38   21   45 1
  39   21   46 1
  40   22   23 1
  41   22   47 1
  42   22   48 1
  43   23   24 1
  44   23   26 1
  45   23   49 1
  46   24   25 1
  47   24   50 1
  48   24   51 1
  49   25   52 1
  50   25   53 1
  51   26   28 1
  52   26   54 1
  53   26   55 1
  54   28   34 1
  55   28   56 1
  56   28   57 1
  57   30   31 1
  58   30   58 1
  59   30   59 1
  60   31   32 1
  61   31   60 1
  62   31   61 1
  63   32   36 1
  64   32   62 1
  65   32   63 1
  66   34   35 1
  67   34   64 1
  68   34   65 1
  69   35   66 1
  70   36   67 1

#	End of record

