#	Name: ASD01350023
#	Creating user name:	WinNT
#	Creation time:	15. 06. 2019 19:16

#	Modifying user name:	WinNT
#	Modification time:	15. 06. 2019 19:16

#	Program:	/corina/corina34_cracker 3.40 0067  02.08.2006

@<TRIPOS>MOLECULE
ASD01350023
  70   74    0    0    0
SMALL
NO_CHARGES


@<TRIPOS>ATOM
   1 C1             1.1387    -2.2481     2.6147 C.3     
   2 C2             2.4827    -1.5887     2.7985 C.3     
   3 C3             2.4918    -0.1257     2.5185 C.ar    
   4 C4             1.2882     0.5681     2.4444 C.ar    
   5 N5             0.0816    -0.1274     2.5313 N.3     
   6 C6            -0.4841    -0.2839     1.1949 C.3     
   7 C7            -0.0735    -1.5638     0.5431 C.ar    
   8 C8             0.7518    -2.4828     1.1873 C.ar    
   9 C9             3.6827     0.5537     2.3412 C.ar    
  10 C10            3.6800     1.9190     2.1274 C.ar    
  11 C11            2.4856     2.6156     2.0932 C.ar    
  12 C12            1.2901     1.9429     2.2515 C.ar    
  13 C13           -0.5160    -1.8460    -0.7400 C.ar    
  14 C14           -0.1127    -2.9945    -1.3884 C.ar    
  15 C15            0.7472    -3.8778    -0.7621 C.ar    
  16 C16            1.1778    -3.6162     0.5239 C.ar    
  17 C17           -0.8599     0.5614     3.4241 C.3     
  18 C18           -0.3127     0.5450     4.8528 C.3     
  19 C19           -1.2564     1.3264     5.7693 C.3     
  20 N20           -0.7310     1.3107     7.1411 N.3     
  21 C21           -1.4747     2.2409     8.0001 C.3     
  22 C22           -0.8111     2.3068     9.3775 C.3     
  23 C23           -0.7979     0.9078     9.9997 C.3     
  24 C24           -0.0595    -0.0520     9.0627 C.3     
  25 C25           -0.7449    -0.0495     7.6944 C.3     
  26 C26           -0.0921     0.9550    11.3304 C.ar    
  27 C27           -2.2354     0.4232    10.1988 C.3     
  28 C28            0.0099    -0.1892    12.0994 C.ar    
  29 C29            0.6571    -0.1465    13.3199 C.ar    
  30 C30            1.2028     1.0418    13.7720 C.ar    
  31 C31            1.1004     2.1866    13.0019 C.ar    
  32 C32            0.4579     2.1413    11.7790 C.ar    
  33 Cl33           2.0153     1.0964    15.3052 Cl      
  34 N34           -2.9089     1.2797    11.1841 N.3     
  35 H35            1.1512    -3.2077     3.1315 H       
  36 H36            0.3792    -1.6195     3.0796 H       
  37 H37            2.8078    -1.7463     3.8269 H       
  38 H38            3.1993    -2.0726     2.1348 H       
  39 H39           -1.5714    -0.2586     1.2676 H       
  40 H40           -0.1552     0.5491     0.5735 H       
  41 H41            4.6186     0.0156     2.3703 H       
  42 H42            4.6135     2.4437     1.9868 H       
  43 H43            2.4880     3.6850     1.9422 H       
  44 H44            0.3570     2.4861     2.2259 H       
  45 H45           -1.1844    -1.1588    -1.2374 H       
  46 H46           -0.4692    -3.2044    -2.3860 H       
  47 H47            1.0810    -4.7671    -1.2761 H       
  48 H48            1.8517    -4.3032     1.0141 H       
  49 H49           -0.9847     1.5929     3.0946 H       
  50 H50           -1.8235     0.0526     3.3982 H       
  51 H51           -0.2379    -0.4850     5.2014 H       
  52 H52            0.6745     1.0068     4.8691 H       
  53 H53           -1.3312     2.3564     5.4207 H       
  54 H54           -2.2436     0.8646     5.7530 H       
  55 H55           -1.4729     3.2329     7.5483 H       
  56 H56           -2.5021     1.8931     8.1082 H       
  57 H57            0.2120     2.6677     9.2717 H       
  58 H58           -1.3724     2.9854    10.0198 H       
  59 H59            0.9754     0.2717     8.9519 H       
  60 H60           -0.0838    -1.0587     9.4800 H       
  61 H61           -1.7756    -0.3866     7.8039 H       
  62 H62           -0.2129    -0.7211     7.0205 H       
  63 H63           -2.7698     0.4713     9.2500 H       
  64 H64           -2.2254    -0.6058    10.5584 H       
  65 H65           -0.4165    -1.1166    11.7466 H       
  66 H66            0.7364    -1.0404    13.9208 H       
  67 H67            1.5262     3.1145    13.3543 H       
  68 H68            0.3778     3.0349    11.1778 H       
  69 H69           -3.0094     2.2213    10.8358 H       
  70 H70           -3.8034     0.8940    11.4471 H       
@<TRIPOS>BOND
   1    1    2 1
   2    1    8 1
   3    1   35 1
   4    1   36 1
   5    2    3 1
   6    2   37 1
   7    2   38 1
   8    3    4 ar
   9    3    9 ar
  10    4    5 1
  11    4   12 ar
  12    5    6 1
  13    5   17 1
  14    6    7 1
  15    6   39 1
  16    6   40 1
  17    7    8 ar
  18    7   13 ar
  19    8   16 ar
  20    9   10 ar
  21    9   41 1
  22   10   11 ar
  23   10   42 1
  24   11   12 ar
  25   11   43 1
  26   12   44 1
  27   13   14 ar
  28   13   45 1
  29   14   15 ar
  30   14   46 1
  31   15   16 ar
  32   15   47 1
  33   16   48 1
  34   17   18 1
  35   17   49 1
  36   17   50 1
  37   18   19 1
  38   18   51 1
  39   18   52 1
  40   19   20 1
  41   19   53 1
  42   19   54 1
  43   20   21 1
  44   20   25 1
  45   21   22 1
  46   21   55 1
  47   21   56 1
  48   22   23 1
  49   22   57 1
  50   22   58 1
  51   23   24 1
  52   23   26 1
  53   23   27 1
  54   24   25 1
  55   24   59 1
  56   24   60 1
  57   25   61 1
  58   25   62 1
  59   26   28 ar
  60   26   32 ar
  61   27   34 1
  62   27   63 1
  63   27   64 1
  64   28   29 ar
  65   28   65 1
  66   29   30 ar
  67   29   66 1
  68   30   31 ar
  69   30   33 1
  70   31   32 ar
  71   31   67 1
  72   32   68 1
  73   34   69 1
  74   34   70 1

#	End of record

