#	Name: ASD01914399
#	Creating user name:	WinNT
#	Creation time:	15. 06. 2019 20:03

#	Modifying user name:	WinNT
#	Modification time:	15. 06. 2019 20:03

#	Program:	/corina/corina34_cracker 3.40 0067  02.08.2006

@<TRIPOS>MOLECULE
ASD01914399
  37   39    0    0    0
SMALL
NO_CHARGES


@<TRIPOS>ATOM
   1 C1            -0.0167     1.3786     0.0096 C.ar    
   2 C2             0.0021    -0.0041     0.0020 C.ar    
   3 C3             1.2073    -0.6819    -0.0126 C.ar    
   4 C4             2.3963     0.0209    -0.0197 C.ar    
   5 C5             2.3807     1.4090    -0.0126 C.ar    
   6 C6             1.1692     2.0867     0.0021 C.ar    
   7 N7             3.5860     2.1251    -0.0193 N.pl3   
   8 C8             4.6535     1.9259     0.8150 C.2     
   9 C9             5.6005     2.8332     0.4609 C.2     
  10 C10            6.9347     2.9936     1.0897 C.ar    
  11 C11            7.3543     2.1027     2.0754 C.ar    
  12 C12            8.5964     2.2554     2.6573 C.ar    
  13 C13            9.4255     3.2926     2.2627 C.ar    
  14 C14            9.0123     4.1809     1.2829 C.ar    
  15 C15            7.7744     4.0326     0.6920 C.ar    
  16 N16            5.1130     3.5619    -0.5638 N.2     
  17 C17            3.9145     3.1421    -0.8589 C.2     
  18 C18            3.0355     3.6964    -1.9503 C.3     
  19 C19            2.1929     4.8163    -1.3964 C.2     
  20 O20            2.2965     5.1348    -0.2241 O.co2   
  21 O21            1.4075     5.4039    -2.1206 O.co2   
  22 F22           10.6404     3.4386     2.8353 F       
  23 C23            9.9188     5.3072     0.8578 C.3     
  24 H24           -0.9595     1.9052     0.0169 H       
  25 H25           -0.9264    -0.5557     0.0079 H       
  26 H26            1.2188    -1.7618    -0.0182 H       
  27 H27            3.3373    -0.5090    -0.0305 H       
  28 H28            1.1539     3.1666     0.0073 H       
  29 H29            4.7279     1.1902     1.6022 H       
  30 H30            6.7084     1.2940     2.3839 H       
  31 H31            8.9223     1.5655     3.4216 H       
  32 H32            7.4532     4.7255    -0.0716 H       
  33 H33            3.6580     4.0765    -2.7603 H       
  34 H34            2.3867     2.9073    -2.3302 H       
  35 H35           10.5498     4.9745     0.0336 H       
  36 H36            9.3164     6.1561     0.5345 H       
  37 H37           10.5459     5.6057     1.6979 H       
@<TRIPOS>BOND
   1    1    2 ar
   2    1    6 ar
   3    1   24 1
   4    2    3 ar
   5    2   25 1
   6    3    4 ar
   7    3   26 1
   8    4    5 ar
   9    4   27 1
  10    5    6 ar
  11    5    7 1
  12    6   28 1
  13    7    8 1
  14    7   17 1
  15    8    9 2
  16    8   29 1
  17    9   10 1
  18    9   16 1
  19   10   11 ar
  20   10   15 ar
  21   11   12 ar
  22   11   30 1
  23   12   13 ar
  24   12   31 1
  25   13   14 ar
  26   13   22 1
  27   14   15 ar
  28   14   23 1
  29   15   32 1
  30   16   17 2
  31   17   18 1
  32   18   19 1
  33   18   33 1
  34   18   34 1
  35   19   20 ar
  36   19   21 ar
  37   23   35 1
  38   23   36 1
  39   23   37 1

#	End of record

