#	Name: ASD00310132
#	Creating user name:	WinNT
#	Creation time:	15. 06. 2019 18:33

#	Modifying user name:	WinNT
#	Modification time:	15. 06. 2019 18:33

#	Program:	/corina/corina34_cracker 3.40 0067  02.08.2006

@<TRIPOS>MOLECULE
ASD00310132
  21   22    0    0    0
SMALL
NO_CHARGES


@<TRIPOS>ATOM
   1 O1             0.2520     1.4960    -0.0935 O.3     
   2 C2            -0.1520     0.1339     0.0975 C.3     
   3 C3             1.2154    -0.1384     0.7363 C.3     
   4 C4             1.6090     1.0394    -0.1637 C.3     
   5 O5             1.2820     0.1361     2.1371 O.3     
   6 C6             2.2458    -0.5077     2.8469 C.ar    
   7 C7             2.2920    -0.3826     4.2277 C.ar    
   8 C8             3.2725    -1.0378     4.9473 C.ar    
   9 C9             4.2082    -1.8179     4.2917 C.ar    
  10 C10            4.1639    -1.9440     2.9148 C.ar    
  11 C11            3.1814    -1.2954     2.1921 C.ar    
  12 Br12           5.5500    -2.7126     5.2792 Br      
  13 H13           -0.9842     0.0228     0.7926 H       
  14 H14           -0.3087    -0.4060    -0.8363 H       
  15 H15            1.6642    -1.0917     0.4572 H       
  16 H16            1.9122     0.7359    -1.1657 H       
  17 H17            2.3198     1.7216     0.3026 H       
  18 H18            1.5621     0.2268     4.7398 H       
  19 H19            3.3087    -0.9407     6.0223 H       
  20 H20            4.8954    -2.5535     2.4049 H       
  21 H21            3.1445    -1.3977     1.1175 H       
@<TRIPOS>BOND
   1    1    2 1
   2    1    4 1
   3    2    3 1
   4    2   13 1
   5    2   14 1
   6    3    4 1
   7    3    5 1
   8    3   15 1
   9    4   16 1
  10    4   17 1
  11    5    6 1
  12    6    7 ar
  13    6   11 ar
  14    7    8 ar
  15    7   18 1
  16    8    9 ar
  17    8   19 1
  18    9   10 ar
  19    9   12 1
  20   10   11 ar
  21   10   20 1
  22   11   21 1

#	End of record

