#	Name: ASD04550038
#	Creating user name:	WinNT
#	Creation time:	15. 06. 2019 20:49

#	Modifying user name:	WinNT
#	Modification time:	15. 06. 2019 20:49

#	Program:	/corina/corina34_cracker 3.40 0067  02.08.2006

@<TRIPOS>MOLECULE
ASD04550038
  34   35    0    0    0
SMALL
NO_CHARGES


@<TRIPOS>ATOM
   1 C1            -0.0167     1.3779     0.0096 C.ar    
   2 C2             0.0021    -0.0041     0.0020 C.ar    
   3 C3            -1.1857    -0.7116     0.0095 C.ar    
   4 C4            -2.3919    -0.0369     0.0251 C.ar    
   5 C5            -2.4106     1.3455     0.0336 C.ar    
   6 C6            -1.2232     2.0528     0.0305 C.ar    
   7 C7            -3.7258     2.0812     0.0501 C.3     
   8 C8            -4.5344     1.7082    -1.1941 C.3     
   9 S9             1.4971     2.2796     0.0000 S.o2    
  10 C10            1.9291     2.5555    -1.6858 C.ar    
  11 O11            1.2076     3.5557     0.5541 O.2     
  12 C12            1.4861     3.6923    -2.3357 C.ar    
  13 C13            1.8250     3.9087    -3.6582 C.ar    
  14 C14            2.6073     2.9887    -4.3308 C.ar    
  15 C15            3.0512     1.8524    -3.6806 C.ar    
  16 C16            2.7159     1.6381    -2.3568 C.ar    
  17 O17            2.4865     1.4083     0.5303 O.2     
  18 C18           -4.4997     1.6990     1.2854 C.2     
  19 O19           -4.0314     0.9101     2.0717 O.2     
  20 O20           -5.7093     2.2349     1.5121 O.3     
  21 H21            0.9446    -0.5313    -0.0101 H       
  22 H22           -1.1711    -1.7915     0.0029 H       
  23 H23           -3.3198    -0.5895     0.0302 H       
  24 H24           -1.2378     3.1327     0.0372 H       
  25 H25           -3.5412     3.1554     0.0549 H       
  26 H26           -5.4856     2.2403    -1.1822 H       
  27 H27           -3.9746     1.9847    -2.0876 H       
  28 H28           -4.7190     0.6340    -1.1989 H       
  29 H29            0.8748     4.4111    -1.8102 H       
  30 H30            1.4782     4.7965    -4.1662 H       
  31 H31            2.8715     3.1574    -5.3643 H       
  32 H32            3.6621     1.1334    -4.2061 H       
  33 H33            3.0626     0.7503    -1.8488 H       
  34 H34           -6.1676     1.9592     2.3178 H       
@<TRIPOS>BOND
   1    1    2 ar
   2    1    9 1
   3    1    6 ar
   4    2    3 ar
   5    2   21 1
   6    3    4 ar
   7    3   22 1
   8    4    5 ar
   9    4   23 1
  10    5    6 ar
  11    5    7 1
  12    6   24 1
  13    7    8 1
  14    7   18 1
  15    7   25 1
  16    8   26 1
  17    8   27 1
  18    8   28 1
  19    9   10 1
  20    9   11 2
  21    9   17 2
  22   10   12 ar
  23   10   16 ar
  24   12   13 ar
  25   12   29 1
  26   13   14 ar
  27   13   30 1
  28   14   15 ar
  29   14   31 1
  30   15   16 ar
  31   15   32 1
  32   16   33 1
  33   18   19 2
  34   18   20 1
  35   20   34 1

#	End of record

