#	Name: ASD01850001
#	Creating user name:	WinNT
#	Creation time:	15. 06. 2019 19:38

#	Modifying user name:	WinNT
#	Modification time:	15. 06. 2019 19:38

#	Program:	/corina/corina34_cracker 3.40 0067  02.08.2006

@<TRIPOS>MOLECULE
ASD01850001
  45   49    0    0    0
SMALL
NO_CHARGES


@<TRIPOS>ATOM
   1 F1            -0.0023    -0.0041     0.0597 F       
   2 C2            -0.0196     1.3467     0.0532 C.ar    
   3 C3             1.1535     2.0537     0.2693 C.ar    
   4 C4             1.1415     3.4319     0.2633 C.ar    
   5 C5            -0.0549     4.1163     0.0390 C.ar    
   6 C6            -1.2335     3.3994    -0.1781 C.ar    
   7 C7            -1.2093     2.0212    -0.1752 C.ar    
   8 C8            -0.0738     5.5934     0.0319 C.2     
   9 O9             0.9683     6.2151     0.1049 O.2     
  10 N10           -1.2465     6.2519    -0.0556 N.am    
  11 C11           -2.5824     5.6551    -0.2671 C.3     
  12 C12           -3.5614     6.8510    -0.3506 C.3     
  13 N13           -2.6861     7.9720    -0.7333 N.am    
  14 C14           -1.4492     7.7025     0.0468 C.3     
  15 C15           -1.6093     8.1335     1.4820 C.ar    
  16 C16           -0.9231     7.4717     2.4830 C.ar    
  17 C17           -1.0699     7.8669     3.7995 C.ar    
  18 C18           -1.9026     8.9243     4.1149 C.ar    
  19 C19           -2.5882     9.5866     3.1138 C.ar    
  20 C20           -2.4380     9.1942     1.7969 C.ar    
  21 C21           -0.3667     8.4769    -0.6507 C.ar    
  22 C22            1.0046     8.4968    -0.5501 C.ar    
  23 C23            1.7463     9.3538    -1.3460 C.ar    
  24 C24            1.1123    10.1924    -2.2453 C.ar    
  25 C25           -0.2630    10.1780    -2.3587 C.ar    
  26 C26           -1.0169     9.3159    -1.5646 C.ar    
  27 C27           -2.4775     9.0767    -1.4511 C.2     
  28 O28           -3.3436     9.7777    -1.9367 O.2     
  29 H29            2.0782     1.5234     0.4431 H       
  30 H30            2.0558     3.9816     0.4321 H       
  31 H31           -2.1615     3.9238    -0.3517 H       
  32 H32           -2.1202     1.4658    -0.3430 H       
  33 H33           -2.5992     5.0884    -1.1980 H       
  34 H34           -2.8448     5.0109     0.5721 H       
  35 H35           -4.3192     6.6759    -1.1143 H       
  36 H36           -4.0251     7.0376     0.6181 H       
  37 H37           -0.2725     6.6456     2.2366 H       
  38 H38           -0.5344     7.3494     4.5816 H       
  39 H39           -2.0179     9.2326     5.1435 H       
  40 H40           -3.2390    10.4125     3.3603 H       
  41 H41           -2.9735     9.7117     1.0147 H       
  42 H42            1.5037     7.8437     0.1505 H       
  43 H43            2.8231     9.3676    -1.2642 H       
  44 H44            1.6959    10.8612    -2.8605 H       
  45 H45           -0.7544    10.8342    -3.0618 H       
@<TRIPOS>BOND
   1    1    2 1
   2    2    3 ar
   3    2    7 ar
   4    3    4 ar
   5    3   29 1
   6    4    5 ar
   7    4   30 1
   8    5    6 ar
   9    5    8 1
  10    6    7 ar
  11    6   31 1
  12    7   32 1
  13    8    9 2
  14    8   10 am
  15   10   11 1
  16   10   14 1
  17   11   12 1
  18   11   33 1
  19   11   34 1
  20   12   13 1
  21   12   35 1
  22   12   36 1
  23   13   14 1
  24   13   27 am
  25   14   15 1
  26   14   21 1
  27   15   16 ar
  28   15   20 ar
  29   16   17 ar
  30   16   37 1
  31   17   18 ar
  32   17   38 1
  33   18   19 ar
  34   18   39 1
  35   19   20 ar
  36   19   40 1
  37   20   41 1
  38   21   22 ar
  39   21   26 ar
  40   22   23 ar
  41   22   42 1
  42   23   24 ar
  43   23   43 1
  44   24   25 ar
  45   24   44 1
  46   25   26 ar
  47   25   45 1
  48   26   27 1
  49   27   28 2

#	End of record

