#	Name: ASD03520004
#	Creating user name:	WinNT
#	Creation time:	15. 06. 2019 20:42

#	Modifying user name:	WinNT
#	Modification time:	15. 06. 2019 20:42

#	Program:	/corina/corina34_cracker 3.40 0067  02.08.2006

@<TRIPOS>MOLECULE
ASD03520004
  54   57    0    0    0
SMALL
NO_CHARGES


@<TRIPOS>ATOM
   1 C1            -1.1017     1.3879    -0.1704 C.3     
   2 C2             0.2832     1.9155    -0.5334 C.3     
   3 C3             1.3270     1.5544     0.5354 C.3     
   4 C4             0.8366     2.1111     1.8596 C.3     
   5 C5            -0.4824     1.3697     2.2072 C.3     
   6 C6            -1.5370     1.8506     1.2291 C.3     
   7 C7             0.7173     1.3151    -1.8742 C.3     
   8 C8             2.1091     1.7715    -2.1975 C.2     
   9 C9             3.1834     1.5872    -1.1422 C.3     
  10 C10            2.6716     2.1872     0.1711 C.3     
  11 C11           -0.2809     1.6241    -2.9368 C.2     
  12 C12            0.0205     2.1895    -4.0952 C.2     
  13 C13            1.4152     2.5602    -4.3890 C.2     
  14 C14            2.4347     2.3343    -3.3529 C.2     
  15 C15            1.7048     1.7881     3.0808 C.3     
  16 C16            0.7102     1.9357     4.2644 C.3     
  17 C17           -0.7058     1.7189     3.6749 C.3     
  18 C18           -1.3976     0.5824     4.3826 C.2     
  19 O19           -1.4775     2.9164     3.7871 O.3     
  20 O20           -0.7478    -0.2423     4.9792 O.2     
  21 C21           -2.9003     0.4751     4.3458 C.3     
  22 O22           -3.3138    -0.6766     5.0837 O.3     
  23 C23           -0.2842    -0.1397     2.0549 C.3     
  24 O24           -1.0796    -0.0405    -0.2031 O.3     
  25 C25            0.7492    -0.2062    -1.7147 C.3     
  26 O26            1.7175     3.0421    -5.4647 O.2     
  27 H27           -1.8231     1.7489    -0.9034 H       
  28 H28            0.2379     2.9994    -0.6392 H       
  29 H29            1.4227     0.4708     0.6048 H       
  30 H30            0.6607     3.1837     1.7779 H       
  31 H31           -1.6013     2.9383     1.2573 H       
  32 H32           -2.5035     1.4139     1.4807 H       
  33 H33            3.3873     0.5251    -1.0065 H       
  34 H34            4.0941     2.1006    -1.4509 H       
  35 H35            2.5462     3.2636     0.0537 H       
  36 H36            3.3922     1.9907     0.9650 H       
  37 H37           -1.3141     1.3707    -2.7505 H       
  38 H38           -0.7545     2.3782    -4.8233 H       
  39 H39            3.4576     2.6292    -3.5352 H       
  40 H40            2.0872     0.7690     3.0233 H       
  41 H41            2.5223     2.5032     3.1727 H       
  42 H42            0.9184     1.1825     5.0242 H       
  43 H43            0.7871     2.9339     4.6954 H       
  44 H44           -1.6516     3.1881     4.6986 H       
  45 H45           -3.3393     1.3683     4.7903 H       
  46 H46           -3.2328     0.3828     3.3119 H       
  47 H47           -4.2716    -0.8086     5.1027 H       
  48 H48            0.3515    -0.5059     2.8610 H       
  49 H49           -1.2519    -0.6395     2.0997 H       
  50 H50            0.1888    -0.3491     1.0955 H       
  51 H51           -1.9264    -0.4522     0.0172 H       
  52 H52           -0.2640    -0.6008    -1.7901 H       
  53 H53            1.3678    -0.6409    -2.4999 H       
  54 H54            1.1667    -0.4607    -0.7406 H       
@<TRIPOS>BOND
   1    1   24 1
   2    1    2 1
   3    1    6 1
   4    1   27 1
   5    2    3 1
   6    2    7 1
   7    2   28 1
   8    3    4 1
   9    3   10 1
  10    3   29 1
  11    4    5 1
  12    4   15 1
  13    4   30 1
  14    5    6 1
  15    5   17 1
  16    5   23 1
  17    6   31 1
  18    6   32 1
  19    7    8 1
  20    7   11 1
  21    7   25 1
  22    8    9 1
  23    8   14 2
  24    9   10 1
  25    9   33 1
  26    9   34 1
  27   10   35 1
  28   10   36 1
  29   11   12 2
  30   11   37 1
  31   12   13 1
  32   12   38 1
  33   13   14 1
  34   13   26 2
  35   14   39 1
  36   15   16 1
  37   15   40 1
  38   15   41 1
  39   16   17 1
  40   16   42 1
  41   16   43 1
  42   17   18 1
  43   17   19 1
  44   18   20 2
  45   18   21 1
  46   19   44 1
  47   21   22 1
  48   21   45 1
  49   21   46 1
  50   22   47 1
  51   23   48 1
  52   23   49 1
  53   23   50 1
  54   24   51 1
  55   25   52 1
  56   25   53 1
  57   25   54 1

#	End of record

