#	Name: ASD07301349
#	Creating user name:	WinNT
#	Creation time:	15. 06. 2019 21:11

#	Modifying user name:	WinNT
#	Modification time:	15. 06. 2019 21:11

#	Program:	/corina/corina34_cracker 3.40 0067  02.08.2006

@<TRIPOS>MOLECULE
ASD07301349
  52   57    0    0    0
SMALL
NO_CHARGES


@<TRIPOS>ATOM
   1 C1             0.0125     1.4321    -0.0567 C.2     
   2 C2             0.0441    -0.0373    -0.1163 C.2     
   3 C3             1.3171    -0.6562    -0.1501 C.2     
   4 C4             2.4113     0.1453    -0.1252 C.2     
   5 N5             2.2833     1.4904    -0.0694 N.pl3   
   6 N6             1.1503     2.0889    -0.0379 N.2     
   7 O7            -0.9850    -0.6961    -0.1355 O.2     
   8 N8            -3.4275     2.6367     0.0000 N.pl3   
   9 N9            -2.4761     1.6096    -0.0439 N.2     
  10 C10           -1.2788     2.1585    -0.0245 C.2     
  11 C11           -1.4406     3.5576     0.0325 C.2     
  12 C12           -2.7648     3.8221     0.0465 C.2     
  13 C13           -4.8187     2.4711    -0.0086 C.ar    
  14 C14           -5.3673     1.1967    -0.0642 C.ar    
  15 C15           -6.7391     1.0368    -0.0721 C.ar    
  16 C16           -7.5661     2.1441    -0.0250 C.ar    
  17 C17           -7.0228     3.4145     0.0305 C.ar    
  18 C18           -5.6518     3.5808     0.0444 C.ar    
  19 C19            3.4461     2.2678    -0.0450 C.ar    
  20 C20            3.3601     3.6497    -0.1422 C.ar    
  21 C21            4.5161     4.4172    -0.1176 C.ar    
  22 C22            5.7558     3.7999     0.0042 C.ar    
  23 C23            5.8376     2.4245     0.1006 C.ar    
  24 C24            4.6881     1.6578     0.0822 C.ar    
  25 S25            4.4128     6.1718    -0.2412 S.3     
  26 C26            4.1781     6.5847     1.4556 C.2     
  27 N27            4.0180     5.7190     2.4260 N.2     
  28 C28            3.8647     6.3775     3.6043 C.ar    
  29 C29            3.9380     7.7522     3.3228 C.ar    
  30 N30            4.1418     7.8555     1.9567 N.pl3   
  31 C31            3.6659     5.9550     4.9209 C.ar    
  32 C32            3.5441     6.8872     5.9274 C.ar    
  33 C33            3.6168     8.2426     5.6439 C.ar    
  34 C34            3.8136     8.6763     4.3485 C.ar    
  35 H35            1.4138    -1.7310    -0.1939 H       
  36 H36            3.3966    -0.2962    -0.1498 H       
  37 H37           -0.6461     4.2887     0.0602 H       
  38 H38           -3.2170     4.8021     0.0869 H       
  39 H39           -4.7219     0.3315    -0.1017 H       
  40 H40           -7.1664     0.0458    -0.1153 H       
  41 H41           -8.6385     2.0164    -0.0320 H       
  42 H42           -7.6712     4.2774     0.0671 H       
  43 H43           -5.2280     4.5731     0.0919 H       
  44 H44            2.3957     4.1266    -0.2371 H       
  45 H45            6.6558     4.3965     0.0230 H       
  46 H46            6.8020     1.9474     0.1948 H       
  47 H47            4.7554     0.5829     0.1624 H       
  48 H48            4.2391     8.6768     1.4499 H       
  49 H49            3.6076     4.9010     5.1487 H       
  50 H50            3.3905     6.5601     6.9451 H       
  51 H51            3.5191     8.9636     6.4420 H       
  52 H52            3.8697     9.7334     4.1343 H       
@<TRIPOS>BOND
   1    1    2 1
   2    1    6 2
   3    1   10 1
   4    2    3 1
   5    2    7 2
   6    3    4 2
   7    3   35 1
   8    4    5 1
   9    4   36 1
  10    5    6 1
  11    5   19 1
  12    8    9 1
  13    8   12 1
  14    8   13 1
  15    9   10 2
  16   10   11 1
  17   11   12 2
  18   11   37 1
  19   12   38 1
  20   13   14 ar
  21   13   18 ar
  22   14   15 ar
  23   14   39 1
  24   15   16 ar
  25   15   40 1
  26   16   17 ar
  27   16   41 1
  28   17   18 ar
  29   17   42 1
  30   18   43 1
  31   19   20 ar
  32   19   24 ar
  33   20   21 ar
  34   20   44 1
  35   21   22 ar
  36   21   25 1
  37   22   23 ar
  38   22   45 1
  39   23   24 ar
  40   23   46 1
  41   24   47 1
  42   25   26 1
  43   26   27 2
  44   26   30 1
  45   27   28 1
  46   28   29 ar
  47   28   31 ar
  48   29   30 1
  49   29   34 ar
  50   30   48 1
  51   31   32 ar
  52   31   49 1
  53   32   33 ar
  54   32   50 1
  55   33   34 ar
  56   33   51 1
  57   34   52 1

#	End of record

