#	Name: ASD01912359
#	Creating user name:	WinNT
#	Creation time:	15. 06. 2019 19:59

#	Modifying user name:	WinNT
#	Modification time:	15. 06. 2019 19:59

#	Program:	/corina/corina34_cracker 3.40 0067  02.08.2006

@<TRIPOS>MOLECULE
ASD01912359
  43   45    0    0    0
SMALL
NO_CHARGES


@<TRIPOS>ATOM
   1 C1             0.0715     1.5064     0.9552 C.ar    
   2 C2             0.0912     0.1269     1.0561 C.ar    
   3 C3             1.3063    -0.5432     1.0130 C.ar    
   4 C4             2.4652     0.1979     0.8694 C.ar    
   5 C5             2.3731     1.5891     0.7731 C.ar    
   6 N6             1.1879     2.1913     0.8190 N.ar    
   7 C7             3.5630     2.3718     0.6240 C.1     
   8 C8             4.5385     3.0135     0.5018 C.1     
   9 C9             5.7284     3.7962     0.3527 C.2     
  10 N10            5.4055     7.5473    -1.0182 N.am    
  11 C11            6.7083     6.8770    -1.1189 C.3     
  12 C12            6.8912     5.9673     0.1026 C.3     
  13 C13            5.6460     5.1227     0.2605 C.2     
  14 C14            4.3048     5.8211     0.3117 C.3     
  15 C15            4.1868     6.7345    -0.9150 C.3     
  16 O16            2.8320     8.9456    -1.2490 O.3     
  17 C17            4.0212     9.5538    -1.0595 C.2     
  18 C18            3.7932    10.8924    -0.9164 C.2     
  19 C19            2.4064    11.0796    -1.0268 C.2     
  20 C20            1.8558     9.8624    -1.2299 C.2     
  21 C21            5.3297     8.8930    -1.0150 C.2     
  22 O22            6.3471     9.5596    -0.9751 O.2     
  23 N23            0.4117     9.5876    -1.4033 N.pl3   
  24 O24           -0.3910    10.5031    -1.3681 O.2     
  25 O25            0.0260     8.4460    -1.5811 O.2     
  26 C26           -1.2469     2.2354     0.9955 C.3     
  27 H27           -0.8309    -0.4241     1.1679 H       
  28 H28            1.3458    -1.6198     1.0903 H       
  29 H29            3.4274    -0.2913     0.8325 H       
  30 H30            6.6926     3.3111     0.3150 H       
  31 H31            6.7417     6.2780    -2.0289 H       
  32 H32            7.5025     7.6233    -1.1408 H       
  33 H33            7.7563     5.3213    -0.0472 H       
  34 H34            7.0374     6.5760     0.9949 H       
  35 H35            3.5048     5.0810     0.2964 H       
  36 H36            4.2362     6.4177     1.2214 H       
  37 H37            3.3208     7.3870    -0.8028 H       
  38 H38            4.0754     6.1273    -1.8134 H       
  39 H39            4.5358    11.6587    -0.7501 H       
  40 H40            1.8787    12.0196    -0.9614 H       
  41 H41           -1.4916     2.4870     2.0274 H       
  42 H42           -1.1748     3.1494     0.4059 H       
  43 H43           -2.0278     1.5970     0.5822 H       
@<TRIPOS>BOND
   1    1    2 ar
   2    1    6 ar
   3    1   26 1
   4    2    3 ar
   5    2   27 1
   6    3    4 ar
   7    3   28 1
   8    4    5 ar
   9    4   29 1
  10    5    6 ar
  11    5    7 1
  12    7    8 3
  13    8    9 1
  14    9   13 2
  15    9   30 1
  16   10   11 1
  17   10   15 1
  18   10   21 am
  19   11   12 1
  20   11   31 1
  21   11   32 1
  22   12   13 1
  23   12   33 1
  24   12   34 1
  25   13   14 1
  26   14   15 1
  27   14   35 1
  28   14   36 1
  29   15   37 1
  30   15   38 1
  31   16   17 1
  32   16   20 1
  33   17   18 2
  34   17   21 1
  35   18   19 1
  36   18   39 1
  37   19   20 2
  38   19   40 1
  39   20   23 1
  40   21   22 2
  41   23   24 2
  42   23   25 2
  43   26   41 1
  44   26   42 1
  45   26   43 1

#	End of record

