#	Name: ASD01520009
#	Creating user name:	WinNT
#	Creation time:	15. 06. 2019 19:21

#	Modifying user name:	WinNT
#	Modification time:	15. 06. 2019 19:21

#	Program:	/corina/corina34_cracker 3.40 0067  02.08.2006

@<TRIPOS>MOLECULE
ASD01520009
  54   53    0    0    0
SMALL
NO_CHARGES


@<TRIPOS>ATOM
   1 C1            -0.0187     1.5258     0.0104 C.3     
   2 C2             0.0021    -0.0041     0.0020 C.3     
   3 C3             0.7074    -0.4901    -1.2379 C.2     
   4 C4             1.7248    -1.3088    -1.1343 C.2     
   5 C5             2.4302    -1.7948    -2.3741 C.3     
   6 C6             3.9012    -1.4847    -2.2694 C.2     
   7 C7             4.7839    -2.4435    -2.4025 C.2     
   8 C8             6.2549    -2.1334    -2.2977 C.3     
   9 C9             6.8797    -3.0118    -1.2446 C.2     
  10 C10            7.9113    -3.7614    -1.5446 C.2     
  11 C11            8.5361    -4.6398    -0.4915 C.3     
  12 C12            8.5741    -6.0857    -0.9903 C.3     
  13 C13            9.2084    -6.9776     0.0789 C.3     
  14 C14            9.2464    -8.4235    -0.4199 C.3     
  15 C15            9.8807    -9.3153     0.6493 C.3     
  16 C16            9.9187   -10.7612     0.1505 C.3     
  17 C17           10.5531   -11.6530     1.2197 C.3     
  18 C18           10.5910   -13.0990     0.7210 C.3     
  19 O19           11.1835   -13.9319     1.7196 O.3     
  20 S20           11.2730   -15.3999     1.3279 S.o2    
  21 O21           11.5478   -16.1435     2.5475 O.co2   
  22 O22            9.9880   -15.7583     0.7479 O.co2   
  23 O23           12.3570   -15.5116     0.3643 O.co2   
  24 H24            1.0039     1.9031     0.0027 H       
  25 H25           -0.5459     1.8868    -0.8726 H       
  26 H26           -0.5289     1.8773     0.9072 H       
  27 H27            0.5293    -0.3651     0.8851 H       
  28 H28           -1.0205    -0.3814     0.0098 H       
  29 H29            0.3742    -0.1634    -2.2118 H       
  30 H30            2.0581    -1.6354    -0.1603 H       
  31 H31            2.2920    -2.8715    -2.4723 H       
  32 H32            2.0147    -1.2939    -3.2485 H       
  33 H33            4.2278    -0.4719    -2.0846 H       
  34 H34            4.4573    -3.4562    -2.5873 H       
  35 H35            6.7349    -2.3202    -3.2583 H       
  36 H36            6.3869    -1.0868    -2.0230 H       
  37 H37            6.4770    -3.0233    -0.2425 H       
  38 H38            8.3140    -3.7499    -2.5466 H       
  39 H39            9.5513    -4.2985    -0.2892 H       
  40 H40            7.9457    -4.5864     0.4232 H       
  41 H41            7.5589    -6.4271    -1.1926 H       
  42 H42            9.1644    -6.1391    -1.9050 H       
  43 H43           10.2236    -6.6362     0.2812 H       
  44 H44            8.6181    -6.9241     0.9937 H       
  45 H45            8.2312    -8.7648    -0.6222 H       
  46 H46            9.8367    -8.4769    -1.3346 H       
  47 H47           10.8959    -8.9740     0.8516 H       
  48 H48            9.2904    -9.2619     1.5641 H       
  49 H49            8.9035   -11.1025    -0.0518 H       
  50 H50           10.5091   -10.8146    -0.7642 H       
  51 H51           11.5683   -11.3117     1.4221 H       
  52 H52            9.9627   -11.5996     2.1345 H       
  53 H53            9.5758   -13.4403     0.5186 H       
  54 H54           11.1814   -13.1524    -0.1938 H       
@<TRIPOS>BOND
   1    1    2 1
   2    1   24 1
   3    1   25 1
   4    1   26 1
   5    2    3 1
   6    2   27 1
   7    2   28 1
   8    3    4 2
   9    3   29 1
  10    4    5 1
  11    4   30 1
  12    5    6 1
  13    5   31 1
  14    5   32 1
  15    6    7 2
  16    6   33 1
  17    7    8 1
  18    7   34 1
  19    8    9 1
  20    8   35 1
  21    8   36 1
  22    9   10 2
  23    9   37 1
  24   10   11 1
  25   10   38 1
  26   11   12 1
  27   11   39 1
  28   11   40 1
  29   12   13 1
  30   12   41 1
  31   12   42 1
  32   13   14 1
  33   13   43 1
  34   13   44 1
  35   14   15 1
  36   14   45 1
  37   14   46 1
  38   15   16 1
  39   15   47 1
  40   15   48 1
  41   16   17 1
  42   16   49 1
  43   16   50 1
  44   17   18 1
  45   17   51 1
  46   17   52 1
  47   18   19 1
  48   18   53 1
  49   18   54 1
  50   19   20 1
  51   20   21 ar
  52   20   22 ar
  53   20   23 ar

#	End of record

