#	Name: ASD05430403
#	Creating user name:	WinNT
#	Creation time:	15. 06. 2019 21:00

#	Modifying user name:	WinNT
#	Modification time:	15. 06. 2019 21:00

#	Program:	/corina/corina34_cracker 3.40 0067  02.08.2006

@<TRIPOS>MOLECULE
ASD05430403
  67   71    0    0    0
SMALL
NO_CHARGES


@<TRIPOS>ATOM
   1 C1            -0.0750     1.5798    -0.4099 C.ar    
   2 C2            -0.0013     0.2875     0.1110 C.ar    
   3 C3            -1.1599    -0.3803     0.4896 C.ar    
   4 C4            -2.3866     0.2298     0.3522 C.ar    
   5 C5            -2.4688     1.5266    -0.1698 C.ar    
   6 C6            -1.3011     2.2010    -0.5457 C.ar    
   7 C7            -4.9104     1.4897    -0.0556 C.2     
   8 C8            -3.7765     2.1794    -0.3178 C.2     
   9 C9            -6.1625     2.1484    -0.0869 C.2     
  10 O10            1.0607     2.2298    -0.7787 O.3     
  11 C11            0.9110     3.5502    -1.3042 C.3     
  12 C12            1.7198    -0.9595     1.3777 C.2     
  13 N13            1.2428    -0.3382     0.2522 N.pl3   
  14 C14            2.9484    -1.4213     1.0773 C.2     
  15 N15            3.2194    -1.0941    -0.1951 N.2     
  16 C16            2.2059    -0.4452    -0.7002 C.2     
  17 C17            3.8612    -2.1756     2.0094 C.3     
  18 N18           -6.2072     3.4593     0.0742 N.2     
  19 N19           -7.3109     1.4074    -0.2910 N.pl3   
  20 C20           -8.5868     1.9900     0.0919 C.3     
  21 C21           -8.6315     3.4589    -0.3549 C.3     
  22 C22           -7.3396     4.1419    -0.0025 C.2     
  23 C23           -7.1395     0.0621    -0.8323 C.3     
  24 C24           -8.3877    -0.4094    -1.5715 C.3     
  25 C25           -9.5882    -0.2127    -0.6363 C.3     
  26 C26           -9.8101     1.2850    -0.4647 C.3     
  27 C27           -8.6864     1.9562     1.5953 C.ar    
  28 C28           -9.8121     2.4545     2.2243 C.ar    
  29 C29           -9.9047     2.4236     3.6028 C.ar    
  30 C30           -8.8695     1.8933     4.3540 C.ar    
  31 C31           -7.7426     1.3945     3.7229 C.ar    
  32 C32           -7.6545     1.4216     2.3440 C.ar    
  33 F33           -8.9588     1.8630     5.7017 F       
  34 O34           -7.3347     5.3371     0.2193 O.2     
  35 C35           -5.9551     0.0606    -1.8009 C.3     
  36 C36           -6.1261     1.1913    -2.8174 C.3     
  37 H37           -1.0979    -1.3805     0.8924 H       
  38 H38           -3.2853    -0.2919     0.6466 H       
  39 H39           -1.3595     3.2014    -0.9485 H       
  40 H40           -4.8601     0.4364     0.1777 H       
  41 H41           -3.8327     3.2100    -0.6360 H       
  42 H42            0.2891     3.5169    -2.1987 H       
  43 H43            0.4385     4.1873    -0.5567 H       
  44 H44            1.8913     3.9535    -1.5581 H       
  45 H45            1.2098    -1.0558     2.3249 H       
  46 H46            2.1435    -0.0579    -1.7064 H       
  47 H47            3.6705    -3.2449     1.9183 H       
  48 H48            4.8990    -1.9681     1.7484 H       
  49 H49            3.6745    -1.8593     3.0356 H       
  50 H50           -8.7787     3.5049    -1.4339 H       
  51 H51           -9.4585     3.9642     0.1441 H       
  52 H52           -6.9291    -0.6266    -0.0140 H       
  53 H53           -8.5251     0.1804    -2.4777 H       
  54 H54           -8.2886    -1.4642    -1.8280 H       
  55 H55          -10.4756    -0.6689    -1.0749 H       
  56 H56           -9.3794    -0.6676     0.3320 H       
  57 H57          -10.6480     1.4423     0.2145 H       
  58 H58          -10.0572     1.7186    -1.4337 H       
  59 H59          -10.6193     2.8684     1.6382 H       
  60 H60          -10.7841     2.8133     4.0940 H       
  61 H61           -6.9345     0.9806     4.3078 H       
  62 H62           -6.7755     1.0326     1.8515 H       
  63 H63           -5.0301     0.2096    -1.2439 H       
  64 H64           -5.9145    -0.8949    -2.3237 H       
  65 H65           -5.3310     1.1349    -3.5608 H       
  66 H66           -7.0928     1.0928    -3.3112 H       
  67 H67           -6.0764     2.1517    -2.3043 H       
@<TRIPOS>BOND
   1    1    2 ar
   2    1   10 1
   3    1    6 ar
   4    2    3 ar
   5    2   13 1
   6    3    4 ar
   7    3   37 1
   8    4    5 ar
   9    4   38 1
  10    5    6 ar
  11    5    8 1
  12    6   39 1
  13    7    8 2
  14    7    9 1
  15    7   40 1
  16    8   41 1
  17    9   18 2
  18    9   19 1
  19   10   11 1
  20   11   42 1
  21   11   43 1
  22   11   44 1
  23   12   13 1
  24   12   14 2
  25   12   45 1
  26   13   16 1
  27   14   15 1
  28   14   17 1
  29   15   16 2
  30   16   46 1
  31   17   47 1
  32   17   48 1
  33   17   49 1
  34   18   22 1
  35   19   20 1
  36   19   23 1
  37   20   21 1
  38   20   27 1
  39   20   26 1
  40   21   22 1
  41   21   50 1
  42   21   51 1
  43   22   34 2
  44   23   24 1
  45   23   35 1
  46   23   52 1
  47   24   25 1
  48   24   53 1
  49   24   54 1
  50   25   26 1
  51   25   55 1
  52   25   56 1
  53   26   57 1
  54   26   58 1
  55   27   28 ar
  56   27   32 ar
  57   28   29 ar
  58   28   59 1
  59   29   30 ar
  60   29   60 1
  61   30   31 ar
  62   30   33 1
  63   31   32 ar
  64   31   61 1
  65   32   62 1
  66   35   36 1
  67   35   63 1
  68   35   64 1
  69   36   65 1
  70   36   66 1
  71   36   67 1

#	End of record

