#	Name: ASD03240411
#	Creating user name:	WinNT
#	Creation time:	15. 06. 2019 20:34

#	Modifying user name:	WinNT
#	Modification time:	15. 06. 2019 20:34

#	Program:	/corina/corina34_cracker 3.40 0067  02.08.2006

@<TRIPOS>MOLECULE
ASD03240411
  37   39    0    0    0
SMALL
NO_CHARGES


@<TRIPOS>ATOM
   1 C1            -0.0320     1.4151     0.1270 C.ar    
   2 C2            -1.2203     2.1212     0.1479 C.ar    
   3 C3             1.0904     4.6090     0.4195 C.ar    
   4 C4             1.0223     3.5559    -0.4746 C.ar    
   5 C5             1.2782     2.1491     0.0014 C.3     
   6 C6             0.8569     5.8994    -0.0112 C.ar    
   7 C7             0.5523     6.1401    -1.3490 C.ar    
   8 C8             0.4845     5.0758    -2.2451 C.ar    
   9 C9             0.7198     3.7893    -1.8039 C.ar    
  10 C10            0.2997     7.5260    -1.8178 C.2     
  11 C11           -2.4222     1.4486     0.2630 C.ar    
  12 C12           -2.4359     0.0684     0.3573 C.ar    
  13 C13           -1.2464    -0.6377     0.3363 C.ar    
  14 C14           -0.0447     0.0364     0.2269 C.ar    
  15 C15           -0.0071     7.9025    -3.0928 C.2     
  16 N16           -0.1586     9.2422    -3.0973 N.pl3   
  17 N17            0.0586     9.7115    -1.7961 N.2     
  18 C18            0.3273     8.6905    -1.0260 C.2     
  19 Cl19          -3.9452    -0.7771     0.5025 Cl      
  20 C20            1.9724     2.1901     1.3642 C.3     
  21 N21            3.2496     2.9056     1.2418 N.3     
  22 F22            2.0973     1.4870    -0.9194 F       
  23 H23           -1.2094     3.1987     0.0746 H       
  24 H24            1.3222     4.4208     1.4574 H       
  25 H25            0.9100     6.7209     0.6879 H       
  26 H26            0.2488     5.2570    -3.2834 H       
  27 H27            0.6679     2.9634    -2.4980 H       
  28 H28           -3.3505     2.0004     0.2797 H       
  29 H29           -1.2565    -1.7152     0.4099 H       
  30 H30            0.8839    -0.5147     0.2105 H       
  31 H31           -0.1099     7.2462    -3.9443 H       
  32 H32           -0.3795     9.7870    -3.8688 H       
  33 H33            0.5404     8.7330     0.0319 H       
  34 H34            1.3343     2.7060     2.0817 H       
  35 H35            2.1575     1.1726     1.7085 H       
  36 H36            3.7277     2.9463     2.1294 H       
  37 H37            3.8338     2.4842     0.5353 H       
@<TRIPOS>BOND
   1    1    2 ar
   2    1    5 1
   3    1   14 ar
   4    2   11 ar
   5    2   23 1
   6    3    4 ar
   7    3    6 ar
   8    3   24 1
   9    4    5 1
  10    4    9 ar
  11    5   20 1
  12    5   22 1
  13    6    7 ar
  14    6   25 1
  15    7    8 ar
  16    7   10 1
  17    8    9 ar
  18    8   26 1
  19    9   27 1
  20   10   15 2
  21   10   18 1
  22   11   12 ar
  23   11   28 1
  24   12   13 ar
  25   12   19 1
  26   13   14 ar
  27   13   29 1
  28   14   30 1
  29   15   16 1
  30   15   31 1
  31   16   17 1
  32   16   32 1
  33   17   18 2
  34   18   33 1
  35   20   21 1
  36   20   34 1
  37   20   35 1
  38   21   36 1
  39   21   37 1

#	End of record

