#	Name: ASD00310068
#	Creating user name:	WinNT
#	Creation time:	15. 06. 2019 18:33

#	Modifying user name:	WinNT
#	Modification time:	15. 06. 2019 18:33

#	Program:	/corina/corina34_cracker 3.40 0067  02.08.2006

@<TRIPOS>MOLECULE
ASD00310068
  49   51    0    0    0
SMALL
NO_CHARGES


@<TRIPOS>ATOM
   1 N1            -0.0179     1.4659     0.0101 N.3     
   2 C2             0.0021    -0.0041     0.0020 C.3     
   3 C3             0.7497    -0.4921    -1.2417 C.3     
   4 O4             2.0659     0.0673    -1.2506 O.3     
   5 C5             2.0838     1.4973    -1.2437 C.3     
   6 C6             1.3496     2.0055    -0.0001 C.3     
   7 C7            -0.7765     1.9758     1.1601 C.3     
   8 C8            -0.5694     3.4871     1.2781 C.3     
   9 O9            -1.1326     4.1357     0.1361 O.3     
  10 C10           -1.0333     5.4879     0.0843 C.ar    
  11 C11           -1.5604     6.1812    -0.9994 C.ar    
  12 C12           -1.4608     7.5535    -1.0549 C.ar    
  13 C13           -0.8303     8.2483    -0.0216 C.ar    
  14 C14           -0.3025     7.5496     1.0652 C.ar    
  15 C15           -0.4097     6.1779     1.1178 C.ar    
  16 O16           -0.0742    10.5431     0.9630 O.3     
  17 B17           -0.7145     9.8129    -0.0821 Du      
  18 O18           -1.2461    10.5469    -1.1839 O.3     
  19 C19           -0.3091    11.4869    -1.7241 C.3     
  20 C20            0.2247    12.3672    -0.5902 C.3     
  21 C21            0.8884    11.4830     0.4696 C.3     
  22 C22            1.2528    13.3525    -1.1497 C.3     
  23 C23           -0.9331    13.1414     0.0431 C.3     
  24 H24            0.5087    -0.3661     0.8967 H       
  25 H25           -1.0202    -0.3818    -0.0162 H       
  26 H26            0.8167    -1.5799    -1.2226 H       
  27 H27            0.2136    -0.1754    -2.1363 H       
  28 H28            3.1155     1.8483    -1.2262 H       
  29 H29            1.5864     1.8718    -2.1384 H       
  30 H30            1.3110     3.0946    -0.0198 H       
  31 H31            1.8778     1.6756     0.8946 H       
  32 H32           -1.8364     1.7643     1.0189 H       
  33 H33           -0.4270     1.4890     2.0706 H       
  34 H34           -1.0590     3.8515     2.1812 H       
  35 H35            0.4974     3.7047     1.3302 H       
  36 H36           -2.0482     5.6430    -1.7986 H       
  37 H37           -1.8698     8.0915    -1.8973 H       
  38 H38            0.1860     8.0847     1.8661 H       
  39 H39           -0.0054     5.6370     1.9606 H       
  40 H40            0.5179    10.9508    -2.1898 H       
  41 H41           -0.8057    12.1107    -2.4673 H       
  42 H42            1.2458    12.1041     1.2910 H       
  43 H43            1.7266    10.9469     0.0245 H       
  44 H44            0.7806    13.9803    -1.9053 H       
  45 H45            1.6325    13.9789    -0.3425 H       
  46 H46            2.0777    12.8003    -1.5998 H       
  47 H47           -1.6646    12.4389     0.4423 H       
  48 H48           -0.5529    13.7679     0.8500 H       
  49 H49           -1.4065    13.7691    -0.7119 H       
@<TRIPOS>BOND
   1    1    2 1
   2    1    6 1
   3    1    7 1
   4    2    3 1
   5    2   24 1
   6    2   25 1
   7    3    4 1
   8    3   26 1
   9    3   27 1
  10    4    5 1
  11    5    6 1
  12    5   28 1
  13    5   29 1
  14    6   30 1
  15    6   31 1
  16    7    8 1
  17    7   32 1
  18    7   33 1
  19    8    9 1
  20    8   34 1
  21    8   35 1
  22    9   10 1
  23   10   11 ar
  24   10   15 ar
  25   11   12 ar
  26   11   36 1
  27   12   13 ar
  28   12   37 1
  29   13   14 ar
  30   13   17 1
  31   14   15 ar
  32   14   38 1
  33   15   39 1
  34   16   17 1
  35   16   21 1
  36   17   18 1
  37   18   19 1
  38   19   20 1
  39   19   40 1
  40   19   41 1
  41   20   21 1
  42   20   22 1
  43   20   23 1
  44   21   42 1
  45   21   43 1
  46   22   44 1
  47   22   45 1
  48   22   46 1
  49   23   47 1
  50   23   48 1
  51   23   49 1

#	End of record

