#	Name: ASD00431035
#	Creating user name:	WinNT
#	Creation time:	15. 06. 2019 18:35

#	Modifying user name:	WinNT
#	Modification time:	15. 06. 2019 18:35

#	Program:	/corina/corina34_cracker 3.40 0067  02.08.2006

@<TRIPOS>MOLECULE
ASD00431035
  68   72    0    0    0
SMALL
NO_CHARGES


@<TRIPOS>ATOM
   1 C1             0.0133     1.5888     0.0075 C.2     
   2 C2             0.0275     0.0654     0.0595 C.3     
   3 C3             1.3135    -0.2546    -0.7292 C.3     
   4 C4             2.1103     1.0324    -0.6229 C.2     
   5 N5             1.3409     1.9850    -0.0600 N.am    
   6 C6             1.8428     3.2753     0.4192 C.3     
   7 C7            -1.0756     2.3131    -0.0400 C.2     
   8 C8             2.0710    -1.4149    -0.0805 C.3     
   9 C9             3.2346    -1.8063    -0.9546 C.2     
  10 O10            3.4378    -1.2155    -1.9941 O.2     
  11 O11            3.2578     1.1803    -0.9868 O.2     
  12 N12            4.0492    -2.8129    -0.5812 N.am    
  13 C13            5.1916    -3.2131    -1.4181 C.3     
  14 C14            6.4431    -3.2665    -0.5344 C.3     
  15 O15            6.1773    -4.0822     0.6092 O.3     
  16 C16           -1.2101    -0.4088    -0.7075 C.3     
  17 C17           -2.4453     1.7105    -0.0915 C.3     
  18 C18           -2.4440     0.1934    -0.0348 C.3     
  19 C19            1.7794     4.3002    -0.7150 C.3     
  20 C20            2.2957     5.6274    -0.2221 C.2     
  21 C21            1.5596     6.6422     0.2579 C.2     
  22 N22            2.3740     7.6846     0.6077 N.pl3   
  23 C23            3.6874     7.3576     0.3549 C.ar    
  24 C24            3.6966     6.0526    -0.1700 C.ar    
  25 C25            4.8918     8.0340     0.5207 C.ar    
  26 C26            6.0741     7.4233     0.1648 C.ar    
  27 C27            6.0773     6.1374    -0.3587 C.ar    
  28 C28            4.9067     5.4521    -0.5231 C.ar    
  29 C29            3.8263    -3.5403     0.6784 C.3     
  30 C30            5.1411    -3.5813     1.4573 C.3     
  31 C31            0.0594    -0.4628     1.4705 C.2     
  32 O32            0.1910     0.3000     2.3983 O.2     
  33 O33           -0.0582    -1.7807     1.6967 O.3     
  34 C34           -0.1668    -3.7398     3.1389 C.3     
  35 C35           -0.0188    -2.2181     3.0806 C.3     
  36 H36            1.0811    -0.4790    -1.7703 H       
  37 H37            1.2289     3.6171     1.2525 H       
  38 H38            2.8751     3.1632     0.7504 H       
  39 H39           -0.9825     3.3891    -0.0417 H       
  40 H40            2.4393    -1.1065     0.8980 H       
  41 H41            1.4010    -2.2667     0.0354 H       
  42 H42            5.0042    -4.1965    -1.8491 H       
  43 H43            5.3359    -2.4838    -2.2153 H       
  44 H44            7.2710    -3.6926    -1.1011 H       
  45 H45            6.7032    -2.2588    -0.2103 H       
  46 H46           -1.1536    -0.0716    -1.7425 H       
  47 H47           -1.2680    -1.4968    -0.6766 H       
  48 H48           -3.0253     2.0905     0.7494 H       
  49 H49           -2.9298     2.0245    -1.0161 H       
  50 H50           -3.3375    -0.1800    -0.5352 H       
  51 H51           -2.4673    -0.1215     1.0085 H       
  52 H52            2.3933     3.9584    -1.5483 H       
  53 H53            0.7471     4.4123    -1.0463 H       
  54 H54            0.4838     6.6369     0.3532 H       
  55 H55            2.0712     8.5283     0.9782 H       
  56 H56            4.8998     9.0347     0.9268 H       
  57 H57            7.0080     7.9501     0.2939 H       
  58 H58            7.0129     5.6730    -0.6330 H       
  59 H59            4.9169     4.4521    -0.9309 H       
  60 H60            3.0670    -3.0277     1.2689 H       
  61 H61            3.4992    -4.5573     0.4621 H       
  62 H62            5.0303    -4.2321     2.3247 H       
  63 H63            5.4006    -2.5753     1.7868 H       
  64 H64           -1.1184    -4.0297     2.6932 H       
  65 H65            0.6497    -4.2057     2.5873 H       
  66 H66           -0.1373    -4.0682     4.1779 H       
  67 H67            0.9327    -1.9282     3.5264 H       
  68 H68           -0.8354    -1.7522     3.6323 H       
@<TRIPOS>BOND
   1    1    2 1
   2    1    5 1
   3    1    7 2
   4    2   16 1
   5    2   31 1
   6    2    3 1
   7    3    4 1
   8    3    8 1
   9    3   36 1
  10    4    5 am
  11    4   11 2
  12    5    6 1
  13    6   19 1
  14    6   37 1
  15    6   38 1
  16    7   17 1
  17    7   39 1
  18    8    9 1
  19    8   40 1
  20    8   41 1
  21    9   10 2
  22    9   12 am
  23   12   13 1
  24   12   29 1
  25   13   14 1
  26   13   42 1
  27   13   43 1
  28   14   15 1
  29   14   44 1
  30   14   45 1
  31   15   30 1
  32   16   18 1
  33   16   46 1
  34   16   47 1
  35   17   18 1
  36   17   48 1
  37   17   49 1
  38   18   50 1
  39   18   51 1
  40   19   20 1
  41   19   52 1
  42   19   53 1
  43   20   21 2
  44   20   24 1
  45   21   22 1
  46   21   54 1
  47   22   23 1
  48   22   55 1
  49   23   24 ar
  50   23   25 ar
  51   24   28 ar
  52   25   26 ar
  53   25   56 1
  54   26   27 ar
  55   26   57 1
  56   27   28 ar
  57   27   58 1
  58   28   59 1
  59   29   30 1
  60   29   60 1
  61   29   61 1
  62   30   62 1
  63   30   63 1
  64   31   32 2
  65   31   33 1
  66   33   35 1
  67   34   35 1
  68   34   64 1
  69   34   65 1
  70   34   66 1
  71   35   67 1
  72   35   68 1

#	End of record

