#	Name: ASD01150511
#	Creating user name:	WinNT
#	Creation time:	15. 06. 2019 19:04

#	Modifying user name:	WinNT
#	Modification time:	15. 06. 2019 19:04

#	Program:	/corina/corina34_cracker 3.40 0067  02.08.2006

@<TRIPOS>MOLECULE
ASD01150511
  41   44    0    0    0
SMALL
NO_CHARGES


@<TRIPOS>ATOM
   1 C1             2.0128     1.4342    -1.1553 C.ar    
   2 C2             2.0070     0.0611    -1.3034 C.ar    
   3 C3             0.2004    -0.1064     0.2631 C.ar    
   4 C4             0.2011     1.2661     0.4162 C.ar    
   5 C5             1.1085     2.0420    -0.2938 C.ar    
   6 N6             1.1119     3.4329    -0.1410 N.am    
   7 C7            -0.0463     4.1112    -0.2208 C.2     
   8 N8            -0.0796     5.4494    -0.0792 N.am    
   9 C9             1.0610     6.1335     0.1475 C.2     
  10 C10            2.3312     5.3973     0.2364 C.2     
  11 N11            2.3204     4.0977     0.0984 N.2     
  12 O12            1.0392     7.3434     0.2763 O.2     
  13 C13           -1.3553     6.1636    -0.1717 C.3     
  14 O14           -1.0810     3.5056    -0.4248 O.2     
  15 C15           -1.9664     6.2803     1.2009 C.2     
  16 O16            3.4966     6.0573     0.4637 O.3     
  17 C17            4.6857     5.2681     0.5360 C.3     
  18 C18            1.1020    -0.7084    -0.5955 C.ar    
  19 C19           -1.4212     5.7327     2.2690 C.2     
  20 S20           -2.3728     6.0497     3.7067 S.3     
  21 C21           -3.5641     6.9705     2.7972 C.ar    
  22 C22           -3.1990     7.0104     1.4490 C.ar    
  23 C23           -4.7296     7.6175     3.2204 C.ar    
  24 C24           -5.5176     8.2856     2.3138 C.ar    
  25 C25           -5.1607     8.3220     0.9715 C.ar    
  26 C26           -4.0261     7.7047     0.5396 C.ar    
  27 Cl27          -6.1646     9.1693    -0.1634 Cl      
  28 H28            2.7225     2.0342    -1.7054 H       
  29 H29            2.7098    -0.4121    -1.9732 H       
  30 H30           -0.5049    -0.7103     0.8148 H       
  31 H31           -0.5033     1.7356     1.0869 H       
  32 H32           -1.1851     7.1600    -0.5795 H       
  33 H33           -2.0327     5.6143    -0.8255 H       
  34 H34            4.5942     4.5469     1.3482 H       
  35 H35            4.8280     4.7384    -0.4059 H       
  36 H36            5.5418     5.9169     0.7209 H       
  37 H37            1.0991    -1.7819    -0.7137 H       
  38 H38           -0.5048     5.1612     2.2594 H       
  39 H39           -5.0114     7.5917     4.2627 H       
  40 H40           -6.4168     8.7833     2.6457 H       
  41 H41           -3.7608     7.7410    -0.5066 H       
@<TRIPOS>BOND
   1    1    2 ar
   2    1    5 ar
   3    1   28 1
   4    2   18 ar
   5    2   29 1
   6    3    4 ar
   7    3   18 ar
   8    3   30 1
   9    4    5 ar
  10    4   31 1
  11    5    6 1
  12    6    7 am
  13    6   11 1
  14    7    8 am
  15    7   14 2
  16    8    9 am
  17    8   13 1
  18    9   10 1
  19    9   12 2
  20   10   11 2
  21   10   16 1
  22   13   15 1
  23   13   32 1
  24   13   33 1
  25   15   19 2
  26   15   22 1
  27   16   17 1
  28   17   34 1
  29   17   35 1
  30   17   36 1
  31   18   37 1
  32   19   20 1
  33   19   38 1
  34   20   21 1
  35   21   22 ar
  36   21   23 ar
  37   22   26 ar
  38   23   24 ar
  39   23   39 1
  40   24   25 ar
  41   24   40 1
  42   25   26 ar
  43   25   27 1
  44   26   41 1

#	End of record

