#	Name: ASD01810124
#	Creating user name:	WinNT
#	Creation time:	15. 06. 2019 19:23

#	Modifying user name:	WinNT
#	Modification time:	15. 06. 2019 19:23

#	Program:	/corina/corina34_cracker 3.40 0067  02.08.2006

@<TRIPOS>MOLECULE
ASD01810124
  43   46    0    0    0
SMALL
NO_CHARGES


@<TRIPOS>ATOM
   1 C1            -0.0167     1.3820     0.0096 C.ar    
   2 C2             0.0021    -0.0041     0.0020 C.ar    
   3 C3             1.1959    -0.6932    -0.0127 C.ar    
   4 C4             2.4016     0.0019    -0.0200 C.ar    
   5 C5             2.3831     1.4075    -0.0128 C.ar    
   6 C6             1.1665     2.0939     0.0022 C.ar    
   7 N7             3.6010    -0.6771    -0.0337 N.pl3   
   8 C8             4.7870    -0.0549    -0.0404 C.2     
   9 C9             4.8957     1.3208    -0.0340 C.2     
  10 C10            3.6667     2.1313    -0.0207 C.2     
  11 O11            3.7091     3.3491    -0.0150 O.2     
  12 C12            6.2161     1.9660    -0.0412 C.2     
  13 O13            6.3092     3.3109    -0.0348 O.3     
  14 O14            7.2244     1.2870    -0.0529 O.2     
  15 C15            3.5775    -2.1419    -0.0409 C.3     
  16 C16            3.5572    -2.6371    -1.4640 C.ar    
  17 C17            4.7461    -2.8829    -2.1260 C.ar    
  18 C18            4.7309    -3.3372    -3.4302 C.ar    
  19 C19            3.5200    -3.5470    -4.0767 C.ar    
  20 C20            2.3278    -3.2992    -3.4092 C.ar    
  21 C21            2.3497    -2.8500    -2.1033 C.ar    
  22 N22            3.5011    -4.0069    -5.3984 N.am    
  23 F23            1.1476     3.4448     0.0091 F       
  24 C24            2.2932    -4.2692    -6.1957 C.3     
  25 C25            2.8456    -4.7474    -7.5523 C.3     
  26 O26            4.2916    -4.7048    -7.3792 O.3     
  27 C27            4.5807    -4.2744    -6.1459 C.2     
  28 O28            5.7180    -4.1454    -5.7381 O.2     
  29 H29           -0.9604     1.9071     0.0170 H       
  30 H30           -0.9295    -0.5505     0.0080 H       
  31 H31            1.1956    -1.7731    -0.0181 H       
  32 H32            5.6884    -0.6497    -0.0508 H       
  33 H33            7.1990     3.6894    -0.0400 H       
  34 H34            4.4660    -2.5220     0.4634 H       
  35 H35            2.6863    -2.4936     0.4789 H       
  36 H36            5.6876    -2.7192    -1.6228 H       
  37 H37            5.6598    -3.5287    -3.9468 H       
  38 H38            1.3844    -3.4611    -3.9094 H       
  39 H39            1.4228    -2.6571    -1.5836 H       
  40 H40            1.6900    -5.0494    -5.7314 H       
  41 H41            1.7106    -3.3564    -6.3197 H       
  42 H42            2.5156    -5.7649    -7.7620 H       
  43 H43            2.5362    -4.0723    -8.3502 H       
@<TRIPOS>BOND
   1    1    2 ar
   2    1    6 ar
   3    1   29 1
   4    2    3 ar
   5    2   30 1
   6    3    4 ar
   7    3   31 1
   8    4    5 ar
   9    4    7 1
  10    5    6 ar
  11    5   10 1
  12    6   23 1
  13    7    8 1
  14    7   15 1
  15    8    9 2
  16    8   32 1
  17    9   10 1
  18    9   12 1
  19   10   11 2
  20   12   13 1
  21   12   14 2
  22   13   33 1
  23   15   16 1
  24   15   34 1
  25   15   35 1
  26   16   17 ar
  27   16   21 ar
  28   17   18 ar
  29   17   36 1
  30   18   19 ar
  31   18   37 1
  32   19   20 ar
  33   19   22 1
  34   20   21 ar
  35   20   38 1
  36   21   39 1
  37   22   24 1
  38   22   27 am
  39   24   25 1
  40   24   40 1
  41   24   41 1
  42   25   26 1
  43   25   42 1
  44   25   43 1
  45   26   27 1
  46   27   28 2

#	End of record

