#	Name: ASD01810873
#	Creating user name:	WinNT
#	Creation time:	15. 06. 2019 19:25

#	Modifying user name:	WinNT
#	Modification time:	15. 06. 2019 19:25

#	Program:	/corina/corina34_cracker 3.40 0067  02.08.2006

@<TRIPOS>MOLECULE
ASD01810873
  59   63    0    0    0
SMALL
NO_CHARGES


@<TRIPOS>ATOM
   1 C1             0.0308     1.3825     0.0386 C.3     
   2 C2            -0.9256    -4.4068    -1.8171 C.ar    
   3 C3            -1.0498    -3.0585    -1.8513 C.ar    
   4 C4            -0.4064    -2.2435    -0.9069 C.ar    
   5 C5             0.3885    -2.8137     0.1041 C.ar    
   6 C6             0.5271    -4.2665     0.1464 C.ar    
   7 C7             1.3016    -4.9009     1.1230 C.ar    
   8 C8             1.4042    -6.2614     1.1252 C.ar    
   9 C9             0.7473    -7.0269     0.1672 C.ar    
  10 C10           -0.0153    -6.4396    -0.7979 C.ar    
  11 C11           -0.1438    -5.0426    -0.8299 C.ar    
  12 C12           -1.6397    -5.2425    -2.8479 C.3     
  13 C13           -4.1033    -4.9394    -2.4633 C.ar    
  14 C14           -2.9609    -5.7064    -2.2909 C.ar    
  15 C15           -3.0489    -6.9013    -1.6025 C.ar    
  16 N16           -4.2013    -7.3146    -1.1123 N.ar    
  17 C17           -5.2970    -5.4054    -1.9349 C.ar    
  18 C18           -5.3087    -6.6114    -1.2569 C.ar    
  19 C19           -0.5344    -0.7808    -0.9340 C.2     
  20 N20            0.1231    -0.0795     0.0185 N.am    
  21 C21            0.8672    -0.7199     0.9544 C.2     
  22 N22            0.9947    -2.0141     0.9975 N.2     
  23 O23           -1.2062    -0.2204    -1.7813 O.2     
  24 C24            1.4375     1.9829    -0.0044 C.3     
  25 C25            1.3411     3.5097     0.0166 C.3     
  26 C26            0.6339     3.9585     1.2970 C.3     
  27 C27           -0.7727     3.3581     1.3399 C.3     
  28 C28           -0.6764     1.8313     1.3189 C.3     
  29 Cl29          -6.7968    -7.2065    -0.5896 Cl      
  30 N30            2.1165     1.5519    -1.2337 N.3     
  31 C31            1.4888     2.1504    -2.4193 C.3     
  32 C32            3.5503     1.8673    -1.1813 C.3     
  33 H33           -0.5360     1.7227    -0.8280 H       
  34 H34           -1.6553    -2.6017    -2.6201 H       
  35 H35            1.8163    -4.3166     1.8714 H       
  36 H36            2.0029    -6.7500     1.8797 H       
  37 H37            0.8432    -8.1025     0.1883 H       
  38 H38           -0.5193    -7.0473    -1.5349 H       
  39 H39           -1.8124    -4.6456    -3.7434 H       
  40 H40           -1.0279    -6.1085    -3.1008 H       
  41 H41           -4.0631    -3.9993    -2.9932 H       
  42 H42           -2.1634    -7.5042    -1.4646 H       
  43 H43           -6.2061    -4.8338    -2.0500 H       
  44 H44            1.3784    -0.1276     1.6989 H       
  45 H45            2.0043     1.6426     0.8622 H       
  46 H46            2.3432     3.9374    -0.0139 H       
  47 H47            0.7743     3.8499    -0.8500 H       
  48 H48            1.2008     3.6183     2.1636 H       
  49 H49            0.5653     5.0462     1.3119 H       
  50 H50           -1.2766     3.6779     2.2520 H       
  51 H51           -1.3396     3.6984     0.4733 H       
  52 H52           -1.6785     1.4036     1.3495 H       
  53 H53           -0.1095     1.4910     2.1855 H       
  54 H54            1.5456     3.2368    -2.3511 H       
  55 H55            2.0109     1.8148    -3.3153 H       
  56 H56            0.4441     1.8437    -2.4712 H       
  57 H57            3.9838     1.4388    -0.2776 H       
  58 H58            4.0467     1.4480    -2.0565 H       
  59 H59            3.6843     2.9490    -1.1709 H       
@<TRIPOS>BOND
   1    1   20 1
   2    1   24 1
   3    1   28 1
   4    1   33 1
   5    2    3 ar
   6    2   11 ar
   7    2   12 1
   8    3    4 ar
   9    3   34 1
  10    4    5 ar
  11    4   19 1
  12    5    6 ar
  13    5   22 1
  14    6    7 ar
  15    6   11 ar
  16    7    8 ar
  17    7   35 1
  18    8    9 ar
  19    8   36 1
  20    9   10 ar
  21    9   37 1
  22   10   11 ar
  23   10   38 1
  24   12   14 1
  25   12   39 1
  26   12   40 1
  27   13   14 ar
  28   13   17 ar
  29   13   41 1
  30   14   15 ar
  31   15   16 ar
  32   15   42 1
  33   16   18 ar
  34   17   18 ar
  35   17   43 1
  36   18   29 1
  37   19   20 am
  38   19   23 2
  39   20   21 1
  40   21   22 2
  41   21   44 1
  42   24   25 1
  43   24   30 1
  44   24   45 1
  45   25   26 1
  46   25   46 1
  47   25   47 1
  48   26   27 1
  49   26   48 1
  50   26   49 1
  51   27   28 1
  52   27   50 1
  53   27   51 1
  54   28   52 1
  55   28   53 1
  56   30   31 1
  57   30   32 1
  58   31   54 1
  59   31   55 1
  60   31   56 1
  61   32   57 1
  62   32   58 1
  63   32   59 1

#	End of record

