#	Name: ASD03731475
#	Creating user name:	WinNT
#	Creation time:	15. 06. 2019 20:45

#	Modifying user name:	WinNT
#	Modification time:	15. 06. 2019 20:45

#	Program:	/corina/corina34_cracker 3.40 0067  02.08.2006

@<TRIPOS>MOLECULE
ASD03731475
  58   63    0    0    0
SMALL
NO_CHARGES


@<TRIPOS>ATOM
   1 N1             2.0782     0.7082     0.0321 N.pl3   
   2 N2             1.3669    -0.3474     0.2038 N.2     
   3 C3             0.0908    -0.0702     0.1178 C.2     
   4 C4            -0.0344     1.2979    -0.1341 C.2     
   5 C5             1.2614     1.7813    -0.1856 C.2     
   6 C6             1.6762     3.1726    -0.4261 C.2     
   7 O7             2.8550     3.4705    -0.3913 O.2     
   8 N8             0.7499     4.1168    -0.6850 N.am    
   9 C9             1.1504     5.5202    -0.8130 C.3     
  10 C10           -0.0826     6.3778    -1.1048 C.3     
  11 C11            0.3356     7.8434    -1.2384 C.3     
  12 O12           -6.6940     7.0318     0.0335 O.3     
  13 C13           -8.0565     7.4969     0.0218 C.3     
  14 O14           -7.9469     8.8867     0.3816 O.3     
  15 C15           -6.7017     9.2727    -0.0249 C.ar    
  16 C16           -5.9314     8.1317    -0.2378 C.ar    
  17 C17           -6.1545    10.5257    -0.2349 C.ar    
  18 C18           -4.8350    10.6572    -0.6570 C.ar    
  19 C19           -4.0729     9.5103    -0.8584 C.ar    
  20 C20           -4.6175     8.2594    -0.6558 C.ar    
  21 O21           -4.1167    11.7827    -0.9354 O.3     
  22 C22           -2.7033     9.9735    -1.2774 C.3     
  23 C23           -2.7114    11.4658    -0.9188 C.3     
  24 N24           -0.8450     8.6646    -1.5178 N.am    
  25 C25           -1.6098     9.2321    -0.5638 C.2     
  26 C26           -2.4474     9.7505    -2.7384 C.ar    
  27 C27           -3.0827    10.1608    -3.8891 C.ar    
  28 C28           -2.5911     9.7810    -5.1252 C.ar    
  29 C29           -1.4606     8.9879    -5.2023 C.ar    
  30 C30           -0.8212     8.5735    -4.0525 C.ar    
  31 C31           -1.3089     8.9514    -2.8039 C.ar    
  32 O32           -1.4464     9.1587     0.6358 O.2     
  33 C33           -1.0423    -1.0529     0.2640 C.3     
  34 C34            3.5420     0.7554     0.0701 C.3     
  35 H35           -0.9482     1.8591    -0.2621 H       
  36 H36           -0.1818     3.8671    -0.7866 H       
  37 H37            1.6123     5.8524     0.1167 H       
  38 H38            1.8648     5.6211    -1.6300 H       
  39 H39           -0.5446     6.0455    -2.0344 H       
  40 H40           -0.7970     6.2768    -0.2877 H       
  41 H41            0.7975     8.1757    -0.3087 H       
  42 H42            1.0500     7.9444    -2.0554 H       
  43 H43           -8.4885     7.3919    -0.9735 H       
  44 H44           -8.6519     6.9566     0.7577 H       
  45 H45           -6.7553    11.4079    -0.0701 H       
  46 H46           -4.0174     7.3772    -0.8233 H       
  47 H47           -2.1746    12.0470    -1.6685 H       
  48 H48           -2.2897    11.6278     0.0732 H       
  49 H49           -3.9654    10.7799    -3.8266 H       
  50 H50           -3.0886    10.1034    -6.0280 H       
  51 H51           -1.0769     8.6913    -6.1673 H       
  52 H52            0.0607     7.9539    -4.1208 H       
  53 H53           -1.3442    -1.1063     1.3100 H       
  54 H54           -1.8874    -0.7257    -0.3418 H       
  55 H55           -0.7150    -2.0373    -0.0705 H       
  56 H56            3.9347     0.6685    -0.9430 H       
  57 H57            3.8638     1.7017     0.5047 H       
  58 H58            3.9164    -0.0691     0.6768 H       
@<TRIPOS>BOND
   1    1    2 1
   2    1    5 1
   3    1   34 1
   4    2    3 2
   5    3    4 1
   6    3   33 1
   7    4    5 2
   8    4   35 1
   9    5    6 1
  10    6    7 2
  11    6    8 am
  12    8    9 1
  13    8   36 1
  14    9   10 1
  15    9   37 1
  16    9   38 1
  17   10   11 1
  18   10   39 1
  19   10   40 1
  20   11   24 1
  21   11   41 1
  22   11   42 1
  23   12   13 1
  24   12   16 1
  25   13   14 1
  26   13   43 1
  27   13   44 1
  28   14   15 1
  29   15   16 ar
  30   15   17 ar
  31   16   20 ar
  32   17   18 ar
  33   17   45 1
  34   18   19 ar
  35   18   21 1
  36   19   20 ar
  37   19   22 1
  38   20   46 1
  39   21   23 1
  40   22   23 1
  41   22   25 1
  42   22   26 1
  43   23   47 1
  44   23   48 1
  45   24   25 am
  46   24   31 1
  47   25   32 2
  48   26   27 ar
  49   26   31 ar
  50   27   28 ar
  51   27   49 1
  52   28   29 ar
  53   28   50 1
  54   29   30 ar
  55   29   51 1
  56   30   31 ar
  57   30   52 1
  58   33   53 1
  59   33   54 1
  60   33   55 1
  61   34   56 1
  62   34   57 1
  63   34   58 1

#	End of record

