#	Name: ASD01812646
#	Creating user name:	WinNT
#	Creation time:	15. 06. 2019 19:28

#	Modifying user name:	WinNT
#	Modification time:	15. 06. 2019 19:28

#	Program:	/corina/corina34_cracker 3.40 0067  02.08.2006

@<TRIPOS>MOLECULE
ASD01812646
  69   74    0    0    0
SMALL
NO_CHARGES


@<TRIPOS>ATOM
   1 O1            -0.0163     1.3523     0.0095 O.3     
   2 C2             0.0097     0.0100     0.2037 C.ar    
   3 C3             1.2216    -0.6601     0.2774 C.ar    
   4 C4             1.2502    -2.0266     0.4746 C.ar    
   5 C5             0.0680    -2.7399     0.6006 C.ar    
   6 C6            -1.1405    -2.0895     0.5297 C.ar    
   7 C7            -1.1882    -0.7059     0.3368 C.ar    
   8 C8            -2.5721    -2.5555     0.6243 C.3     
   9 N9            -3.4040    -1.3569     0.4672 N.am    
  10 C10           -2.6004    -0.2907     0.3104 C.2     
  11 C11           -4.8685    -1.3255     0.4906 C.3     
  12 O12           -2.9854     0.8519     0.1538 O.2     
  13 C13            1.2359     1.9974    -0.2310 C.3     
  14 C14            1.0015     3.2892    -1.0167 C.3     
  15 C15            0.1294     4.1849    -0.2395 C.1     
  16 C16            1.9045     2.3273     1.1050 C.3     
  17 C17            3.2453     3.0180     0.8476 C.3     
  18 C18            3.0109     4.3098     0.0619 C.3     
  19 C19            2.3423     3.9799    -1.2742 C.3     
  20 C20           -5.3438    -1.1118     1.9046 C.ar    
  21 C21           -5.5388     0.1719     2.3803 C.ar    
  22 C22           -5.9739     0.3710     3.6759 C.ar    
  23 C23           -6.2160    -0.7194     4.5008 C.ar    
  24 C24           -6.0198    -2.0071     4.0200 C.ar    
  25 C25           -5.5895    -2.1999     2.7218 C.ar    
  26 N26           -6.6571    -0.5206     5.8159 N.pl3   
  27 C27           -6.9298    -1.4935     6.7228 C.2     
  28 C28           -7.3253    -0.8901     7.8671 C.2     
  29 C29           -7.2948     0.4971     7.6567 C.2     
  30 N30           -6.8890     0.7172     6.4294 N.2     
  31 O31           -7.6241     1.4491     8.5700 O.3     
  32 N32           -0.5436     4.8761     0.3603 N.1     
  33 F33            1.0757     3.1786     1.8437 F       
  34 C34           -7.5239     2.8117     8.1516 C.3     
  35 C35           -7.9257     3.7169     9.2875 C.ar    
  36 C36           -6.9739     4.1640    10.1848 C.ar    
  37 C37           -7.3425     4.9943    11.2268 C.ar    
  38 C38           -8.6627     5.3777    11.3713 C.ar    
  39 C39           -9.6143     4.9313    10.4735 C.ar    
  40 C40           -9.2450     4.1045     9.4289 C.ar    
  41 H41            2.1466    -0.1112     0.1798 H       
  42 H42            2.1976    -2.5420     0.5306 H       
  43 H43            0.0970    -3.8085     0.7543 H       
  44 H44           -2.7875    -3.2682    -0.1717 H       
  45 H45           -2.7538    -3.0129     1.5969 H       
  46 H46           -5.2245    -0.5105    -0.1396 H       
  47 H47           -5.2582    -2.2718     0.1154 H       
  48 H48            1.8817     1.3342    -0.8065 H       
  49 H49            0.5252     3.0542    -1.9685 H       
  50 H50            2.0715     1.4071     1.6648 H       
  51 H51            3.7216     3.2530     1.7994 H       
  52 H52            3.8910     2.3548     0.2721 H       
  53 H53            2.3651     4.9730     0.6374 H       
  54 H54            3.9661     4.8018    -0.1216 H       
  55 H55            2.9880     3.3167    -1.8497 H       
  56 H56            2.1753     4.9002    -1.8339 H       
  57 H57           -5.3503     1.0196     1.7383 H       
  58 H58           -6.1253     1.3739     4.0472 H       
  59 H59           -6.2073    -2.8572     4.6592 H       
  60 H60           -5.4405    -3.2014     2.3460 H       
  61 H61           -6.8463    -2.5579     6.5599 H       
  62 H62           -7.6140    -1.3880     8.7811 H       
  63 H63           -6.4959     3.0279     7.8609 H       
  64 H64           -8.1850     2.9803     7.3014 H       
  65 H65           -5.9425     3.8645    10.0719 H       
  66 H66           -6.5990     5.3431    11.9282 H       
  67 H67           -8.9507     6.0258    12.1858 H       
  68 H68          -10.6458     5.2306    10.5865 H       
  69 H69           -9.9878     3.7587     8.7253 H       
@<TRIPOS>BOND
   1    1    2 1
   2    1   13 1
   3    2    3 ar
   4    2    7 ar
   5    3    4 ar
   6    3   41 1
   7    4    5 ar
   8    4   42 1
   9    5    6 ar
  10    5   43 1
  11    6    8 1
  12    6    7 ar
  13    7   10 1
  14    8    9 1
  15    8   44 1
  16    8   45 1
  17    9   10 am
  18    9   11 1
  19   10   12 2
  20   11   20 1
  21   11   46 1
  22   11   47 1
  23   13   16 1
  24   13   14 1
  25   13   48 1
  26   14   15 1
  27   14   19 1
  28   14   49 1
  29   15   32 3
  30   16   17 1
  31   16   33 1
  32   16   50 1
  33   17   18 1
  34   17   51 1
  35   17   52 1
  36   18   19 1
  37   18   53 1
  38   18   54 1
  39   19   55 1
  40   19   56 1
  41   20   21 ar
  42   20   25 ar
  43   21   22 ar
  44   21   57 1
  45   22   23 ar
  46   22   58 1
  47   23   24 ar
  48   23   26 1
  49   24   25 ar
  50   24   59 1
  51   25   60 1
  52   26   27 1
  53   26   30 1
  54   27   28 2
  55   27   61 1
  56   28   29 1
  57   28   62 1
  58   29   30 2
  59   29   31 1
  60   31   34 1
  61   34   35 1
  62   34   63 1
  63   34   64 1
  64   35   36 ar
  65   35   40 ar
  66   36   37 ar
  67   36   65 1
  68   37   38 ar
  69   37   66 1
  70   38   39 ar
  71   38   67 1
  72   39   40 ar
  73   39   68 1
  74   40   69 1

#	End of record

