#	Name: ASD01912316
#	Creating user name:	WinNT
#	Creation time:	15. 06. 2019 19:59

#	Modifying user name:	WinNT
#	Modification time:	15. 06. 2019 19:59

#	Program:	/corina/corina34_cracker 3.40 0067  02.08.2006

@<TRIPOS>MOLECULE
ASD01912316
  49   52    0    0    0
SMALL
NO_CHARGES


@<TRIPOS>ATOM
   1 N1             0.2927     1.9762    -1.6625 N.ar    
   2 C2             0.4617     0.9949    -2.5147 C.ar    
   3 C3             1.6683     0.3040    -2.6061 C.ar    
   4 C4             2.7122     0.6467    -1.7931 C.ar    
   5 C5             2.5253     1.6994    -0.8821 C.ar    
   6 C6             3.5612     2.1104    -0.0088 C.ar    
   7 C7             3.3288     3.1554     0.8729 C.ar    
   8 C8             2.0948     3.7940     0.9016 C.ar    
   9 C9             1.0841     3.4153     0.0708 C.ar    
  10 C10            1.2744     2.3597    -0.8400 C.ar    
  11 C11            4.8725     1.4345    -0.0361 C.2     
  12 O12            4.9335     0.2225     0.0398 O.2     
  13 N13            6.0028     2.1605    -0.1452 N.am    
  14 C14            7.3158     1.5094    -0.0512 C.3     
  15 C15            8.1036     1.7993    -1.3351 C.3     
  16 C16            8.0439     3.2863    -1.6073 C.2     
  17 C17            6.6878     3.9557    -1.6510 C.3     
  18 C18            5.9355     3.6109    -0.3653 C.3     
  19 C19            9.1586     3.9894    -1.8032 C.2     
  20 C20            9.0820     5.3962    -2.0595 C.1     
  21 C21            9.0192     6.5495    -2.2696 C.1     
  22 C22            8.9427     7.9563    -2.5259 C.ar    
  23 C23           10.1153     8.6893    -2.7308 C.ar    
  24 C24           10.0237    10.0469    -2.9771 C.ar    
  25 C25            8.7646    10.6317    -3.0114 C.ar    
  26 C26            7.6449     9.8479    -2.8002 C.ar    
  27 N27            7.7562     8.5554    -2.5727 N.ar    
  28 C28            6.2776    10.4806    -2.8370 C.3     
  29 H29           -0.3555     0.7144    -3.1627 H       
  30 H30            1.7782    -0.5010    -3.3176 H       
  31 H31            3.6546     0.1223    -1.8494 H       
  32 H32            4.1132     3.4753     1.5429 H       
  33 H33            1.9341     4.6054     1.5960 H       
  34 H34            0.1336     3.9264     0.1116 H       
  35 H35            7.8587     1.9040     0.8076 H       
  36 H36            7.1828     0.4333     0.0608 H       
  37 H37            9.1412     1.4911    -1.2065 H       
  38 H38            7.6595     1.2555    -2.1689 H       
  39 H39            6.8140     5.0358    -1.7257 H       
  40 H40            6.1261     3.5911    -2.5110 H       
  41 H41            4.8940     3.9182    -0.4600 H       
  42 H42            6.3968     4.1298     0.4750 H       
  43 H43           10.1198     3.4983    -1.7688 H       
  44 H44           11.0787     8.2025    -2.6969 H       
  45 H45           10.9119    10.6395    -3.1389 H       
  46 H46            8.6606    11.6898    -3.2010 H       
  47 H47            5.8886    10.4461    -3.8546 H       
  48 H48            5.6070     9.9353    -2.1729 H       
  49 H49            6.3484    11.5180    -2.5100 H       
@<TRIPOS>BOND
   1    1    2 ar
   2    1   10 ar
   3    2    3 ar
   4    2   29 1
   5    3    4 ar
   6    3   30 1
   7    4    5 ar
   8    4   31 1
   9    5    6 ar
  10    5   10 ar
  11    6    7 ar
  12    6   11 1
  13    7    8 ar
  14    7   32 1
  15    8    9 ar
  16    8   33 1
  17    9   10 ar
  18    9   34 1
  19   11   12 2
  20   11   13 am
  21   13   14 1
  22   13   18 1
  23   14   15 1
  24   14   35 1
  25   14   36 1
  26   15   16 1
  27   15   37 1
  28   15   38 1
  29   16   17 1
  30   16   19 2
  31   17   18 1
  32   17   39 1
  33   17   40 1
  34   18   41 1
  35   18   42 1
  36   19   20 1
  37   19   43 1
  38   20   21 3
  39   21   22 1
  40   22   23 ar
  41   22   27 ar
  42   23   24 ar
  43   23   44 1
  44   24   25 ar
  45   24   45 1
  46   25   26 ar
  47   25   46 1
  48   26   27 ar
  49   26   28 1
  50   28   47 1
  51   28   48 1
  52   28   49 1

#	End of record

