#	Name: ASD02408045
#	Creating user name:	WinNT
#	Creation time:	15. 06. 2019 20:21

#	Modifying user name:	WinNT
#	Modification time:	15. 06. 2019 20:21

#	Program:	/corina/corina34_cracker 3.40 0067  02.08.2006

@<TRIPOS>MOLECULE
ASD02408045
  49   51    0    0    0
SMALL
NO_CHARGES


@<TRIPOS>ATOM
   1 C1             2.0347    -0.3716    -0.7271 C.2     
   2 C2             2.6509    -1.3581    -1.3801 C.2     
   3 C3             2.6691     0.9784    -0.5122 C.3     
   4 C4             2.3197     1.8865    -1.6630 C.2     
   5 N5             2.7919     3.1482    -1.6634 N.am    
   6 N6             1.5739     1.4228    -2.6288 N.2     
   7 C7             1.2321     2.1838    -3.6764 C.2     
   8 C8             1.6860     3.5117    -3.7383 C.2     
   9 C9             2.4991     3.9885    -2.6782 C.2     
  10 N10            0.4467     1.6713    -4.6796 N.pl3   
  11 O11            2.9202     5.1323    -2.6815 O.2     
  12 S12            1.6076    -2.7732    -1.4316 S.3     
  13 C13            0.3563    -1.9202    -0.5369 C.2     
  14 C14            0.7661    -0.6799    -0.2669 C.2     
  15 C15            0.7243     1.9930    -6.0861 C.3     
  16 C16           -0.6836     0.7860    -4.3672 C.3     
  17 C17           -0.5380    -0.5047    -5.1793 C.3     
  18 C18           -0.4040    -0.1565    -6.6635 C.3     
  19 C19            0.8509     0.6860    -6.8751 C.3     
  20 C20           -0.2931    -1.4447    -7.4814 C.3     
  21 C21           -1.5477    -2.2939    -7.2680 C.3     
  22 C22           -0.1591    -1.0968    -8.9653 C.3     
  23 C23            0.9385    -2.2317    -7.0289 C.3     
  24 C24            1.3425     4.3574    -4.8416 C.1     
  25 N25            1.0700     5.0284    -5.7169 N.1     
  26 H26            3.6391    -1.2971    -1.8116 H       
  27 H27            2.2980     1.4104     0.4172 H       
  28 H28            3.7517     0.8660    -0.4538 H       
  29 H29            3.3461     3.4550    -0.9289 H       
  30 H30           -0.5995    -2.3357    -0.2537 H       
  31 H31            0.1575     0.0276     0.2766 H       
  32 H32           -0.0934     2.5878    -6.4931 H       
  33 H33            1.6565     2.5535    -6.1555 H       
  34 H34           -0.6799     0.5504    -3.3029 H       
  35 H35           -1.6186     1.2802    -4.6310 H       
  36 H36            0.3507    -1.0433    -4.8503 H       
  37 H37           -1.4186    -1.1296    -5.0304 H       
  38 H38           -1.2818     0.4036    -6.9858 H       
  39 H39            0.9607     0.9154    -7.9350 H       
  40 H40            1.7237     0.1317    -6.5300 H       
  41 H41           -2.4251    -1.7333    -7.5904 H       
  42 H42           -1.4687    -3.2117    -7.8507 H       
  43 H43           -1.6432    -2.5418    -6.2109 H       
  44 H44            0.7348    -0.4918    -9.1174 H       
  45 H45           -0.0800    -2.0146    -9.5480 H       
  46 H46           -1.0364    -0.5362    -9.2877 H       
  47 H47            0.8430    -2.4796    -5.9717 H       
  48 H48            1.0175    -3.1495    -7.6115 H       
  49 H49            1.8323    -1.6267    -7.1809 H       
@<TRIPOS>BOND
   1    1    2 2
   2    1    3 1
   3    1   14 1
   4    2   12 1
   5    2   26 1
   6    3    4 1
   7    3   27 1
   8    3   28 1
   9    4    5 1
  10    4    6 2
  11    5    9 am
  12    5   29 1
  13    6    7 1
  14    7    8 2
  15    7   10 1
  16    8    9 1
  17    8   24 1
  18    9   11 2
  19   10   16 1
  20   10   15 1
  21   12   13 1
  22   13   14 2
  23   13   30 1
  24   14   31 1
  25   15   19 1
  26   15   32 1
  27   15   33 1
  28   16   17 1
  29   16   34 1
  30   16   35 1
  31   17   18 1
  32   17   36 1
  33   17   37 1
  34   18   19 1
  35   18   20 1
  36   18   38 1
  37   19   39 1
  38   19   40 1
  39   20   21 1
  40   20   22 1
  41   20   23 1
  42   21   41 1
  43   21   42 1
  44   21   43 1
  45   22   44 1
  46   22   45 1
  47   22   46 1
  48   23   47 1
  49   23   48 1
  50   23   49 1
  51   24   25 3

#	End of record

