#	Name: ASD03090260
#	Creating user name:	WinNT
#	Creation time:	15. 06. 2019 20:28

#	Modifying user name:	WinNT
#	Modification time:	15. 06. 2019 20:28

#	Program:	/corina/corina34_cracker 3.40 0067  02.08.2006

@<TRIPOS>MOLECULE
ASD03090260
  54   56    0    0    0
SMALL
NO_CHARGES


@<TRIPOS>ATOM
   1 C1             0.2712     1.1459     0.7988 C.ar    
   2 N2            -0.8408     1.5631     1.3865 N.ar    
   3 C3            -1.9807     0.9168     1.2520 C.ar    
   4 C4            -2.0548    -0.2403     0.4780 C.ar    
   5 C5            -0.8972    -0.7093    -0.1576 C.ar    
   6 C6             0.2746     0.0013     0.0057 C.ar    
   7 C7            -3.3365    -0.9628     0.3303 C.2     
   8 N8            -6.8394    -1.2311     0.4632 N.pl3   
   9 C9            -7.3469    -0.0383     0.9888 C.ar    
  10 C10           -6.6103     0.6793     1.9221 C.ar    
  11 C11           -7.1132     1.8572     2.4394 C.ar    
  12 C12           -8.3508     2.3223     2.0286 C.ar    
  13 C13           -9.0874     1.6081     1.0983 C.ar    
  14 C14           -8.5859     0.4332     0.5738 C.ar    
  15 N15           -4.5369    -0.4681     0.5601 N.2     
  16 C16           -5.4607    -1.4017     0.3238 C.2     
  17 N17           -4.8648    -2.5066    -0.0604 N.2     
  18 N18           -3.4850    -2.2458    -0.0700 N.pl3   
  19 C19           -2.4174    -3.1814    -0.4325 C.3     
  20 F20           -8.8409     3.4744     2.5362 F       
  21 C21           -2.1596    -3.0994    -1.9150 C.2     
  22 N22           -1.2128    -3.8758    -2.4782 N.am    
  23 O23           -2.8041    -2.3348    -2.6012 O.2     
  24 C24           -0.9621    -3.7961    -3.9194 C.3     
  25 N25            1.4472     1.8628     0.9714 N.pl3   
  26 C26            2.6822     1.4104     0.3262 C.3     
  27 C27            3.8212     2.3704     0.6754 C.3     
  28 O28            4.0832     2.3081     2.0788 O.3     
  29 C29            5.1360     3.1716     2.5125 C.3     
  30 C30          -10.4344     2.1166     0.6535 C.3     
  31 F31          -10.9811     1.2320    -0.2824 F       
  32 F32          -11.2860     2.2103     1.7595 F       
  33 F33          -10.2867     3.3797     0.0704 F       
  34 H34           -2.8666     1.2869     1.7466 H       
  35 H35           -0.9225    -1.6027    -0.7639 H       
  36 H36            1.1856    -0.3309    -0.4699 H       
  37 H37           -7.4454    -1.9397     0.1956 H       
  38 H38           -5.6451     0.3165     2.2434 H       
  39 H39           -6.5407     2.4156     3.1652 H       
  40 H40           -9.1605    -0.1233    -0.1518 H       
  41 H41           -1.5078    -2.9223     0.1094 H       
  42 H42           -2.7192    -4.1958    -0.1717 H       
  43 H43           -0.6973    -4.4873    -1.9294 H       
  44 H44           -0.1678    -4.4922    -4.1891 H       
  45 H45           -1.8717    -4.0552    -4.4613 H       
  46 H46           -0.6603    -2.7817    -4.1802 H       
  47 H47            1.4513     2.6633     1.5192 H       
  48 H48            2.9302     0.4090     0.6780 H       
  49 H49            2.5416     1.3914    -0.7546 H       
  50 H50            4.7181     2.0854     0.1254 H       
  51 H51            3.5360     3.3867     0.4038 H       
  52 H52            5.2728     3.0657     3.5887 H       
  53 H53            6.0601     2.9032     2.0006 H       
  54 H54            4.8781     4.2046     2.2790 H       
@<TRIPOS>BOND
   1    1    2 ar
   2    1   25 1
   3    1    6 ar
   4    2    3 ar
   5    3    4 ar
   6    3   34 1
   7    4    5 ar
   8    4    7 1
   9    5    6 ar
  10    5   35 1
  11    6   36 1
  12    7   15 2
  13    7   18 1
  14    8    9 1
  15    8   16 1
  16    8   37 1
  17    9   10 ar
  18    9   14 ar
  19   10   11 ar
  20   10   38 1
  21   11   12 ar
  22   11   39 1
  23   12   13 ar
  24   12   20 1
  25   13   14 ar
  26   13   30 1
  27   14   40 1
  28   15   16 1
  29   16   17 2
  30   17   18 1
  31   18   19 1
  32   19   21 1
  33   19   41 1
  34   19   42 1
  35   21   22 am
  36   21   23 2
  37   22   24 1
  38   22   43 1
  39   24   44 1
  40   24   45 1
  41   24   46 1
  42   25   26 1
  43   25   47 1
  44   26   27 1
  45   26   48 1
  46   26   49 1
  47   27   28 1
  48   27   50 1
  49   27   51 1
  50   28   29 1
  51   29   52 1
  52   29   53 1
  53   29   54 1
  54   30   31 1
  55   30   32 1
  56   30   33 1

#	End of record

