#	Name: ASD04882008
#	Creating user name:	WinNT
#	Creation time:	15. 06. 2019 20:53

#	Modifying user name:	WinNT
#	Modification time:	15. 06. 2019 20:53

#	Program:	/corina/corina34_cracker 3.40 0067  02.08.2006

@<TRIPOS>MOLECULE
ASD04882008
  71   75    0    0    0
SMALL
NO_CHARGES


@<TRIPOS>ATOM
   1 C1             0.3100     1.5799    -0.1660 C.ar    
   2 C2             0.0647     0.2217    -0.0997 C.ar    
   3 C3             1.1329    -0.6788    -0.0498 C.ar    
   4 C4             2.4411    -0.2096    -0.0663 C.ar    
   5 C5             2.6900     1.1437    -0.1323 C.ar    
   6 C6             1.6269     2.0492    -0.1828 C.ar    
   7 N7             0.8860    -2.0475     0.0170 N.3     
   8 C8             0.2422    -2.4050     1.2887 C.3     
   9 C9             2.1233    -2.8160    -0.1780 C.3     
  10 C10            1.7973    -4.3114    -0.1771 C.3     
  11 N11            1.1536    -4.6690     1.0947 N.3     
  12 C12           -0.0837    -3.9004     1.2897 C.3     
  13 C13            0.8930    -6.1130     1.1651 C.3     
  14 C14            0.4644    -6.4785     2.5628 C.ar    
  15 C15           -0.8752    -6.4545     2.9035 C.ar    
  16 C16            1.4101    -6.8431     3.5027 C.ar    
  17 C17            1.0169    -7.1784     4.7849 C.ar    
  18 C18           -0.3220    -7.1486     5.1272 C.ar    
  19 C19           -1.2684    -6.7898     4.1856 C.ar    
  20 C20            1.8937     3.4984    -0.2535 C.2     
  21 N21            3.1635     3.9498    -0.2693 N.am    
  22 O22            0.9680     4.2856    -0.2975 O.2     
  23 C23            3.4285     5.3890    -0.3395 C.3     
  24 C24            4.9395     5.6297    -0.3435 C.3     
  25 O25            5.5105     5.1140    -1.5517 O.3     
  26 C26            6.1068     6.1805    -2.3068 C.3     
  27 C27            6.4394     7.2775    -1.2643 C.3     
  28 C28            5.2283     7.1457    -0.3011 C.3     
  29 N29           -1.2535    -0.2526    -0.0821 N.am    
  30 C30           -2.2182     0.4607     0.5320 C.2     
  31 C31           -3.6276     0.0265     0.4435 C.ar    
  32 O32           -1.9285     1.4614     1.1588 O.2     
  33 C33           -3.9638    -1.1220    -0.2753 C.ar    
  34 C34           -4.6298     0.7605     1.0838 C.ar    
  35 C35           -5.9450     0.3482     0.9964 C.ar    
  36 C36           -6.2702    -0.7880     0.2778 C.ar    
  37 C37           -5.2816    -1.5218    -0.3540 C.ar    
  38 Cl38          -4.2226     2.1860     1.9869 Cl      
  39 H39           -0.5136     2.2772    -0.2091 H       
  40 H40            3.2643    -0.9075    -0.0269 H       
  41 H41            3.7076     1.5052    -0.1449 H       
  42 H42            0.9174    -2.1795     2.1141 H       
  43 H43           -0.6779    -1.8322     1.4042 H       
  44 H44            2.5746    -2.5428    -1.1319 H       
  45 H45            2.8199    -2.5951     0.6307 H       
  46 H46            1.1221    -4.5369    -1.0025 H       
  47 H47            2.7175    -4.8842    -0.2926 H       
  48 H48           -0.5350    -4.1736     2.2435 H       
  49 H49           -0.7803    -4.1213     0.4809 H       
  50 H50            0.1017    -6.3741     0.4624 H       
  51 H51            1.8010    -6.6589     0.9091 H       
  52 H52           -1.6144    -6.1736     2.1680 H       
  53 H53            2.4562    -6.8664     3.2352 H       
  54 H54            1.7558    -7.4640     5.5190 H       
  55 H55           -0.6293    -7.4109     6.1288 H       
  56 H56           -2.3145    -6.7665     4.4531 H       
  57 H57            3.9020     3.3219    -0.2342 H       
  58 H58            2.9935     5.7944    -1.2530 H       
  59 H59            2.9842     5.8828     0.5248 H       
  60 H60            5.3939     5.1411     0.5183 H       
  61 H61            7.0176     5.8346    -2.7957 H       
  62 H62            5.4015     6.5617    -3.0452 H       
  63 H63            7.3757     7.0601    -0.7503 H       
  64 H64            6.4675     8.2639    -1.7274 H       
  65 H65            4.3748     7.7137    -0.6710 H       
  66 H66            5.4982     7.4611     0.7068 H       
  67 H67           -1.4719    -1.0943    -0.5119 H       
  68 H68           -3.1937    -1.6961    -0.7690 H       
  69 H69           -6.7210     0.9140     1.4904 H       
  70 H70           -7.3002    -1.1063     0.2128 H       
  71 H71           -5.5430    -2.4079    -0.9133 H       
@<TRIPOS>BOND
   1    1    2 ar
   2    1    6 ar
   3    1   39 1
   4    2    3 ar
   5    2   29 1
   6    3    4 ar
   7    3    7 1
   8    4    5 ar
   9    4   40 1
  10    5    6 ar
  11    5   41 1
  12    6   20 1
  13    7    8 1
  14    7    9 1
  15    8   12 1
  16    8   42 1
  17    8   43 1
  18    9   10 1
  19    9   44 1
  20    9   45 1
  21   10   11 1
  22   10   46 1
  23   10   47 1
  24   11   12 1
  25   11   13 1
  26   12   48 1
  27   12   49 1
  28   13   14 1
  29   13   50 1
  30   13   51 1
  31   14   15 ar
  32   14   16 ar
  33   15   19 ar
  34   15   52 1
  35   16   17 ar
  36   16   53 1
  37   17   18 ar
  38   17   54 1
  39   18   19 ar
  40   18   55 1
  41   19   56 1
  42   20   21 am
  43   20   22 2
  44   21   23 1
  45   21   57 1
  46   23   24 1
  47   23   58 1
  48   23   59 1
  49   24   25 1
  50   24   28 1
  51   24   60 1
  52   25   26 1
  53   26   27 1
  54   26   61 1
  55   26   62 1
  56   27   28 1
  57   27   63 1
  58   27   64 1
  59   28   65 1
  60   28   66 1
  61   29   30 am
  62   29   67 1
  63   30   31 1
  64   30   32 2
  65   31   33 ar
  66   31   34 ar
  67   33   37 ar
  68   33   68 1
  69   34   35 ar
  70   34   38 1
  71   35   36 ar
  72   35   69 1
  73   36   37 ar
  74   36   70 1
  75   37   71 1

#	End of record

