#	Name: ASD03080009
#	Creating user name:	WinNT
#	Creation time:	15. 06. 2019 20:26

#	Modifying user name:	WinNT
#	Modification time:	15. 06. 2019 20:26

#	Program:	/corina/corina34_cracker 3.40 0067  02.08.2006

@<TRIPOS>MOLECULE
ASD03080009
  33   36    0    0    0
SMALL
NO_CHARGES


@<TRIPOS>ATOM
   1 O1            -0.0144     1.2085     0.0087 O.3     
   2 N2             0.0021    -0.0041     0.0020 N.2     
   3 C3             1.2349    -0.4419    -0.0121 C.2     
   4 N4             2.0455     0.6369    -0.0141 N.2     
   5 C5             1.2410     1.6828    -0.0008 C.2     
   6 C6             3.0160    -2.1949    -0.0376 C.ar    
   7 C7             1.6630    -1.8633    -0.0234 C.ar    
   8 C8             0.7155    -2.8900    -0.0194 C.ar    
   9 C9             1.1659    -4.1993    -0.0299 C.ar    
  10 C10            2.5262    -4.4464    -0.0438 C.ar    
  11 N11            3.3973    -3.4556    -0.0468 N.ar    
  12 C12            2.9955     3.4583    -0.0089 C.ar    
  13 C13            1.6452     3.1050     0.0026 C.ar    
  14 C14            0.6806     4.1177     0.0168 C.ar    
  15 C15            1.1138     5.4383     0.0189 C.ar    
  16 C16            2.4772     5.7037     0.0069 C.ar    
  17 N17            3.3596     4.7237    -0.0064 N.ar    
  18 N18            0.1859     6.4899     0.0325 N.pl3   
  19 C19            0.4910     7.8210     0.0359 C.2     
  20 C20           -0.6636     8.5177     0.0491 C.2     
  21 C21           -1.7203     7.5851     0.0541 C.2     
  22 C22           -1.1728     6.3528     0.0386 C.2     
  23 H23            3.7590    -1.4111    -0.0453 H       
  24 H24           -0.3414    -2.6681    -0.0081 H       
  25 H25            0.4623    -5.0186    -0.0269 H       
  26 H26            2.8812    -5.4664    -0.0520 H       
  27 H27            3.7499     2.6854    -0.0154 H       
  28 H28           -0.3728     3.8799     0.0256 H       
  29 H29            2.8197     6.7279     0.0085 H       
  30 H30            1.4851     8.2429     0.0291 H       
  31 H31           -0.7607     9.5933     0.0551 H       
  32 H32           -2.7755     7.8153     0.0647 H       
  33 H33           -1.7151     5.4189     0.0344 H       
@<TRIPOS>BOND
   1    1    2 1
   2    1    5 1
   3    2    3 2
   4    3    4 1
   5    3    7 1
   6    4    5 2
   7    5   13 1
   8    6    7 ar
   9    6   11 ar
  10    6   23 1
  11    7    8 ar
  12    8    9 ar
  13    8   24 1
  14    9   10 ar
  15    9   25 1
  16   10   11 ar
  17   10   26 1
  18   12   13 ar
  19   12   17 ar
  20   12   27 1
  21   13   14 ar
  22   14   15 ar
  23   14   28 1
  24   15   16 ar
  25   15   18 1
  26   16   17 ar
  27   16   29 1
  28   18   19 1
  29   18   22 1
  30   19   20 2
  31   19   30 1
  32   20   21 1
  33   20   31 1
  34   21   22 2
  35   21   32 1
  36   22   33 1

#	End of record

