#	Name: ASD01478021
#	Creating user name:	WinNT
#	Creation time:	15. 06. 2019 19:21

#	Modifying user name:	WinNT
#	Modification time:	15. 06. 2019 19:21

#	Program:	/corina/corina34_cracker 3.40 0067  02.08.2006

@<TRIPOS>MOLECULE
ASD01478021
  80   83    0    0    0
SMALL
NO_CHARGES


@<TRIPOS>ATOM
   1 C1             1.5821     1.3615     1.9364 C.3     
   2 C2             3.0017     2.1553     0.1898 C.2     
   3 O3             2.7952     2.0392     1.5152 O.3     
   4 N4             4.1083     2.7736    -0.2681 N.am    
   5 O5             2.1905     1.7027    -0.5935 O.2     
   6 C6             3.6025     4.1382    -2.2337 C.3     
   7 C7             4.3330     2.9000    -1.7103 C.3     
   8 C8             5.8322     3.0392    -1.9825 C.3     
   9 C9             6.0778     3.0458    -3.4927 C.3     
  10 N10            7.5194     3.0311    -3.7530 N.am    
  11 S11            8.2966     1.5949    -4.0275 S.o2    
  12 C12            8.2451     1.2975    -5.7635 C.ar    
  13 C13            9.2616     1.7670    -6.5746 C.ar    
  14 C14            9.2236     1.5352    -7.9359 C.ar    
  15 C15            8.1642     0.8305    -8.4890 C.ar    
  16 C16            7.1455     0.3604    -7.6730 C.ar    
  17 C17            7.1911     0.5900    -6.3115 C.ar    
  18 O18            9.6622     1.8080    -3.6973 O.2     
  19 O19            7.4994     0.5854    -3.4237 O.2     
  20 C20            8.2734     4.2871    -3.7704 C.3     
  21 C21            7.7805     5.1619    -4.9248 C.3     
  22 C22            8.4601     6.5308    -4.8535 C.3     
  23 C23            8.1240     4.4907    -6.2561 C.3     
  24 O24            6.3074     4.2626    -1.4172 O.3     
  25 C25            1.8456    -0.1510     2.0895 C.3     
  26 O26            2.7714    -0.4207     3.1369 O.3     
  27 C27            2.4751     0.1261     4.4341 C.3     
  28 C28            2.3651     1.6288     4.2561 C.3     
  29 C29            1.1577     1.8558     3.3005 C.3     
  30 C30            1.8720     2.4393     5.4569 C.3     
  31 C31            1.1171     3.5849     4.7872 C.2     
  32 N32            0.8079     3.2407     3.5049 N.am    
  33 O33            0.8350     4.6396     5.3155 O.2     
  34 O34            8.1243     0.6016    -9.8280 O.3     
  35 C35            7.0036    -0.1308   -10.3278 C.3     
  36 C36            2.1158     3.9480    -2.0771 C.ar    
  37 C37            1.4859     4.3524    -0.9149 C.ar    
  38 C38            0.1222     4.1778    -0.7712 C.ar    
  39 C39           -0.6118     3.5994    -1.7899 C.ar    
  40 C40            0.0180     3.1959    -2.9524 C.ar    
  41 C41            1.3810     3.3743    -3.0978 C.ar    
  42 H42            0.7871     1.5316     1.2104 H       
  43 H43            4.7559     3.1350     0.3571 H       
  44 H44            3.9186     5.0135    -1.6662 H       
  45 H45            3.8413     4.2826    -3.2874 H       
  46 H46            3.9527     2.0127    -2.2164 H       
  47 H47            6.3627     2.2004    -1.5318 H       
  48 H48            5.6189     2.1638    -3.9393 H       
  49 H49            5.6391     3.9436    -3.9282 H       
  50 H50           10.0859     2.3158    -6.1436 H       
  51 H51           10.0176     1.9025    -8.5691 H       
  52 H52            6.3198    -0.1884    -8.1012 H       
  53 H53            6.3983     0.2243    -5.6759 H       
  54 H54            8.1254     4.8129    -2.8272 H       
  55 H55            9.3337     4.0725    -3.9043 H       
  56 H56            6.7004     5.2881    -4.8495 H       
  57 H57            9.5401     6.4046    -4.9288 H       
  58 H58            8.1089     7.1541    -5.6759 H       
  59 H59            8.2154     7.0090    -3.9051 H       
  60 H60            9.2045     4.3708    -6.3344 H       
  61 H61            7.6455     3.5125    -6.3040 H       
  62 H62            7.7667     5.1106    -7.0784 H       
  63 H63            5.9438     5.0558    -1.8340 H       
  64 H64            0.9045    -0.6555     2.3082 H       
  65 H65            2.2459    -0.5388     1.1527 H       
  66 H66            1.5313    -0.2763     4.8021 H       
  67 H67            3.2795    -0.1093     5.1310 H       
  68 H68            3.2841     2.0419     3.8405 H       
  69 H69            0.3264     1.2428     3.6488 H       
  70 H70            1.2025     1.8442     6.0779 H       
  71 H71            2.7114     2.8169     6.0409 H       
  72 H72            0.4174     3.8292     2.8400 H       
  73 H73            7.0954    -0.2430   -11.4081 H       
  74 H74            6.9757    -1.1155    -9.8613 H       
  75 H75            6.0848     0.4075   -10.0952 H       
  76 H76            2.0593     4.8043    -0.1191 H       
  77 H77           -0.3699     4.4931     0.1370 H       
  78 H78           -1.6771     3.4624    -1.6773 H       
  79 H79           -0.5553     2.7436    -3.7481 H       
  80 H80            1.8725     3.0625    -4.0076 H       
@<TRIPOS>BOND
   1    1   25 1
   2    1    3 1
   3    1   29 1
   4    1   42 1
   5    2    3 1
   6    2    4 am
   7    2    5 2
   8    4    7 1
   9    4   43 1
  10    6    7 1
  11    6   36 1
  12    6   44 1
  13    6   45 1
  14    7    8 1
  15    7   46 1
  16    8    9 1
  17    8   24 1
  18    8   47 1
  19    9   10 1
  20    9   48 1
  21    9   49 1
  22   10   11 am
  23   10   20 1
  24   11   12 1
  25   11   18 2
  26   11   19 2
  27   12   13 ar
  28   12   17 ar
  29   13   14 ar
  30   13   50 1
  31   14   15 ar
  32   14   51 1
  33   15   16 ar
  34   15   34 1
  35   16   17 ar
  36   16   52 1
  37   17   53 1
  38   20   21 1
  39   20   54 1
  40   20   55 1
  41   21   22 1
  42   21   23 1
  43   21   56 1
  44   22   57 1
  45   22   58 1
  46   22   59 1
  47   23   60 1
  48   23   61 1
  49   23   62 1
  50   24   63 1
  51   25   26 1
  52   25   64 1
  53   25   65 1
  54   26   27 1
  55   27   28 1
  56   27   66 1
  57   27   67 1
  58   28   29 1
  59   28   30 1
  60   28   68 1
  61   29   32 1
  62   29   69 1
  63   30   31 1
  64   30   70 1
  65   30   71 1
  66   31   32 am
  67   31   33 2
  68   32   72 1
  69   34   35 1
  70   35   73 1
  71   35   74 1
  72   35   75 1
  73   36   37 ar
  74   36   41 ar
  75   37   38 ar
  76   37   76 1
  77   38   39 ar
  78   38   77 1
  79   39   40 ar
  80   39   78 1
  81   40   41 ar
  82   40   79 1
  83   41   80 1

#	End of record

