#	Name: ASD06170029
#	Creating user name:	WinNT
#	Creation time:	15. 06. 2019 21:05

#	Modifying user name:	WinNT
#	Modification time:	15. 06. 2019 21:05

#	Program:	/corina/corina34_cracker 3.40 0067  02.08.2006

@<TRIPOS>MOLECULE
ASD06170029
  69   74    0    0    0
SMALL
NO_CHARGES


@<TRIPOS>ATOM
   1 N1             0.8900     0.6684     0.1689 N.pl3   
   2 N2             0.6225    -0.4636    -0.6061 N.am    
   3 C3             1.7875    -0.9960    -1.0254 C.2     
   4 C4             2.8625    -0.1563    -0.4877 C.2     
   5 C5             2.2399     0.8622     0.2462 C.2     
   6 C6             4.3005    -0.3448    -0.6791 C.2     
   7 O7             5.0841     0.4916    -0.2684 O.2     
   8 N8             4.7579    -1.4443    -1.3103 N.am    
   9 C9            -0.6502    -0.9641    -0.8989 C.ar    
  10 C10           -1.5902    -1.1106     0.1130 C.ar    
  11 C11           -2.8462    -1.6047    -0.1795 C.ar    
  12 C12           -3.1684    -1.9535    -1.4783 C.ar    
  13 C13           -2.2348    -1.8088    -2.4881 C.ar    
  14 C14           -0.9787    -1.3103    -2.2032 C.ar    
  15 O15            1.9219    -1.9872    -1.7196 O.2     
  16 S16            3.4079     3.9173     2.4367 S.3     
  17 C17            4.6756     3.1605     1.5794 C.2     
  18 N18            4.2322     2.1735     0.8853 N.2     
  19 C19            2.9179     1.9450     0.9695 C.2     
  20 C20            2.2678     2.8177     1.7940 C.2     
  21 C21            6.1189     3.5911     1.6296 C.3     
  22 C22           -0.1228     1.5204     0.7969 C.3     
  23 C23            6.1293    -1.6892    -1.3789 C.ar    
  24 C24            7.0242    -0.6351    -1.2331 C.ar    
  25 C25            8.3820    -0.8892    -1.3024 C.ar    
  26 C26            8.8016    -2.1999    -1.5169 C.ar    
  27 C27            7.8523    -3.1999    -1.6530 C.ar    
  28 N28            6.5645    -2.9231    -1.5765 N.ar    
  29 O29           10.1269    -2.4944    -1.5922 O.3     
  30 N30           12.2553    -2.6620     1.9366 N.ar    
  31 C31           10.9542    -2.4915     1.9580 C.ar    
  32 C32           10.2042    -2.4299     0.7904 C.ar    
  33 C33           10.8333    -2.5502    -0.4362 C.ar    
  34 C34           12.2343    -2.7335    -0.4472 C.ar    
  35 C35           12.9420    -2.8629    -1.6516 C.ar    
  36 C36           14.2953    -3.0383    -1.6245 C.ar    
  37 C37           14.9852    -3.0903    -0.4048 C.ar    
  38 C38           14.3211    -2.9675     0.7815 C.ar    
  39 C39           12.9282    -2.7856     0.7863 C.ar    
  40 O40           16.3327    -3.2656    -0.4037 O.3     
  41 C41           16.9801    -3.3105     0.8694 C.3     
  42 O42           14.9813    -3.1642    -2.7917 O.3     
  43 C43           14.2216    -3.1032    -4.0005 C.3     
  44 H44            4.1334    -2.0653    -1.7167 H       
  45 H45           -1.3390    -0.8388     1.1276 H       
  46 H46           -3.5775    -1.7192     0.6070 H       
  47 H47           -4.1512    -2.3399    -1.7044 H       
  48 H48           -2.4895    -2.0824    -3.5014 H       
  49 H49           -0.2514    -1.1938    -2.9930 H       
  50 H50            1.2088     2.8137     2.0056 H       
  51 H51            6.2187     4.4506     2.2925 H       
  52 H52            6.7302     2.7702     2.0044 H       
  53 H53            6.4516     3.8640     0.6281 H       
  54 H54           -1.1157     1.1890     0.4929 H       
  55 H55           -0.0332     1.4525     1.8811 H       
  56 H56            0.0269     2.5538     0.4840 H       
  57 H57            6.6636     0.3695    -1.0682 H       
  58 H58            9.1001    -0.0899    -1.1931 H       
  59 H59            8.1703    -4.2185    -1.8198 H       
  60 H60           10.4528    -2.3964     2.9098 H       
  61 H61            9.1345    -2.2894     0.8398 H       
  62 H62           12.4185    -2.8244    -2.5955 H       
  63 H63           14.8650    -3.0095     1.7136 H       
  64 H64           16.8062    -2.3736     1.3986 H       
  65 H65           16.5766    -4.1378     1.4533 H       
  66 H66           18.0512    -3.4543     0.7275 H       
  67 H67           14.8887    -3.2168    -4.8550 H       
  68 H68           13.4835    -3.9052    -4.0066 H       
  69 H69           13.7132    -2.1410    -4.0619 H       
@<TRIPOS>BOND
   1    1    2 1
   2    1    5 1
   3    1   22 1
   4    2    3 am
   5    2    9 1
   6    3    4 1
   7    3   15 2
   8    4    5 2
   9    4    6 1
  10    5   19 1
  11    6    7 2
  12    6    8 am
  13    8   23 1
  14    8   44 1
  15    9   10 ar
  16    9   14 ar
  17   10   11 ar
  18   10   45 1
  19   11   12 ar
  20   11   46 1
  21   12   13 ar
  22   12   47 1
  23   13   14 ar
  24   13   48 1
  25   14   49 1
  26   16   17 1
  27   16   20 1
  28   17   18 2
  29   17   21 1
  30   18   19 1
  31   19   20 2
  32   20   50 1
  33   21   51 1
  34   21   52 1
  35   21   53 1
  36   22   54 1
  37   22   55 1
  38   22   56 1
  39   23   24 ar
  40   23   28 ar
  41   24   25 ar
  42   24   57 1
  43   25   26 ar
  44   25   58 1
  45   26   27 ar
  46   26   29 1
  47   27   28 ar
  48   27   59 1
  49   29   33 1
  50   30   31 ar
  51   30   39 ar
  52   31   32 ar
  53   31   60 1
  54   32   33 ar
  55   32   61 1
  56   33   34 ar
  57   34   35 ar
  58   34   39 ar
  59   35   36 ar
  60   35   62 1
  61   36   37 ar
  62   36   42 1
  63   37   38 ar
  64   37   40 1
  65   38   39 ar
  66   38   63 1
  67   40   41 1
  68   41   64 1
  69   41   65 1
  70   41   66 1
  71   42   43 1
  72   43   67 1
  73   43   68 1
  74   43   69 1

#	End of record

