#	Name: ASD01209019
#	Creating user name:	WinNT
#	Creation time:	15. 06. 2019 19:10

#	Modifying user name:	WinNT
#	Modification time:	15. 06. 2019 19:10

#	Program:	/corina/corina34_cracker 3.40 0067  02.08.2006

@<TRIPOS>MOLECULE
ASD01209019
  67   70    0    0    0
SMALL
NO_CHARGES


@<TRIPOS>ATOM
   1 S1            -0.1892     0.7861     0.3796 S.o2    
   2 C2            -2.0843    -0.8920    -6.0977 C.3     
   3 C3            -3.5483    -1.0325    -5.6761 C.3     
   4 C4            -3.9334     0.1401    -4.7720 C.3     
   5 C5            -5.4044     0.0664    -4.4529 C.2     
   6 O6            -5.7682    -0.1714    -3.3206 O.2     
   7 N7            -3.1603     0.0731    -3.5294 N.pl3   
   8 C8            -2.2985     1.0392    -3.0748 C.ar    
   9 C9            -1.7741     0.5719    -1.8548 C.ar    
  10 C10           -2.3827    -0.7333    -1.6191 C.2     
  11 N11           -3.1866    -0.9832    -2.6130 N.2     
  12 N12           -6.3158     0.2647    -5.4258 N.am    
  13 C13           -1.8958     2.2782    -3.5672 C.ar    
  14 C14           -0.9975     3.0326    -2.8689 C.ar    
  15 C15           -0.4726     2.5790    -1.6597 C.ar    
  16 C16           -0.8546     1.3567    -1.1489 C.ar    
  17 C17           -7.6710     0.2950    -5.1137 C.2     
  18 S18           -8.9793     0.5431    -6.2669 S.3     
  19 C19          -10.1526     0.4132    -4.9582 C.2     
  20 C20           -9.4875     0.2041    -3.8199 C.2     
  21 N21           -8.1735     0.1396    -3.9274 N.2     
  22 F22          -11.4942     0.5092    -5.0851 F       
  23 C23           -1.3384     1.4127     1.6355 C.3     
  24 C24           -0.9741     1.1834     3.1037 C.3     
  25 C25           -0.8698     2.5852     2.4996 C.3     
  26 O26           -0.2713    -0.6298     0.2907 O.2     
  27 O27            1.0671     1.4421     0.4816 O.2     
  28 C28           -1.6511    -2.1422    -6.8695 C.3     
  29 C29           -0.2107    -1.9592    -7.3548 C.3     
  30 O30           -0.1281    -0.7855    -8.1657 O.3     
  31 C31           -0.4761     0.4209    -7.4832 C.3     
  32 C32           -1.9271     0.3335    -7.0031 C.3     
  33 O33            0.4207     3.3465    -0.9801 O.3     
  34 C34            0.7737     4.6021    -1.5640 C.3     
  35 F35            1.3444     4.3869    -2.8230 F       
  36 F36           -0.3730     5.3918    -1.7005 F       
  37 H37           -1.4594    -0.7754    -5.2123 H       
  38 H38           -4.1832    -1.0320    -6.5621 H       
  39 H39           -3.6820    -1.9686    -5.1339 H       
  40 H40           -3.7191     1.0787    -5.2831 H       
  41 H41           -2.2025    -1.3753    -0.7696 H       
  42 H42           -6.0266     0.3863    -6.3437 H       
  43 H43           -2.2941     2.6423    -4.5027 H       
  44 H44           -0.6903     3.9923    -3.2575 H       
  45 H45           -9.9925     0.0904    -2.8721 H       
  46 H46           -2.3942     1.3753     1.3672 H       
  47 H47           -1.7902     0.9954     3.8013 H       
  48 H48           -0.0439     0.6559     3.3149 H       
  49 H49            0.1290     2.9800     2.3135 H       
  50 H50           -1.6173     3.3195     2.7999 H       
  51 H51           -1.7072    -3.0120    -6.2150 H       
  52 H52           -2.3086    -2.2872    -7.7267 H       
  53 H53            0.4519    -1.8548    -6.4956 H       
  54 H54            0.0885    -2.8280    -7.9413 H       
  55 H55            0.1830     0.5564    -6.6257 H       
  56 H56           -0.3681     1.2667    -8.1622 H       
  57 H57           -2.5902     0.2386    -7.8630 H       
  58 H58           -2.1807     1.2342    -6.4441 H       
  59 H59            1.4918     5.1123    -0.9220 H       
  60 C60            7.4937    12.2989     9.7065 C.3     
  61 C61            7.5144    10.7690     9.6981 C.3     
  62 H62            8.5163    12.6762     9.6988 H       
  63 H63            6.9665    12.6600     8.8235 H       
  64 H64            6.9835    12.6504    10.6033 H       
  65 H65            8.0416    10.4080    10.5812 H       
  66 H66            6.4918    10.3918     9.7059 H       
  67 H67            8.0246    10.4175     8.8013 H       
@<TRIPOS>BOND
   1    1   26 2
   2    1   27 2
   3    1   16 1
   4    1   23 1
   5    2    3 1
   6    2   28 1
   7    2   32 1
   8    2   37 1
   9    3    4 1
  10    3   38 1
  11    3   39 1
  12    4    7 1
  13    4    5 1
  14    4   40 1
  15    5    6 2
  16    5   12 am
  17    7    8 1
  18    7   11 1
  19    8    9 ar
  20    8   13 ar
  21    9   10 1
  22    9   16 ar
  23   10   11 2
  24   10   41 1
  25   12   17 1
  26   12   42 1
  27   13   14 ar
  28   13   43 1
  29   14   15 ar
  30   14   44 1
  31   15   16 ar
  32   15   33 1
  33   17   18 1
  34   17   21 2
  35   18   19 1
  36   19   20 2
  37   19   22 1
  38   20   21 1
  39   20   45 1
  40   23   24 1
  41   23   25 1
  42   23   46 1
  43   24   25 1
  44   24   47 1
  45   24   48 1
  46   25   49 1
  47   25   50 1
  48   28   29 1
  49   28   51 1
  50   28   52 1
  51   29   30 1
  52   29   53 1
  53   29   54 1
  54   30   31 1
  55   31   32 1
  56   31   55 1
  57   31   56 1
  58   32   57 1
  59   32   58 1
  60   33   34 1
  61   34   35 1
  62   34   36 1
  63   34   59 1
  64   60   61 1
  65   60   62 1
  66   60   63 1
  67   60   64 1
  68   61   65 1
  69   61   66 1
  70   61   67 1

#	End of record

