#	Name: ASD01911346
#	Creating user name:	WinNT
#	Creation time:	15. 06. 2019 19:57

#	Modifying user name:	WinNT
#	Modification time:	15. 06. 2019 19:57

#	Program:	/corina/corina34_cracker 3.40 0067  02.08.2006

@<TRIPOS>MOLECULE
ASD01911346
  38   40    0    0    0
SMALL
NO_CHARGES


@<TRIPOS>ATOM
   1 C1            -0.0173     1.4278     0.0099 C.ar    
   2 C2             0.0021    -0.0041     0.0020 C.1     
   3 C3             0.0180    -1.1779    -0.0044 C.1     
   4 C4             0.0374    -2.6098    -0.0123 C.ar    
   5 N5            -1.1129    -3.2809    -0.0049 N.ar    
   6 C6            -1.1402    -4.5946    -0.0124 C.ar    
   7 C7             0.0524    -5.3255    -0.0293 C.ar    
   8 C8             1.2779    -4.6525    -0.0363 C.ar    
   9 C9             1.2647    -3.2818    -0.0335 C.ar    
  10 C10           -2.4509    -5.3382    -0.0018 C.3     
  11 C11           -2.3259    -6.6236    -0.8161 C.3     
  12 N12           -1.1657    -7.4028    -0.3923 N.am    
  13 C13           -0.0121    -6.7996    -0.0403 C.2     
  14 O14            0.9615    -7.4613     0.2637 O.2     
  15 C15           -1.2565    -8.8643    -0.3488 C.3     
  16 C16            1.1810     2.1455     0.0023 C.ar    
  17 C17            1.1534     3.5295     0.0095 C.ar    
  18 C18           -0.0620     4.2008     0.0247 C.ar    
  19 C19           -1.2499     3.4923     0.0322 C.ar    
  20 C20           -1.2359     2.1133     0.0194 C.ar    
  21 O21            2.3169     4.2319     0.0022 O.3     
  22 C22            2.2144     5.6572     0.0103 C.3     
  23 H23            2.2100    -5.1979    -0.0482 H       
  24 H24            2.1911    -2.7267    -0.0391 H       
  25 H25           -2.7187    -5.5851     1.0255 H       
  26 H26           -3.2277    -4.7088    -0.4358 H       
  27 H27           -3.2271    -7.2217    -0.6811 H       
  28 H28           -2.2206    -6.3701    -1.8709 H       
  29 H29           -0.9561    -9.2759    -1.3123 H       
  30 H30           -0.5974    -9.2463     0.4309 H       
  31 H31           -2.2836    -9.1582    -0.1324 H       
  32 H32            2.1258     1.6224    -0.0088 H       
  33 H33           -0.0798     5.2806     0.0310 H       
  34 H34           -2.1916     4.0208     0.0444 H       
  35 H35           -2.1653     1.5633     0.0253 H       
  36 H36            1.6676     5.9871    -0.8730 H       
  37 H37            1.6842     5.9782     0.9069 H       
  38 H38            3.2133     6.0933     0.0032 H       
@<TRIPOS>BOND
   1    1    2 1
   2    1   16 ar
   3    1   20 ar
   4    2    3 3
   5    3    4 1
   6    4    5 ar
   7    4    9 ar
   8    5    6 ar
   9    6    7 ar
  10    6   10 1
  11    7    8 ar
  12    7   13 1
  13    8    9 ar
  14    8   23 1
  15    9   24 1
  16   10   11 1
  17   10   25 1
  18   10   26 1
  19   11   12 1
  20   11   27 1
  21   11   28 1
  22   12   13 am
  23   12   15 1
  24   13   14 2
  25   15   29 1
  26   15   30 1
  27   15   31 1
  28   16   17 ar
  29   16   32 1
  30   17   18 ar
  31   17   21 1
  32   18   19 ar
  33   18   33 1
  34   19   20 ar
  35   19   34 1
  36   20   35 1
  37   21   22 1
  38   22   36 1
  39   22   37 1
  40   22   38 1

#	End of record

