#	Name: ASD01917770
#	Creating user name:	WinNT
#	Creation time:	15. 06. 2019 20:10

#	Modifying user name:	WinNT
#	Modification time:	15. 06. 2019 20:10

#	Program:	/corina/corina34_cracker 3.40 0067  02.08.2006

@<TRIPOS>MOLECULE
ASD01917770
  42   45    0    0    0
SMALL
NO_CHARGES


@<TRIPOS>ATOM
   1 C1            -0.0148     1.3211    -0.0002 C.2     
   2 C2            -0.0104    -0.0258     0.0086 C.2     
   3 C3            -1.2493    -0.8847     0.0262 C.3     
   4 C4            -2.4386    -0.0293     0.4804 C.3     
   5 N5            -2.4052     1.2584    -0.2292 N.am    
   6 C6            -1.2670     2.1626     0.0166 C.3     
   7 C7            -3.3897     1.6029    -1.0828 C.2     
   8 O8            -4.2635     0.8037    -1.3573 O.2     
   9 C9            -3.4069     2.9529    -1.6852 C.ar    
  10 O10            1.2614     1.7271    -0.0200 O.3     
  11 C11            2.0349     0.6299    -0.0196 C.2     
  12 N12            1.2681    -0.4259    -0.0020 N.2     
  13 C13            3.5418     0.6191    -0.0372 C.3     
  14 O14            4.0023     0.6047    -1.3899 O.3     
  15 C15            5.3473     0.5937    -1.5836 C.ar    
  16 C16            5.8638     0.5794    -2.8712 C.ar    
  17 C17            7.2314     0.5682    -3.0655 C.ar    
  18 C18            8.0854     0.5711    -1.9781 C.ar    
  19 C19            7.5732     0.5849    -0.6939 C.ar    
  20 C20            6.2063     0.6024    -0.4943 C.ar    
  21 C21           -2.9670     4.0636    -0.9555 C.ar    
  22 C22           -3.0030     5.3053    -1.5655 C.ar    
  23 C23           -3.4680     5.4084    -2.8641 C.ar    
  24 N24           -3.8768     4.3437    -3.5278 N.ar    
  25 C25           -3.8565     3.1407    -2.9930 C.ar    
  26 H26           -1.4393    -1.2723    -0.9746 H       
  27 H27           -1.1093    -1.7134     0.7203 H       
  28 H28           -3.3694    -0.5479     0.2505 H       
  29 H29           -2.3731     0.1448     1.5544 H       
  30 H30           -1.3779     2.6427     0.9888 H       
  31 H31           -1.2173     2.9179    -0.7677 H       
  32 H32            3.9173     1.5107     0.4650 H       
  33 H33            3.9048    -0.2692     0.4797 H       
  34 H34            5.1971     0.5768    -3.7209 H       
  35 H35            7.6339     0.5567    -4.0676 H       
  36 H36            9.1543     0.5623    -2.1320 H       
  37 H37            8.2423     0.5864     0.1539 H       
  38 H38            5.8067     0.6131     0.5090 H       
  39 H39           -2.6091     3.9543     0.0576 H       
  40 H40           -2.6719     6.1847    -1.0331 H       
  41 H41           -3.4971     6.3761    -3.3426 H       
  42 H42           -4.1992     2.2932    -3.5681 H       
@<TRIPOS>BOND
   1    1    2 2
   2    1   10 1
   3    1    6 1
   4    2    3 1
   5    2   12 1
   6    3    4 1
   7    3   26 1
   8    3   27 1
   9    4    5 1
  10    4   28 1
  11    4   29 1
  12    5    6 1
  13    5    7 am
  14    6   30 1
  15    6   31 1
  16    7    8 2
  17    7    9 1
  18    9   21 ar
  19    9   25 ar
  20   10   11 1
  21   11   12 2
  22   11   13 1
  23   13   14 1
  24   13   32 1
  25   13   33 1
  26   14   15 1
  27   15   16 ar
  28   15   20 ar
  29   16   17 ar
  30   16   34 1
  31   17   18 ar
  32   17   35 1
  33   18   19 ar
  34   18   36 1
  35   19   20 ar
  36   19   37 1
  37   20   38 1
  38   21   22 ar
  39   21   39 1
  40   22   23 ar
  41   22   40 1
  42   23   24 ar
  43   23   41 1
  44   24   25 ar
  45   25   42 1

#	End of record

