#	Name: ASD01915894
#	Creating user name:	WinNT
#	Creation time:	15. 06. 2019 20:06

#	Modifying user name:	WinNT
#	Modification time:	15. 06. 2019 20:06

#	Program:	/corina/corina34_cracker 3.40 0067  02.08.2006

@<TRIPOS>MOLECULE
ASD01915894
  28   30    0    0    0
SMALL
NO_CHARGES


@<TRIPOS>ATOM
   1 C1             0.0142     1.2665    -0.7523 C.2     
   2 C2             0.0157    -0.0536    -0.3405 C.2     
   3 C3            -1.2989    -0.8068    -0.2259 C.3     
   4 C4            -2.4038     0.1862     0.1284 C.3     
   5 N5            -2.3821     1.3778    -0.7097 N.am    
   6 C6            -1.2247     1.9694    -1.0920 C.2     
   7 O7            -1.2156     3.0344    -1.6816 O.2     
   8 S8             1.6656     1.8439    -0.7792 S.3     
   9 C9             2.2183     0.3130    -0.2518 C.2     
  10 N10            1.2181    -0.5031    -0.0900 N.2     
  11 H11           -3.2235     1.7585    -1.0063 H       
  12 O12            3.5150    -0.0046    -0.0334 O.3     
  13 C13            4.4400     0.9833    -0.1409 C.ar    
  14 C14            4.5754     1.9195     0.8773 C.ar    
  15 C15            5.5126     2.9233     0.7722 C.ar    
  16 C16            6.3280     2.9996    -0.3602 C.ar    
  17 C17            6.1886     2.0561    -1.3817 C.ar    
  18 C18            5.2528     1.0521    -1.2661 C.ar    
  19 C19            7.3034     4.0419    -0.4738 C.1     
  20 N20            8.0772     4.8687    -0.5639 N.1     
  21 H21           -1.5296    -1.2863    -1.1772 H       
  22 H22           -1.2208    -1.5614     0.5568 H       
  23 H23           -3.3693    -0.3065     0.0140 H       
  24 H24           -2.2860     0.4865     1.1696 H       
  25 H25            3.9446     1.8601     1.7519 H       
  26 H26            5.6169     3.6507     1.5637 H       
  27 H27            6.8167     2.1115    -2.2585 H       
  28 H28            5.1443     0.3226    -2.0551 H       
@<TRIPOS>BOND
   1    1    2 2
   2    1    8 1
   3    1    6 1
   4    2    3 1
   5    2   10 1
   6    3    4 1
   7    3   21 1
   8    3   22 1
   9    4    5 1
  10    4   23 1
  11    4   24 1
  12    5    6 am
  13    5   11 1
  14    6    7 2
  15    8    9 1
  16    9   10 2
  17    9   12 1
  18   12   13 1
  19   13   14 ar
  20   13   18 ar
  21   14   15 ar
  22   14   25 1
  23   15   16 ar
  24   15   26 1
  25   16   17 ar
  26   16   19 1
  27   17   18 ar
  28   17   27 1
  29   18   28 1
  30   19   20 3

#	End of record

