#	Name: ASD01813015
#	Creating user name:	WinNT
#	Creation time:	15. 06. 2019 19:29

#	Modifying user name:	WinNT
#	Modification time:	15. 06. 2019 19:29

#	Program:	/corina/corina34_cracker 3.40 0067  02.08.2006

@<TRIPOS>MOLECULE
ASD01813015
  41   43    0    0    0
SMALL
NO_CHARGES


@<TRIPOS>ATOM
   1 C1            -0.0193     1.3756    -0.0588 C.2     
   2 C2             0.0000    -0.0034    -0.0636 C.2     
   3 N3            -1.1549    -0.6981    -0.0021 N.pl3   
   4 C4            -2.3657    -0.1278     0.0742 C.2     
   5 C5            -2.5233     1.2417     0.0932 C.2     
   6 C6            -1.3111     2.0766     0.0204 C.2     
   7 O7            -1.3749     3.2940     0.0328 O.2     
   8 C8            -1.0815    -2.1611    -0.0201 C.3     
   9 C9            -1.1853    -2.6518    -1.4412 C.2     
  10 C10            1.2258     2.1462    -0.1375 C.2     
  11 C11            2.5313     1.3978     0.0381 C.3     
  12 C12            2.4086     0.0818    -0.7420 C.3     
  13 C13            1.2977    -0.7662    -0.1294 C.3     
  14 C14           -0.2444    -3.4415    -1.9403 C.2     
  15 C15           -0.3462    -3.9226    -3.3339 C.ar    
  16 C16            0.6435    -4.7550    -3.8631 C.ar    
  17 C17            0.5410    -5.2008    -5.1676 C.ar    
  18 C18           -0.5375    -4.8244    -5.9467 C.ar    
  19 C19           -1.5204    -4.0003    -5.4275 C.ar    
  20 C20           -1.4340    -3.5525    -4.1255 C.ar    
  21 F21            1.6977    -5.1226    -3.1023 F       
  22 O22            1.2110     3.3429    -0.3368 O.2     
  23 C23           -3.8601     1.8506     0.1783 C.2     
  24 O24           -4.8474     1.1439     0.2332 O.2     
  25 O25           -3.9898     3.1920     0.1954 O.3     
  26 H26           -3.2414    -0.7582     0.1217 H       
  27 H27           -0.1315    -2.4826     0.4067 H       
  28 H28           -1.9018    -2.5734     0.5674 H       
  29 H29           -2.0261    -2.3602    -2.0531 H       
  30 H30            3.3551     1.9900    -0.3602 H       
  31 H31            2.7001     1.1887     1.0945 H       
  32 H32            2.1697     0.2971    -1.7835 H       
  33 H33            3.3520    -0.4616    -0.6895 H       
  34 H34            1.5892    -1.0623     0.8783 H       
  35 H35            1.1555    -1.6605    -0.7360 H       
  36 H36            0.5964    -3.7331    -1.3284 H       
  37 H37            1.3049    -5.8439    -5.5791 H       
  38 H38           -0.6130    -5.1750    -6.9655 H       
  39 H39           -2.3600    -3.7104    -6.0419 H       
  40 H40           -2.2024    -2.9094    -3.7225 H       
  41 H41           -4.8880     3.5456     0.2522 H       
@<TRIPOS>BOND
   1    1    2 2
   2    1   10 1
   3    1    6 1
   4    2    3 1
   5    2   13 1
   6    3    4 1
   7    3    8 1
   8    4    5 2
   9    4   26 1
  10    5    6 1
  11    5   23 1
  12    6    7 2
  13    8    9 1
  14    8   27 1
  15    8   28 1
  16    9   14 2
  17    9   29 1
  18   10   11 1
  19   10   22 2
  20   11   12 1
  21   11   30 1
  22   11   31 1
  23   12   13 1
  24   12   32 1
  25   12   33 1
  26   13   34 1
  27   13   35 1
  28   14   15 1
  29   14   36 1
  30   15   16 ar
  31   15   20 ar
  32   16   17 ar
  33   16   21 1
  34   17   18 ar
  35   17   37 1
  36   18   19 ar
  37   18   38 1
  38   19   20 ar
  39   19   39 1
  40   20   40 1
  41   23   24 2
  42   23   25 1
  43   25   41 1

#	End of record

