#	Name: ASD08390059
#	Creating user name:	WinNT
#	Creation time:	15. 06. 2019 21:19

#	Modifying user name:	WinNT
#	Modification time:	15. 06. 2019 21:19

#	Program:	/corina/corina34_cracker 3.40 0067  02.08.2006

@<TRIPOS>MOLECULE
ASD08390059
  64   69    0    0    0
SMALL
NO_CHARGES


@<TRIPOS>ATOM
   1 C1            -0.3744     1.6875    -0.1969 C.3     
   2 C2            -0.2585     0.2206     0.2630 C.3     
   3 N3             1.0262     2.0837    -0.4194 N.pl3   
   4 C4             1.8287     1.0100    -0.1319 C.2     
   5 N5             1.1867    -0.0447     0.2486 N.2     
   6 C6             3.3044     1.0553    -0.2470 C.ar    
   7 C7            -1.1636     1.7824    -1.4773 C.ar    
   8 C8            -0.8197     0.0561     1.6768 C.3     
   9 C9             1.5988     4.3256     0.3123 C.ar    
  10 C10            2.8161     4.4885     0.9467 C.ar    
  11 C11            0.4881     5.0162     0.7601 C.ar    
  12 C12            0.5948     5.8696     1.8423 C.ar    
  13 C13            1.8121     6.0321     2.4770 C.ar    
  14 C14            2.9228     5.3419     2.0289 C.ar    
  15 C15            4.1016     0.4690     0.7356 C.ar    
  16 C16            5.4761     0.5145     0.6228 C.ar    
  17 C17            6.0635     1.1404    -0.4620 C.ar    
  18 C18            5.2781     1.7242    -1.4397 C.ar    
  19 C19            3.9024     1.6794    -1.3414 C.ar    
  20 C20           -2.4960     2.1487    -1.4424 C.ar    
  21 C21           -3.2199     2.2357    -2.6168 C.ar    
  22 C22           -2.6112     1.9569    -3.8262 C.ar    
  23 C23           -1.2785     1.5914    -3.8612 C.ar    
  24 C24           -0.5535     1.5086    -2.6871 C.ar    
  25 C25            1.4838     3.4000    -0.8714 C.3     
  26 C26           -0.5840    -1.3552     2.1498 C.2     
  27 C27           -1.4490    -2.3787     2.0709 C.2     
  28 N28           -0.8859    -3.5072     2.6016 N.pl3   
  29 C29            0.3874    -3.2303     3.0462 C.ar    
  30 C30            0.6348    -1.8719     2.7770 C.ar    
  31 C31            1.3776    -3.9960     3.6535 C.ar    
  32 C32            2.5815    -3.4165     3.9886 C.ar    
  33 C33            2.8184    -2.0739     3.7265 C.ar    
  34 C34            1.8628    -1.3053     3.1242 C.ar    
  35 C35           -0.9755    -0.6924    -0.6979 C.2     
  36 O36           -2.1421    -0.9554    -0.5249 O.2     
  37 O37           -0.3183    -1.2134    -1.7459 O.3     
  38 H38           -0.8283     2.3000     0.5821 H       
  39 H39           -0.3197     0.7530     2.3496 H       
  40 H40           -1.8898     0.2629     1.6693 H       
  41 H41            3.6837     3.9487     0.5970 H       
  42 H42           -0.4629     4.8892     0.2642 H       
  43 H43           -0.2727     6.4096     2.1917 H       
  44 H44            1.8956     6.6994     3.3220 H       
  45 H45            3.8737     5.4686     2.5249 H       
  46 H46            3.6441    -0.0194     1.5833 H       
  47 H47            6.0945     0.0608     1.3831 H       
  48 H48            7.1398     1.1738    -0.5458 H       
  49 H49            5.7424     2.2118    -2.2842 H       
  50 H50            3.2902     2.1353    -2.1055 H       
  51 H51           -2.9716     2.3666    -0.4975 H       
  52 H52           -4.2611     2.5212    -2.5895 H       
  53 H53           -3.1770     2.0242    -4.7437 H       
  54 H54           -0.8030     1.3732    -4.8060 H       
  55 H55            0.4877     1.2231    -2.7145 H       
  56 H56            2.4575     3.3011    -1.3512 H       
  57 H57            0.7674     3.8087    -1.5840 H       
  58 H58           -2.4424    -2.3200     1.6512 H       
  59 H59           -1.3194    -4.3732     2.6567 H       
  60 H60            1.2028    -5.0412     3.8619 H       
  61 H61            3.3487    -4.0126     4.4603 H       
  62 H62            3.7676    -1.6349     3.9959 H       
  63 H63            2.0541    -0.2615     2.9234 H       
  64 H64           -0.8203    -1.7935    -2.3346 H       
@<TRIPOS>BOND
   1    1    2 1
   2    1    3 1
   3    1    7 1
   4    1   38 1
   5    2    8 1
   6    2   35 1
   7    2    5 1
   8    3    4 1
   9    3   25 1
  10    4    5 2
  11    4    6 1
  12    6   15 ar
  13    6   19 ar
  14    7   20 ar
  15    7   24 ar
  16    8   26 1
  17    8   39 1
  18    8   40 1
  19    9   10 ar
  20    9   11 ar
  21    9   25 1
  22   10   14 ar
  23   10   41 1
  24   11   12 ar
  25   11   42 1
  26   12   13 ar
  27   12   43 1
  28   13   14 ar
  29   13   44 1
  30   14   45 1
  31   15   16 ar
  32   15   46 1
  33   16   17 ar
  34   16   47 1
  35   17   18 ar
  36   17   48 1
  37   18   19 ar
  38   18   49 1
  39   19   50 1
  40   20   21 ar
  41   20   51 1
  42   21   22 ar
  43   21   52 1
  44   22   23 ar
  45   22   53 1
  46   23   24 ar
  47   23   54 1
  48   24   55 1
  49   25   56 1
  50   25   57 1
  51   26   27 2
  52   26   30 1
  53   27   28 1
  54   27   58 1
  55   28   29 1
  56   28   59 1
  57   29   30 ar
  58   29   31 ar
  59   30   34 ar
  60   31   32 ar
  61   31   60 1
  62   32   33 ar
  63   32   61 1
  64   33   34 ar
  65   33   62 1
  66   34   63 1
  67   35   36 2
  68   35   37 1
  69   37   64 1

#	End of record

