#	Name: ASD00170156
#	Creating user name:	WinNT
#	Creation time:	15. 06. 2019 18:31

#	Modifying user name:	WinNT
#	Modification time:	15. 06. 2019 18:31

#	Program:	/corina/corina34_cracker 3.40 0067  02.08.2006

@<TRIPOS>MOLECULE
ASD00170156
  29   30    0    0    0
SMALL
NO_CHARGES


@<TRIPOS>ATOM
   1 C1            -0.0062     1.3210    -0.1236 C.2     
   2 C2             0.0155    -0.0023    -0.1521 C.2     
   3 C3            -1.2924    -0.5981     0.0234 C.2     
   4 C4            -2.2856     0.3405     0.1833 C.2     
   5 S5            -1.6374     1.9159     0.1276 S.3     
   6 N6            -3.6212     0.0469     0.3686 N.pl3   
   7 C7            -1.5318    -2.0409     0.0299 C.2     
   8 C8            -1.5300    -2.7852     1.3084 C.ar    
   9 O9            -1.7325    -2.6294    -1.0170 O.2     
  10 C10            1.2088     2.1989    -0.2795 C.3     
  11 C11            1.2743    -0.8074    -0.3479 C.3     
  12 C12           -1.8489    -4.1435     1.3286 C.ar    
  13 C13           -1.8455    -4.8323     2.5255 C.ar    
  14 C14           -1.5269    -4.1774     3.7031 C.ar    
  15 C15           -1.2103    -2.8305     3.6886 C.ar    
  16 C16           -1.2038    -2.1329     2.4986 C.ar    
  17 Cl17          -2.2418    -6.5222     2.5538 Cl      
  18 H18           -3.9282    -0.8716     0.3128 H       
  19 H19           -4.2531     0.7589     0.5546 H       
  20 H20            1.3570     2.4301    -1.3344 H       
  21 H21            1.0626     3.1240     0.2781 H       
  22 H22            2.0855     1.6776     0.1048 H       
  23 H23            1.7233    -1.0214     0.6220 H       
  24 H24            1.0322    -1.7437    -0.8507 H       
  25 H25            1.9778    -0.2394    -0.9566 H       
  26 H26           -2.0982    -4.6547     0.4106 H       
  27 H27           -1.5258    -4.7201     4.6368 H       
  28 H28           -0.9634    -2.3253     4.6106 H       
  29 H29           -0.9564    -1.0817     2.4892 H       
@<TRIPOS>BOND
   1    1    2 2
   2    1   10 1
   3    1    5 1
   4    2    3 1
   5    2   11 1
   6    3    4 2
   7    3    7 1
   8    4    5 1
   9    4    6 1
  10    6   18 1
  11    6   19 1
  12    7    8 1
  13    7    9 2
  14    8   12 ar
  15    8   16 ar
  16   10   20 1
  17   10   21 1
  18   10   22 1
  19   11   23 1
  20   11   24 1
  21   11   25 1
  22   12   13 ar
  23   12   26 1
  24   13   14 ar
  25   13   17 1
  26   14   15 ar
  27   14   27 1
  28   15   16 ar
  29   15   28 1
  30   16   29 1

#	End of record

