#	Name: ASD02198450
#	Creating user name:	WinNT
#	Creation time:	15. 06. 2019 20:19

#	Modifying user name:	WinNT
#	Modification time:	15. 06. 2019 20:19

#	Program:	/corina/corina34_cracker 3.40 0067  02.08.2006

@<TRIPOS>MOLECULE
ASD02198450
  42   43    0    0    0
SMALL
NO_CHARGES


@<TRIPOS>ATOM
   1 C1            -0.1729     1.5868     0.4044 C.ar    
   2 N2            -0.1701     0.2795     0.2261 N.ar    
   3 C3             0.9689    -0.3949     0.1150 C.ar    
   4 N4             2.1499     0.2047     0.1769 N.ar    
   5 C5             2.2374     1.5155     0.3542 C.ar    
   6 C6             1.0498     2.2664     0.4765 C.ar    
   7 C7             5.2832     1.1095     1.5335 C.ar    
   8 C8             4.5551     1.3396     0.3770 C.ar    
   9 O9             3.4448     2.1223     0.4171 O.3     
  10 C10            6.4172     0.3098     1.4889 C.ar    
  11 C11            6.8183    -0.2570     0.2856 C.ar    
  12 C12            6.0895    -0.0251    -0.8651 C.ar    
  13 C13            4.9607     0.7706    -0.8225 C.ar    
  14 N14            7.1541     0.0758     2.6521 N.am    
  15 S15            8.6204     0.8149     2.8661 S.o2    
  16 O16            9.0552     0.3677     4.1429 O.2     
  17 O17            9.3499     0.4934     1.6898 O.2     
  18 C18            8.2322     2.5863     2.9103 C.3     
  19 C19            1.0941     3.7231     0.6739 C.2     
  20 O20           -0.0523     4.4228     0.7886 O.3     
  21 O21            2.1644     4.2961     0.7337 O.2     
  22 C22            0.0672     5.8570     0.9817 C.3     
  23 C23           -1.3282     6.4751     1.0895 C.3     
  24 S24            0.9085    -2.1399    -0.1213 S.3     
  25 C25           -0.8835    -2.3947    -0.1255 C.3     
  26 H26           -1.1049     2.1259     0.4891 H       
  27 H27            4.9717     1.5550     2.4667 H       
  28 H28            7.7005    -0.8790     0.2495 H       
  29 H29            6.4028    -0.4665    -1.7996 H       
  30 H30            4.3930     0.9497    -1.7236 H       
  31 H31            6.8069    -0.5197     3.3346 H       
  32 H32            7.6177     2.8020     3.7843 H       
  33 H33            9.1575     3.1598     2.9662 H       
  34 H34            7.6882     2.8617     2.0068 H       
  35 H35            0.6241     6.0551     1.8975 H       
  36 H36            0.5941     6.2950     0.1340 H       
  37 H37           -1.2385     7.5517     1.2344 H       
  38 H38           -1.8851     6.2770     0.1737 H       
  39 H39           -1.8551     6.0371     1.9372 H       
  40 H40           -1.0996    -3.4538    -0.2659 H       
  41 H41           -1.3000    -2.0618     0.8252 H       
  42 H42           -1.3300    -1.8220    -0.9383 H       
@<TRIPOS>BOND
   1    1    2 ar
   2    1    6 ar
   3    1   26 1
   4    2    3 ar
   5    3    4 ar
   6    3   24 1
   7    4    5 ar
   8    5    6 ar
   9    5    9 1
  10    6   19 1
  11    7    8 ar
  12    7   10 ar
  13    7   27 1
  14    8    9 1
  15    8   13 ar
  16   10   11 ar
  17   10   14 1
  18   11   12 ar
  19   11   28 1
  20   12   13 ar
  21   12   29 1
  22   13   30 1
  23   14   15 am
  24   14   31 1
  25   15   16 2
  26   15   17 2
  27   15   18 1
  28   18   32 1
  29   18   33 1
  30   18   34 1
  31   19   20 1
  32   19   21 2
  33   20   22 1
  34   22   23 1
  35   22   35 1
  36   22   36 1
  37   23   37 1
  38   23   38 1
  39   23   39 1
  40   24   25 1
  41   25   40 1
  42   25   41 1
  43   25   42 1

#	End of record

