#	Name: ASD01140399
#	Creating user name:	WinNT
#	Creation time:	15. 06. 2019 19:00

#	Modifying user name:	WinNT
#	Modification time:	15. 06. 2019 19:00

#	Program:	/corina/corina34_cracker 3.40 0067  02.08.2006

@<TRIPOS>MOLECULE
ASD01140399
  50   55    0    0    0
SMALL
NO_CHARGES


@<TRIPOS>ATOM
   1 S1            -0.0211     1.7052     0.0114 S.3     
   2 C2             0.0021    -0.0041     0.0020 C.2     
   3 N3             1.2233    -0.4376    -0.0120 N.2     
   4 C4             2.1810     0.4670    -0.0163 C.2     
   5 C5             1.7402     1.7410    -0.0052 C.2     
   6 O6            -1.0995    -0.7932     0.0087 O.3     
   7 C7            -1.8745    -4.4224     0.5835 C.3     
   8 C8            -2.0385    -2.9010     0.7288 C.3     
   9 C9            -0.8854    -2.2061    -0.0010 C.3     
  10 C10           -0.8169    -2.7009    -1.4486 C.3     
  11 C11           -0.7357    -4.2359    -1.4463 C.3     
  12 C12            0.3457    -4.6507    -0.4222 C.3     
  13 C13           -0.4068    -4.7740     0.9191 C.3     
  14 N14           -2.0057    -4.7436    -0.8626 N.3     
  15 C15           -2.1386    -6.1918    -1.0702 C.3     
  16 C16            4.1805     5.2384    -0.0088 C.ar    
  17 C17            2.7979     5.3666     0.0051 C.ar    
  18 C18            2.3554     6.7738     0.0175 C.ar    
  19 C19            3.4147     7.6701     0.0125 C.ar    
  20 S20            4.9502     6.8177    -0.0071 S.3     
  21 C21            1.9979     4.2105     0.0061 C.ar    
  22 C22            2.5857     2.9540    -0.0068 C.ar    
  23 C23            3.9797     2.8364    -0.0208 C.ar    
  24 C24            4.7632     3.9631    -0.0271 C.ar    
  25 C25            3.1574     9.0470     0.0224 C.ar    
  26 C26            1.8635     9.5130     0.0376 C.ar    
  27 C27            0.8024     8.6209     0.0427 C.ar    
  28 C28            1.0370     7.2673     0.0334 C.ar    
  29 H29            3.2299     0.2099    -0.0271 H       
  30 H30           -2.5823    -4.9727     1.2034 H       
  31 H31           -2.9872    -2.5924     0.2897 H       
  32 H32           -2.0179    -2.6308     1.7846 H       
  33 H33            0.0532    -2.4340     0.5041 H       
  34 H34           -1.7107    -2.3834    -1.9856 H       
  35 H35            0.0682    -2.2892    -1.9336 H       
  36 H36           -0.5381    -4.6380    -2.4400 H       
  37 H37            0.7841    -5.6091    -0.7006 H       
  38 H38            1.1181    -3.8846    -0.3548 H       
  39 H39           -0.0044    -4.0685     1.6460 H       
  40 H40           -0.3385    -5.7929     1.3001 H       
  41 H41           -3.0255    -6.5535    -0.5500 H       
  42 H42           -2.2330    -6.3989    -2.1362 H       
  43 H43           -1.2560    -6.6975    -0.6786 H       
  44 H44            0.9217     4.3009     0.0169 H       
  45 H45            4.4392     1.8591    -0.0304 H       
  46 H46            5.8388     3.8665    -0.0379 H       
  47 H47            3.9800     9.7468     0.0185 H       
  48 H48            1.6737    10.5762     0.0459 H       
  49 H49           -0.2120     8.9912     0.0549 H       
  50 H50            0.2055     6.5781     0.0371 H       
@<TRIPOS>BOND
   1    1    2 1
   2    1    5 1
   3    2    3 2
   4    2    6 1
   5    3    4 1
   6    4    5 2
   7    4   29 1
   8    5   22 1
   9    6    9 1
  10    7    8 1
  11    7   13 1
  12    7   14 1
  13    7   30 1
  14    8    9 1
  15    8   31 1
  16    8   32 1
  17    9   10 1
  18    9   33 1
  19   10   11 1
  20   10   34 1
  21   10   35 1
  22   11   12 1
  23   11   14 1
  24   11   36 1
  25   12   13 1
  26   12   37 1
  27   12   38 1
  28   13   39 1
  29   13   40 1
  30   14   15 1
  31   15   41 1
  32   15   42 1
  33   15   43 1
  34   16   17 ar
  35   16   20 1
  36   16   24 ar
  37   17   18 1
  38   17   21 ar
  39   18   19 ar
  40   18   28 ar
  41   19   20 1
  42   19   25 ar
  43   21   22 ar
  44   21   44 1
  45   22   23 ar
  46   23   24 ar
  47   23   45 1
  48   24   46 1
  49   25   26 ar
  50   25   47 1
  51   26   27 ar
  52   26   48 1
  53   27   28 ar
  54   27   49 1
  55   28   50 1

#	End of record

