#	Name: ASD01900519
#	Creating user name:	WinNT
#	Creation time:	15. 06. 2019 19:52

#	Modifying user name:	WinNT
#	Modification time:	15. 06. 2019 19:52

#	Program:	/corina/corina34_cracker 3.40 0067  02.08.2006

@<TRIPOS>MOLECULE
ASD01900519
  30   32    0    0    0
SMALL
NO_CHARGES


@<TRIPOS>ATOM
   1 C1            -0.7040     2.4108     0.2710 C.2     
   2 C2            -0.4377     0.9438     0.0518 C.3     
   3 O3             0.2157     3.1926     0.3067 O.2     
   4 C4            -1.0608     0.1477     1.1694 C.ar    
   5 C5            -2.3599    -0.3067     1.0516 C.ar    
   6 C6            -2.9333    -1.0407     2.0819 C.ar    
   7 C7            -2.1974    -1.3154     3.2280 C.ar    
   8 C8            -0.8993    -0.8581     3.3392 C.ar    
   9 C9            -0.3296    -0.1319     2.3091 C.ar    
  10 N10           -4.2475    -1.5016     1.9663 N.pl3   
  11 C11           -6.1686    -2.1667     0.4199 C.ar    
  12 C12           -6.2399    -2.3474    -0.9693 C.ar    
  13 C13           -7.4549    -2.7145    -1.5414 C.ar    
  14 C14           -8.5457    -2.8860    -0.7092 C.ar    
  15 C15           -8.4017    -2.6901     0.6568 C.ar    
  16 N16           -7.2453    -2.3440     1.1773 N.ar    
  17 O17           -5.0138    -2.1033    -1.4720 O.3     
  18 N18           -4.1335    -1.7622    -0.4200 N.2     
  19 C19           -4.7773    -1.7822     0.7134 C.2     
  20 H20           -1.7176     2.7635     0.3917 H       
  21 H21           -0.8700     0.6342    -0.8997 H       
  22 H22            0.6379     0.7681     0.0365 H       
  23 H23           -2.9292    -0.0911     0.1595 H       
  24 H24           -2.6404    -1.8856     4.0312 H       
  25 H25           -0.3269    -1.0709     4.2300 H       
  26 H26            0.6873     0.2211     2.3969 H       
  27 H27           -4.7897    -1.6256     2.7610 H       
  28 H28           -7.5433    -2.8611    -2.6078 H       
  29 H29           -9.5033    -3.1703    -1.1198 H       
  30 H30           -9.2554    -2.8248     1.3044 H       
@<TRIPOS>BOND
   1    1    2 1
   2    1    3 2
   3    1   20 1
   4    2    4 1
   5    2   21 1
   6    2   22 1
   7    4    5 ar
   8    4    9 ar
   9    5    6 ar
  10    5   23 1
  11    6    7 ar
  12    6   10 1
  13    7    8 ar
  14    7   24 1
  15    8    9 ar
  16    8   25 1
  17    9   26 1
  18   10   19 1
  19   10   27 1
  20   11   12 ar
  21   11   16 ar
  22   11   19 1
  23   12   13 ar
  24   12   17 1
  25   13   14 ar
  26   13   28 1
  27   14   15 ar
  28   14   29 1
  29   15   16 ar
  30   15   30 1
  31   17   18 1
  32   18   19 2

#	End of record

