#	Name: ASD02030406
#	Creating user name:	WinNT
#	Creation time:	15. 06. 2019 20:15

#	Modifying user name:	WinNT
#	Modification time:	15. 06. 2019 20:15

#	Program:	/corina/corina34_cracker 3.40 0067  02.08.2006

@<TRIPOS>MOLECULE
ASD02030406
  54   57    0    0    0
SMALL
NO_CHARGES


@<TRIPOS>ATOM
   1 N1            -0.1848     1.7473    -0.2376 N.am    
   2 C2            -0.2366     0.2815    -0.3302 C.3     
   3 C3            -1.0377    -0.2569     0.8618 C.3     
   4 N4            -2.2988     0.4918     0.9567 N.am    
   5 C5            -2.2470     1.9576     1.0493 C.3     
   6 C6            -1.4457     2.4956    -0.1370 C.3     
   7 C7             0.9980     2.3933    -0.2392 C.2     
   8 C8             2.2601     1.6247    -0.1945 C.2     
   9 N9             3.4681     2.1280    -0.0594 N.2     
  10 N10            2.3752     0.2867    -0.2791 N.2     
  11 C11            3.6497     0.0001    -0.1989 C.2     
  12 N12            4.3209     1.1621    -0.0617 N.pl3   
  13 O13            1.0271     3.6080    -0.2773 O.2     
  14 C14           -3.4816    -0.1542     0.9583 C.2     
  15 C15           -3.5168    -1.6353     0.9340 C.ar    
  16 O16           -4.5191     0.4779     0.9796 O.2     
  17 C17           -1.1473     3.9810     0.0762 C.3     
  18 C18           -2.2488     2.3094    -1.4259 C.3     
  19 C19            5.7108     1.2961     0.0576 C.ar    
  20 C20            6.2788     2.5553     0.1937 C.ar    
  21 C21            7.6502     2.6840     0.3117 C.ar    
  22 C22            8.4558     1.5590     0.2937 C.ar    
  23 C23            7.8917     0.3037     0.1581 C.ar    
  24 C24            6.5219     0.1689     0.0457 C.ar    
  25 Cl25           8.3623     4.2581     0.4820 Cl      
  26 N26           -2.4216    -2.3245     1.2286 N.ar    
  27 C27           -2.4105    -3.6396     1.2192 C.ar    
  28 C28           -3.5507    -4.3586     0.8984 C.ar    
  29 C29           -4.7170    -3.6784     0.5841 C.ar    
  30 C30           -4.7009    -2.2928     0.6077 C.ar    
  31 C31           -1.1402    -4.3746     1.5615 C.3     
  32 H32           -0.7249    -0.0093    -1.2603 H       
  33 H33            0.7753    -0.1228    -0.3034 H       
  34 H34           -1.2510    -1.3151     0.7111 H       
  35 H35           -0.4634    -0.1238     1.7786 H       
  36 H36           -3.2589     2.3619     1.0225 H       
  37 H37           -1.7587     2.2484     1.9794 H       
  38 H38            4.0848    -0.9877    -0.2333 H       
  39 H39           -0.3991     4.0923     0.8610 H       
  40 H40           -0.7687     4.4122    -0.8506 H       
  41 H41           -2.0616     4.4967     0.3700 H       
  42 H42           -3.1906     2.8528    -1.3488 H       
  43 H43           -1.6758     2.6936    -2.2698 H       
  44 H44           -2.4523     1.2494    -1.5773 H       
  45 H45            5.6502     3.4334     0.2071 H       
  46 H46            9.5270     1.6616     0.3852 H       
  47 H47            8.5229    -0.5725     0.1440 H       
  48 H48            6.0824    -0.8120    -0.0598 H       
  49 H49           -3.5309    -5.4384     0.8928 H       
  50 H50           -5.6186    -4.2160     0.3304 H       
  51 H51           -5.5914    -1.7306     0.3684 H       
  52 H52           -1.1064    -4.5612     2.6349 H       
  53 H53           -1.1143    -5.3240     1.0266 H       
  54 H54           -0.2810    -3.7702     1.2705 H       
@<TRIPOS>BOND
   1    1    2 1
   2    1    7 am
   3    1    6 1
   4    2    3 1
   5    2   32 1
   6    2   33 1
   7    3    4 1
   8    3   34 1
   9    3   35 1
  10    4    5 1
  11    4   14 am
  12    5    6 1
  13    5   36 1
  14    5   37 1
  15    6   17 1
  16    6   18 1
  17    7    8 1
  18    7   13 2
  19    8    9 2
  20    8   10 1
  21    9   12 1
  22   10   11 2
  23   11   12 1
  24   11   38 1
  25   12   19 1
  26   14   15 1
  27   14   16 2
  28   15   26 ar
  29   15   30 ar
  30   17   39 1
  31   17   40 1
  32   17   41 1
  33   18   42 1
  34   18   43 1
  35   18   44 1
  36   19   20 ar
  37   19   24 ar
  38   20   21 ar
  39   20   45 1
  40   21   22 ar
  41   21   25 1
  42   22   23 ar
  43   22   46 1
  44   23   24 ar
  45   23   47 1
  46   24   48 1
  47   26   27 ar
  48   27   28 ar
  49   27   31 1
  50   28   29 ar
  51   28   49 1
  52   29   30 ar
  53   29   50 1
  54   30   51 1
  55   31   52 1
  56   31   53 1
  57   31   54 1

#	End of record

