#	Name: ASD01150525
#	Creating user name:	WinNT
#	Creation time:	15. 06. 2019 19:04

#	Modifying user name:	WinNT
#	Modification time:	15. 06. 2019 19:04

#	Program:	/corina/corina34_cracker 3.40 0067  02.08.2006

@<TRIPOS>MOLECULE
ASD01150525
  53   55    0    0    0
SMALL
NO_CHARGES


@<TRIPOS>ATOM
   1 C1             2.1345     1.3923    -0.9212 C.ar    
   2 C2             2.1551     0.0112    -0.9162 C.ar    
   3 C3             0.4683    -0.0120     0.7918 C.ar    
   4 C4             0.4453     1.3754     0.7897 C.ar    
   5 C5             1.2791     2.0789    -0.0679 C.ar    
   6 N6             1.2589     3.4780    -0.0731 N.am    
   7 C7             0.0822     4.1235    -0.1537 C.2     
   8 N8             0.0259     5.4684    -0.1607 N.am    
   9 C9             1.1618     6.1927    -0.0862 C.2     
  10 C10            2.4522     5.4926     0.0022 C.2     
  11 N11            2.4638     4.1857     0.0115 N.2     
  12 O12            1.1192     7.4089    -0.0924 O.2     
  13 C13           -1.2698     6.1462    -0.2499 C.3     
  14 O14           -0.9485     3.4816    -0.2218 O.2     
  15 C15           -1.8098     6.3821     1.1371 C.ar    
  16 O16            3.6135     6.1933     0.0781 O.3     
  17 C17            4.8232     5.4372     0.1612 C.3     
  18 C18            1.3260    -0.6922    -0.0634 C.ar    
  19 C19           -1.5869     7.5955     1.7596 C.ar    
  20 C20           -2.0881     7.8023     3.0359 C.ar    
  21 C21           -2.7978     6.7763     3.6404 C.ar    
  22 C22           -2.9809     5.5895     2.9557 C.ar    
  23 N23           -2.4944     5.4300     1.7406 N.ar    
  24 N24           -0.3712    -0.7251     1.6547 N.am    
  25 C25           -0.8692    -1.9190     1.2763 C.2     
  26 O26           -0.6760    -2.3274     0.1507 O.2     
  27 C27           -1.6660    -2.7464     2.2517 C.3     
  28 C28           -3.3620     6.9523     5.0266 C.3     
  29 C29           -4.8827     6.7890     4.9828 C.3     
  30 C30           -2.7625     5.8977     5.9590 C.3     
  31 H31            2.7869     1.9392    -1.5858 H       
  32 H32            2.8205    -0.5201    -1.5806 H       
  33 H33           -0.2204     1.9066     1.4539 H       
  34 H34           -1.1455     7.1021    -0.7588 H       
  35 H35           -1.9674     5.5241    -0.8106 H       
  36 H36            4.8000     4.8115     1.0534 H       
  37 H37            4.9190     4.8065    -0.7226 H       
  38 H38            5.6735     6.1170     0.2163 H       
  39 H39            1.3446    -1.7720    -0.0619 H       
  40 H40           -1.0290     8.3727     1.2585 H       
  41 H41           -1.9291     8.7404     3.5469 H       
  42 H42           -3.5323     4.7852     3.4198 H       
  43 H43           -0.5948    -0.3602     2.5252 H       
  44 H44           -1.7334    -2.2205     3.2041 H       
  45 H45           -2.6681    -2.9103     1.8555 H       
  46 H46           -1.1728    -3.7069     2.4012 H       
  47 H47           -3.1140     7.9473     5.3962 H       
  48 H48           -5.3098     7.5403     4.3186 H       
  49 H49           -5.1307     5.7940     4.6132 H       
  50 H50           -5.2908     6.9163     5.9855 H       
  51 H51           -1.6792     6.0141     5.9902 H       
  52 H52           -3.1706     6.0251     6.9616 H       
  53 H53           -3.0106     4.9028     5.5894 H       
@<TRIPOS>BOND
   1    1    2 ar
   2    1    5 ar
   3    1   31 1
   4    2   18 ar
   5    2   32 1
   6    3    4 ar
   7    3   24 1
   8    3   18 ar
   9    4    5 ar
  10    4   33 1
  11    5    6 1
  12    6    7 am
  13    6   11 1
  14    7    8 am
  15    7   14 2
  16    8    9 am
  17    8   13 1
  18    9   10 1
  19    9   12 2
  20   10   11 2
  21   10   16 1
  22   13   15 1
  23   13   34 1
  24   13   35 1
  25   15   19 ar
  26   15   23 ar
  27   16   17 1
  28   17   36 1
  29   17   37 1
  30   17   38 1
  31   18   39 1
  32   19   20 ar
  33   19   40 1
  34   20   21 ar
  35   20   41 1
  36   21   22 ar
  37   21   28 1
  38   22   23 ar
  39   22   42 1
  40   24   25 am
  41   24   43 1
  42   25   26 2
  43   25   27 1
  44   27   44 1
  45   27   45 1
  46   27   46 1
  47   28   29 1
  48   28   30 1
  49   28   47 1
  50   29   48 1
  51   29   49 1
  52   29   50 1
  53   30   51 1
  54   30   52 1
  55   30   53 1

#	End of record

