#	Name: ASD01230728
#	Creating user name:	WinNT
#	Creation time:	15. 06. 2019 19:14

#	Modifying user name:	WinNT
#	Modification time:	15. 06. 2019 19:14

#	Program:	/corina/corina34_cracker 3.40 0067  02.08.2006

@<TRIPOS>MOLECULE
ASD01230728
  27   28    0    0    0
SMALL
NO_CHARGES


@<TRIPOS>ATOM
   1 C1            -0.0169     1.3980     0.0097 C.ar    
   2 C2             0.0021    -0.0041     0.0020 C.ar    
   3 C3             1.2324    -0.6605    -0.0132 C.ar    
   4 C4             2.3882     0.1054    -0.0201 C.ar    
   5 C5             2.2901     1.4830    -0.0118 C.ar    
   6 N6             1.1145     2.0833     0.0026 N.ar    
   7 N7            -1.2310     2.0713     0.0191 N.pl3   
   8 C8            -1.2643    -0.7756     0.0104 C.ar    
   9 C9            -1.4665    -1.7963    -0.9173 C.ar    
  10 C10           -2.6452    -2.5123    -0.9066 C.ar    
  11 C11           -3.6296    -2.2175     0.0267 C.ar    
  12 C12           -3.4313    -1.2017     0.9519 C.ar    
  13 C13           -2.2527    -0.4855     0.9498 C.ar    
  14 O14           -4.7901    -2.9245     0.0345 O.3     
  15 C15           -5.7600    -2.5687     1.0217 C.3     
  16 F16           -6.1352    -1.2324     0.8466 F       
  17 F17           -6.8846    -3.3901     0.8880 F       
  18 F18           -5.2099    -2.7352     2.2972 F       
  19 H19            1.2837    -1.7392    -0.0192 H       
  20 H20            3.3572    -0.3714    -0.0316 H       
  21 H21            3.1905     2.0793    -0.0168 H       
  22 H22           -2.0626     1.5719     0.0203 H       
  23 H23           -1.2478     3.0412     0.0245 H       
  24 H24           -0.7012    -2.0259    -1.6439 H       
  25 H25           -2.8026    -3.3029    -1.6253 H       
  26 H26           -4.1992    -0.9745     1.6765 H       
  27 H27           -2.0971     0.3017     1.6726 H       
@<TRIPOS>BOND
   1    1    2 ar
   2    1    6 ar
   3    1    7 1
   4    2    3 ar
   5    2    8 1
   6    3    4 ar
   7    3   19 1
   8    4    5 ar
   9    4   20 1
  10    5    6 ar
  11    5   21 1
  12    7   22 1
  13    7   23 1
  14    8    9 ar
  15    8   13 ar
  16    9   10 ar
  17    9   24 1
  18   10   11 ar
  19   10   25 1
  20   11   12 ar
  21   11   14 1
  22   12   13 ar
  23   12   26 1
  24   13   27 1
  25   14   15 1
  26   15   16 1
  27   15   17 1
  28   15   18 1

#	End of record

