#	Name: ASD01883008
#	Creating user name:	WinNT
#	Creation time:	15. 06. 2019 19:45

#	Modifying user name:	WinNT
#	Modification time:	15. 06. 2019 19:45

#	Program:	/corina/corina34_cracker 3.40 0067  02.08.2006

@<TRIPOS>MOLECULE
ASD01883008
  48   51    0    0    0
SMALL
NO_CHARGES


@<TRIPOS>ATOM
   1 C1            -0.0415     1.3561    -0.4247 C.ar    
   2 C2            -0.0141    -0.0185    -0.2804 C.ar    
   3 C3             1.1898    -0.6954    -0.3361 C.ar    
   4 C4             2.3664     0.0021    -0.5366 C.ar    
   5 C5             2.3389     1.3765    -0.6818 C.ar    
   6 C6             1.1351     2.0536    -0.6247 C.ar    
   7 C7             1.8152    -2.8277    -1.4371 C.3     
   8 C8             1.2198    -2.1938    -0.1778 C.3     
   9 C9             2.0780    -2.5613     1.0349 C.3     
  10 C10            2.0779    -4.0828     1.2132 C.3     
  11 N11            2.5120    -4.7063    -0.0443 N.pl3   
  12 C12            1.8122    -4.3522    -1.2868 C.3     
  13 N13            5.6610    -7.3908    -0.1030 N.am    
  14 C14            4.5537    -7.7193     0.5882 C.2     
  15 C15            3.4574    -6.8258     0.6305 C.2     
  16 C16            3.5549    -5.6050    -0.0583 C.2     
  17 C17            4.7387    -5.3187    -0.7632 C.2     
  18 C18            5.7557    -6.2079    -0.7642 C.2     
  19 O19            4.4953    -8.7856     1.1769 O.2     
  20 C20            2.2716    -7.1593     1.3606 C.1     
  21 N21            1.3308    -7.4239     1.9399 N.1     
  22 C22            6.7889    -8.3251    -0.1380 C.3     
  23 C23            6.6299    -9.2721    -1.3291 C.3     
  24 C24            7.7707   -10.2524    -1.6093 C.3     
  25 C25            6.4499   -10.7614    -1.0284 C.3     
  26 H26           -0.9826     1.8845    -0.3856 H       
  27 H27           -0.9333    -0.5634    -0.1237 H       
  28 H28            3.3071    -0.5267    -0.5795 H       
  29 H29            3.2581     1.9215    -0.8381 H       
  30 H30            1.1135     3.1274    -0.7385 H       
  31 H31            1.2169    -2.5464    -2.3037 H       
  32 H32            2.8386    -2.4774    -1.5717 H       
  33 H33            0.2052    -2.5637    -0.0300 H       
  34 H34            3.0989    -2.2135     0.8770 H       
  35 H35            1.6667    -2.0903     1.9277 H       
  36 H36            2.7655    -4.3569     2.0134 H       
  37 H37            1.0720    -4.4216     1.4610 H       
  38 H38            0.7846    -4.7131    -1.2429 H       
  39 H39            2.3244    -4.8042    -2.1362 H       
  40 H40            4.8358    -4.3865    -1.2998 H       
  41 H41            6.6595    -5.9771    -1.3084 H       
  42 H42            7.7198    -7.7671    -0.2390 H       
  43 H43            6.8104    -8.9034     0.7857 H       
  44 H44            6.0956    -8.8633    -2.1867 H       
  45 H45            7.9866   -10.4889    -2.6512 H       
  46 H46            8.6344   -10.2227    -0.9450 H       
  47 H47            6.4447   -11.0665     0.0180 H       
  48 H48            5.7969   -11.3327    -1.6882 H       
@<TRIPOS>BOND
   1    1    2 ar
   2    1    6 ar
   3    1   26 1
   4    2    3 ar
   5    2   27 1
   6    3    4 ar
   7    3    8 1
   8    4    5 ar
   9    4   28 1
  10    5    6 ar
  11    5   29 1
  12    6   30 1
  13    7    8 1
  14    7   12 1
  15    7   31 1
  16    7   32 1
  17    8    9 1
  18    8   33 1
  19    9   10 1
  20    9   34 1
  21    9   35 1
  22   10   11 1
  23   10   36 1
  24   10   37 1
  25   11   12 1
  26   11   16 1
  27   12   38 1
  28   12   39 1
  29   13   14 am
  30   13   22 1
  31   13   18 1
  32   14   15 1
  33   14   19 2
  34   15   16 2
  35   15   20 1
  36   16   17 1
  37   17   18 2
  38   17   40 1
  39   18   41 1
  40   20   21 3
  41   22   23 1
  42   22   42 1
  43   22   43 1
  44   23   24 1
  45   23   25 1
  46   23   44 1
  47   24   25 1
  48   24   45 1
  49   24   46 1
  50   25   47 1
  51   25   48 1

#	End of record

