#	Name: ASD06610041
#	Creating user name:	WinNT
#	Creation time:	15. 06. 2019 21:07

#	Modifying user name:	WinNT
#	Modification time:	15. 06. 2019 21:07

#	Program:	/corina/corina34_cracker 3.40 0067  02.08.2006

@<TRIPOS>MOLECULE
ASD06610041
 285  285    0    0    0
SMALL
NO_CHARGES


@<TRIPOS>ATOM
   1 C1            -0.0842     1.5567    -0.3311 C.2     
   2 O2             0.0580     0.3536    -0.2737 O.2     
   3 N3             2.3252     1.6280    -0.6116 N.am    
   4 C4             1.1150     2.4489    -0.5232 C.3     
   5 C5             0.9498     3.2545    -1.8134 C.3     
   6 C6             2.2201     4.0666    -2.0738 C.3     
   7 O7             0.7225     2.3623    -2.9063 O.3     
   8 C8            -3.7136     1.9285    -0.5606 C.2     
   9 O9            -3.7213     3.1360    -0.6738 O.2     
  10 N10           -1.3154     2.0953    -0.2287 N.am    
  11 C11           -2.4819     1.2276    -0.0480 C.3     
  12 C12           -2.6566     0.9111     1.4386 C.3     
  13 C13           -1.4666     0.0826     1.9270 C.3     
  14 C14           -2.7294     2.2167     2.2329 C.3     
  15 C15           -7.2211     1.0109    -1.0279 C.2     
  16 O16           -7.0563    -0.0880    -0.5420 O.2     
  17 N17           -4.8066     1.2135    -0.8931 N.am    
  18 C18           -6.0351     1.9000    -1.3000 C.3     
  19 C19           -5.9696     2.2197    -2.7948 C.3     
  20 C20           -4.8588     3.2058    -3.0494 C.ar    
  21 C21           -3.5825     2.7529    -3.3261 C.ar    
  22 C22           -2.5636     3.6575    -3.5596 C.ar    
  23 C23           -2.8211     5.0149    -3.5168 C.ar    
  24 C24           -4.0977     5.4678    -3.2409 C.ar    
  25 C25           -5.1176     4.5632    -3.0117 C.ar    
  26 C26          -10.7497     0.9493    -1.9809 C.2     
  27 O27          -10.6074     1.8510    -2.7794 O.2     
  28 N28           -8.4648     1.4370    -1.3246 N.am    
  29 C29           -9.6177     0.5726    -1.0601 C.3     
  30 C30          -10.0630     0.7468     0.3932 C.3     
  31 C31           -8.9597     0.2472     1.3281 C.3     
  32 C32           -9.4050     0.4215     2.7814 C.3     
  33 N33           -8.3486    -0.0569     3.6766 N.pl3   
  34 C34           -8.5239    -0.0001     5.0390 C.2     
  35 N35           -7.5840    -0.4257     5.8354 N.2     
  36 N36           -9.6908     0.5056     5.5614 N.pl3   
  37 C37          -14.3316     0.2489    -2.1869 C.2     
  38 O38          -14.3454    -0.2900    -1.1005 O.2     
  39 N39          -11.9202     0.2842    -1.9170 N.am    
  40 C40          -13.0205     0.6504    -2.8122 C.3     
  41 C41          -12.8514    -0.0719    -4.1503 C.3     
  42 O42          -12.9795    -1.4811    -3.9505 O.3     
  43 C43          -17.7925    -0.1097    -3.3079 C.2     
  44 O44          -17.4910     0.0520    -4.4715 O.2     
  45 N45          -15.4887     0.4888    -2.8349 N.am    
  46 C46          -16.7633     0.0985    -2.2270 C.3     
  47 C47          -17.2355     1.2027    -1.2791 C.3     
  48 O48          -17.5208     2.3849    -2.0294 O.3     
  49 C49          -21.4270    -0.4704    -3.4601 C.2     
  50 O50          -21.5606    -0.1818    -2.2897 O.2     
  51 N51          -19.0479    -0.4756    -2.9816 N.am    
  52 C52          -20.0484    -0.6780    -4.0324 C.3     
  53 C53          -19.9325    -2.1021    -4.5796 C.3     
  54 C54          -18.5786    -2.2740    -5.2712 C.3     
  55 C55          -18.4627    -3.6982    -5.8184 C.3     
  56 N56          -17.1663    -3.8628    -6.4806 N.pl3   
  57 C57          -16.8348    -5.0682    -7.0527 C.2     
  58 N58          -17.6739    -6.0645    -7.0058 N.2     
  59 N59          -15.6183    -5.2227    -7.6742 N.pl3   
  60 C60          -24.8569    -1.1690    -4.5139 C.2     
  61 O61          -24.4901    -1.8189    -5.4699 O.2     
  62 N62          -22.5115    -0.6055    -4.2489 N.am    
  63 C63          -23.8516    -0.4037    -3.6926 C.3     
  64 C64          -24.1971     1.0865    -3.7223 C.3     
  65 C65          -23.2528     1.8477    -2.7897 C.3     
  66 C66          -23.5932     3.3155    -2.8190 C.2     
  67 O67          -24.4981     3.7120    -3.5146 O.2     
  68 O68          -22.8910     4.1823    -2.0725 O.3     
  69 C69          -28.4968    -1.2319    -4.8460 C.2     
  70 O70          -28.6333    -0.2490    -4.1489 O.2     
  71 N71          -26.1637    -1.1311    -4.1862 N.am    
  72 C72          -27.1410    -1.8751    -4.9847 C.3     
  73 C73          -27.2094    -3.3211    -4.4894 C.3     
  74 C74          -25.8683    -4.0116    -4.7449 C.3     
  75 C75          -25.9366    -5.4576    -4.2497 C.3     
  76 C76          -24.5955    -6.1482    -4.5052 C.3     
  77 N77          -24.6611    -7.5366    -4.0297 N.3     
  78 C78          -31.9476    -2.1488    -5.6298 C.2     
  79 O79          -31.6408    -3.2892    -5.9060 O.2     
  80 N80          -29.5577    -1.7491    -5.4967 N.am    
  81 C81          -30.8758    -1.1239    -5.3620 C.3     
  82 C82          -31.0023     0.0213    -6.3685 C.3     
  83 C83          -29.9958     1.1198    -6.0205 C.3     
  84 C84          -30.1223     2.2651    -7.0271 C.3     
  85 N85          -29.1586     3.3169    -6.6938 N.pl3   
  86 C86          -29.0877     4.4535    -7.4640 C.2     
  87 N87          -28.2302     5.3893    -7.1674 N.2     
  88 N88          -29.9213     4.6031    -8.5470 N.pl3   
  89 C89          -35.5431    -2.1001    -6.2883 C.2     
  90 O90          -35.5642    -0.8920    -6.3925 O.2     
  91 N91          -33.2472    -1.7982    -5.5623 N.am    
  92 C92          -34.2893    -2.7945    -5.8226 C.3     
  93 C93          -34.5839    -3.5719    -4.5382 C.3     
  94 C94          -33.3468    -4.3762    -4.1338 C.3     
  95 C95          -33.6414    -5.1536    -2.8493 C.3     
  96 N96          -32.4569    -5.9238    -2.4621 N.pl3   
  97 C97          -32.4846    -6.7055    -1.3315 C.2     
  98 N98          -33.5648    -6.7615    -0.6041 N.2     
  99 N99          -31.3730    -7.4283    -0.9681 N.pl3   
 100 C100         -39.0564    -3.0081    -6.7300 C.2     
 101 O101         -38.9059    -4.0802    -6.1834 O.2     
 102 N102         -36.6409    -2.8217    -6.5891 N.am    
 103 C103         -37.8598    -2.1467    -7.0418 C.3     
 104 C104         -37.7811    -1.9102    -8.5513 C.3     
 105 O105         -37.7707    -3.1675    -9.2305 O.3     
 106 C106         -42.5790    -3.0878    -7.7035 C.2     
 107 O107         -42.4224    -2.2328    -8.5493 O.2     
 108 N108         -40.2938    -2.5870    -7.0585 N.am    
 109 C109         -41.4571    -3.4243    -6.7553 C.3     
 110 C110         -41.9103    -3.1663    -5.3170 C.3     
 111 C111         -45.6200    -2.2317    -7.9993 C.2     
 112 O112         -45.2933    -1.7179    -6.9557 O.2     
 113 N113         -43.7565    -3.7371    -7.6117 N.am    
 114 C114         -44.8472    -3.4100    -8.5335 C.3     
 115 C115         -45.7811    -4.6146    -8.6664 C.3     
 116 C116         -45.0402    -5.7556    -9.3145 C.2     
 117 O117         -43.8837    -5.6194    -9.6369 O.2     
 118 O118         -45.6649    -6.9233    -9.5335 O.3     
 119 O119         -46.6713    -1.7530    -8.6829 O.3     
 120 C120           3.5218     2.1543    -0.2836 C.2     
 121 O121           3.5968     3.3073     0.0848 O.2     
 122 C122          22.0995     1.1277     1.9537 C.3     
 123 C123          20.8356     1.9849     2.0460 C.3     
 124 C124          19.6234     1.1537     1.6211 C.3     
 125 C125          18.3595     2.0110     1.7134 C.3     
 126 C126          17.1473     1.1797     1.2885 C.3     
 127 C127          15.8834     2.0370     1.3808 C.3     
 128 C128          14.6712     1.2058     0.9559 C.3     
 129 C129          13.4073     2.0630     1.0482 C.3     
 130 C130          12.1951     1.2318     0.6233 C.3     
 131 C131          10.9312     2.0891     0.7156 C.3     
 132 C132           9.7190     1.2578     0.2907 C.3     
 133 C133           8.4551     2.1151     0.3830 C.3     
 134 C134           7.2429     1.2839    -0.0419 C.3     
 135 C135           5.9789     2.1411     0.0504 C.3     
 136 C136           4.7668     1.3099    -0.3745 C.3     
 137 H137           2.2653     0.7058    -0.9062 H       
 138 H138           1.1996     3.1310     0.3227 H       
 139 H139           0.1006     3.9304    -1.7135 H       
 140 H140           3.0694     3.3907    -2.1737 H       
 141 H141           2.1025     4.6405    -2.9929 H       
 142 H142           2.3935     4.7471    -1.2401 H       
 143 H143           1.4397     1.7307    -3.0541 H       
 144 H144          -1.4292     3.0575    -0.2747 H       
 145 H145          -2.3344     0.3005    -0.6020 H       
 146 H146          -3.5771     0.3456     1.5840 H       
 147 H147          -0.5462     0.6481     1.7817 H       
 148 H148          -1.5912    -0.1429     2.9861 H       
 149 H149          -1.4148    -0.8475     1.3611 H       
 150 H150          -3.5864     2.7998     1.8958 H       
 151 H151          -2.8381     1.9911     3.2938 H       
 152 H152          -1.8155     2.7894     2.0751 H       
 153 H153          -4.7798     0.2443    -0.8631 H       
 154 H154          -6.1381     2.8262    -0.7345 H       
 155 H155          -5.7778     1.3040    -3.3541 H       
 156 H156          -6.9181     2.6499    -3.1162 H       
 157 H157          -3.3812     1.6924    -3.3596 H       
 158 H158          -1.5662     3.3036    -3.7751 H       
 159 H159          -2.0249     5.7216    -3.6985 H       
 160 H160          -4.2989     6.5284    -3.2072 H       
 161 H161          -6.1157     4.9170    -2.7998 H       
 162 H162          -8.5966     2.3159    -1.7132 H       
 163 H163          -9.3396    -0.4671    -1.2327 H       
 164 H164         -10.2562     1.8014     0.5901 H       
 165 H165         -10.9732     0.1724     0.5657 H       
 166 H166          -8.7666    -0.8073     1.1312 H       
 167 H167          -8.0496     0.8217     1.1556 H       
 168 H168          -9.5982     1.4760     2.9783 H       
 169 H169         -10.3151    -0.1530     2.9539 H       
 170 H170          -7.5253    -0.4137     3.3080 H       
 171 H171          -7.7077    -0.3857     6.7966 H       
 172 H172         -10.3903     0.8224     4.9687 H       
 173 H173          -9.8145     0.5457     6.5226 H       
 174 H174         -12.0340    -0.4370    -1.2784 H       
 175 H175         -13.0115     1.7278    -2.9772 H       
 176 H176         -13.6187     0.2676    -4.8460 H       
 177 H177         -11.8658     0.1487    -4.5603 H       
 178 H178         -12.8832    -2.0033    -4.7586 H       
 179 H179         -15.4777     0.9198    -3.7038 H       
 180 H180         -16.6307    -0.8280    -1.6682 H       
 181 H181         -18.1364     0.8754    -0.7602 H       
 182 H182         -16.4532     1.4149    -0.5502 H       
 183 H183         -17.8262     3.1281    -1.4914 H       
 184 H184         -19.2890    -0.6049    -2.0510 H       
 185 H185         -19.8784     0.0359    -4.8384 H       
 186 H186         -20.0142    -2.8145    -3.7586 H       
 187 H187         -20.7327    -2.2818    -5.2975 H       
 188 H188         -18.4969    -1.5617    -6.0921 H       
 189 H189         -17.7784    -2.0944    -4.5533 H       
 190 H190         -18.5444    -4.4106    -4.9974 H       
 191 H191         -19.2629    -3.8778    -6.5363 H       
 192 H192         -16.5419    -3.1214    -6.5155 H       
 193 H193         -17.4401    -6.9150    -7.4094 H       
 194 H194         -14.9938    -4.4813    -7.7091 H       
 195 H195         -15.3844    -6.0732    -8.0778 H       
 196 H196         -22.4046    -0.8363    -5.1850 H       
 197 H197         -23.8754    -0.7617    -2.6633 H       
 198 H198         -24.0870     1.4648    -4.7387 H       
 199 H199         -25.2261     1.2276    -3.3917 H       
 200 H200         -23.3630     1.4694    -1.7734 H       
 201 H201         -22.2238     1.7066    -3.1204 H       
 202 H202         -23.1462     5.1136    -2.1244 H       
 203 H203         -26.4571    -0.6113    -3.4216 H       
 204 H204         -26.8388    -1.8636    -6.0319 H       
 205 H205         -27.4246    -3.3294    -3.4209 H       
 206 H206         -27.9984    -3.8510    -5.0231 H       
 207 H207         -25.6531    -4.0033    -5.8135 H       
 208 H208         -25.0792    -3.4817    -4.2113 H       
 209 H209         -26.1518    -5.4659    -3.1812 H       
 210 H210         -26.7256    -5.9875    -4.7834 H       
 211 H211         -24.3803    -6.1399    -5.5737 H       
 212 H212         -23.8065    -5.6183    -3.9716 H       
 213 H213         -25.4267    -8.0312    -4.4626 H       
 214 H214         -23.7866    -8.0145    -4.1874 H       
 215 H215         -29.4486    -2.5353    -6.0543 H       
 216 H216         -30.9910    -0.7334    -4.3509 H       
 217 H217         -30.7993    -0.3528    -7.3720 H       
 218 H218         -32.0126     0.4288    -6.3302 H       
 219 H219         -30.1988     1.4939    -5.0170 H       
 220 H220         -28.9855     0.7123    -6.0588 H       
 221 H221         -29.9193     1.8910    -8.0305 H       
 222 H222         -31.1326     2.6726    -6.9887 H       
 223 H223         -28.5704     3.2114    -5.9297 H       
 224 H224         -28.1803     6.1912    -7.7109 H       
 225 H225         -30.5595     3.9066    -8.7676 H       
 226 H226         -29.8714     5.4050    -9.0904 H       
 227 H227         -33.4926    -0.8861    -5.3413 H       
 228 H228         -33.9478    -3.4842    -6.5945 H       
 229 H229         -34.8397    -2.8735    -3.7414 H       
 230 H230         -35.4193    -4.2511    -4.7081 H       
 231 H231         -33.0910    -5.0746    -4.9306 H       
 232 H232         -32.5114    -3.6970    -3.9638 H       
 233 H233         -33.8972    -4.4552    -2.0525 H       
 234 H234         -34.4768    -5.8328    -3.0192 H       
 235 H235         -31.6530    -5.8822    -3.0034 H       
 236 H236         -33.5843    -7.3130     0.1935 H       
 237 H237         -30.5691    -7.3867    -1.5093 H       
 238 H238         -31.3925    -7.9798    -0.1704 H       
 239 H239         -36.6241    -3.7880    -6.5057 H       
 240 H240         -37.9572    -1.1900    -6.5287 H       
 241 H241         -38.6458    -1.3302    -8.8738 H       
 242 H242         -36.8683    -1.3628    -8.7863 H       
 243 H243         -37.7219    -3.0939   -10.1935 H       
 244 H244         -40.4142    -1.7295    -7.4956 H       
 245 H245         -41.1882    -4.4745    -6.8687 H       
 246 H246         -42.1792    -2.1160    -5.2036 H       
 247 H247         -42.7758    -3.7893    -5.0914 H       
 248 H248         -41.0988    -3.4096    -4.6311 H       
 249 H249         -43.8818    -4.4210    -6.9353 H       
 250 H250         -44.4343    -3.1608    -9.5110 H       
 251 H251         -46.1243    -4.9191    -7.6777 H       
 252 H252         -46.6393    -4.3429    -9.2812 H       
 253 H253         -45.1485    -7.6258    -9.9518 H       
 254 H254         -47.1358    -0.9959    -8.3005 H       
 255 H255          22.9631     1.7199     2.2564 H       
 256 H256          22.0020     0.2645     2.6122 H       
 257 H257          22.2339     0.7879     0.9268 H       
 258 H258          20.7012     2.3247     3.0729 H       
 259 H259          20.9331     2.8481     1.3875 H       
 260 H260          19.7578     0.8139     0.5942 H       
 261 H261          19.5259     0.2906     2.2796 H       
 262 H262          18.2251     2.3507     2.7403 H       
 263 H263          18.4570     2.8741     1.0549 H       
 264 H264          17.2817     0.8400     0.2616 H       
 265 H265          17.0498     0.3166     1.9470 H       
 266 H266          15.7490     2.3768     2.4077 H       
 267 H267          15.9809     2.9001     0.7223 H       
 268 H268          14.8056     0.8660    -0.0710 H       
 269 H269          14.5737     0.3426     1.6144 H       
 270 H270          13.2729     2.4028     2.0751 H       
 271 H271          13.5048     2.9262     0.3897 H       
 272 H272          12.3294     0.8920    -0.4036 H       
 273 H273          12.0976     0.3687     1.2818 H       
 274 H274          10.7968     2.4288     1.7425 H       
 275 H275          11.0287     2.9522     0.0571 H       
 276 H276           9.8533     0.9180    -0.7362 H       
 277 H277           9.6214     0.3947     0.9492 H       
 278 H278           8.3207     2.4549     1.4099 H       
 279 H279           8.5526     2.9782    -0.2755 H       
 280 H280           7.3772     0.9441    -1.0688 H       
 281 H281           7.1453     0.4207     0.6166 H       
 282 H282           5.8446     2.4809     1.0773 H       
 283 H283           6.0765     3.0043    -0.6081 H       
 284 H284           4.6692     0.4467     0.2840 H       
 285 H285           4.9011     0.9701    -1.4014 H       
@<TRIPOS>BOND
   1    1    2 2
   2    1    4 1
   3    1   10 am
   4    3  120 am
   5    3    4 1
   6    3  137 1
   7    4    5 1
   8    4  138 1
   9    5    6 1
  10    5    7 1
  11    5  139 1
  12    6  140 1
  13    6  141 1
  14    6  142 1
  15    7  143 1
  16    8    9 2
  17    8   11 1
  18    8   17 am
  19   10   11 1
  20   10  144 1
  21   11   12 1
  22   11  145 1
  23   12   13 1
  24   12   14 1
  25   12  146 1
  26   13  147 1
  27   13  148 1
  28   13  149 1
  29   14  150 1
  30   14  151 1
  31   14  152 1
  32   15   16 2
  33   15   18 1
  34   15   28 am
  35   17   18 1
  36   17  153 1
  37   18   19 1
  38   18  154 1
  39   19   20 1
  40   19  155 1
  41   19  156 1
  42   20   21 ar
  43   20   25 ar
  44   21   22 ar
  45   21  157 1
  46   22   23 ar
  47   22  158 1
  48   23   24 ar
  49   23  159 1
  50   24   25 ar
  51   24  160 1
  52   25  161 1
  53   26   27 2
  54   26   29 1
  55   26   39 am
  56   28   29 1
  57   28  162 1
  58   29   30 1
  59   29  163 1
  60   30   31 1
  61   30  164 1
  62   30  165 1
  63   31   32 1
  64   31  166 1
  65   31  167 1
  66   32   33 1
  67   32  168 1
  68   32  169 1
  69   33   34 1
  70   33  170 1
  71   34   35 2
  72   34   36 1
  73   35  171 1
  74   36  172 1
  75   36  173 1
  76   37   38 2
  77   37   40 1
  78   37   45 am
  79   39   40 1
  80   39  174 1
  81   40   41 1
  82   40  175 1
  83   41   42 1
  84   41  176 1
  85   41  177 1
  86   42  178 1
  87   43   44 2
  88   43   46 1
  89   43   51 am
  90   45   46 1
  91   45  179 1
  92   46   47 1
  93   46  180 1
  94   47   48 1
  95   47  181 1
  96   47  182 1
  97   48  183 1
  98   49   50 2
  99   49   52 1
 100   49   62 am
 101   51   52 1
 102   51  184 1
 103   52   53 1
 104   52  185 1
 105   53   54 1
 106   53  186 1
 107   53  187 1
 108   54   55 1
 109   54  188 1
 110   54  189 1
 111   55   56 1
 112   55  190 1
 113   55  191 1
 114   56   57 1
 115   56  192 1
 116   57   58 2
 117   57   59 1
 118   58  193 1
 119   59  194 1
 120   59  195 1
 121   60   61 2
 122   60   63 1
 123   60   71 am
 124   62   63 1
 125   62  196 1
 126   63   64 1
 127   63  197 1
 128   64   65 1
 129   64  198 1
 130   64  199 1
 131   65   66 1
 132   65  200 1
 133   65  201 1
 134   66   67 2
 135   66   68 1
 136   68  202 1
 137   69   70 2
 138   69   72 1
 139   69   80 am
 140   71   72 1
 141   71  203 1
 142   72   73 1
 143   72  204 1
 144   73   74 1
 145   73  205 1
 146   73  206 1
 147   74   75 1
 148   74  207 1
 149   74  208 1
 150   75   76 1
 151   75  209 1
 152   75  210 1
 153   76   77 1
 154   76  211 1
 155   76  212 1
 156   77  213 1
 157   77  214 1
 158   78   79 2
 159   78   81 1
 160   78   91 am
 161   80   81 1
 162   80  215 1
 163   81   82 1
 164   81  216 1
 165   82   83 1
 166   82  217 1
 167   82  218 1
 168   83   84 1
 169   83  219 1
 170   83  220 1
 171   84   85 1
 172   84  221 1
 173   84  222 1
 174   85   86 1
 175   85  223 1
 176   86   87 2
 177   86   88 1
 178   87  224 1
 179   88  225 1
 180   88  226 1
 181   89   90 2
 182   89   92 1
 183   89  102 am
 184   91   92 1
 185   91  227 1
 186   92   93 1
 187   92  228 1
 188   93   94 1
 189   93  229 1
 190   93  230 1
 191   94   95 1
 192   94  231 1
 193   94  232 1
 194   95   96 1
 195   95  233 1
 196   95  234 1
 197   96   97 1
 198   96  235 1
 199   97   98 2
 200   97   99 1
 201   98  236 1
 202   99  237 1
 203   99  238 1
 204  100  101 2
 205  100  103 1
 206  100  108 am
 207  102  103 1
 208  102  239 1
 209  103  104 1
 210  103  240 1
 211  104  105 1
 212  104  241 1
 213  104  242 1
 214  105  243 1
 215  106  107 2
 216  106  109 1
 217  106  113 am
 218  108  109 1
 219  108  244 1
 220  109  110 1
 221  109  245 1
 222  110  246 1
 223  110  247 1
 224  110  248 1
 225  111  112 2
 226  111  114 1
 227  111  119 1
 228  113  114 1
 229  113  249 1
 230  114  115 1
 231  114  250 1
 232  115  116 1
 233  115  251 1
 234  115  252 1
 235  116  117 2
 236  116  118 1
 237  118  253 1
 238  119  254 1
 239  120  121 2
 240  120  136 1
 241  122  123 1
 242  122  255 1
 243  122  256 1
 244  122  257 1
 245  123  124 1
 246  123  258 1
 247  123  259 1
 248  124  125 1
 249  124  260 1
 250  124  261 1
 251  125  126 1
 252  125  262 1
 253  125  263 1
 254  126  127 1
 255  126  264 1
 256  126  265 1
 257  127  128 1
 258  127  266 1
 259  127  267 1
 260  128  129 1
 261  128  268 1
 262  128  269 1
 263  129  130 1
 264  129  270 1
 265  129  271 1
 266  130  131 1
 267  130  272 1
 268  130  273 1
 269  131  132 1
 270  131  274 1
 271  131  275 1
 272  132  133 1
 273  132  276 1
 274  132  277 1
 275  133  134 1
 276  133  278 1
 277  133  279 1
 278  134  135 1
 279  134  280 1
 280  134  281 1
 281  135  136 1
 282  135  282 1
 283  135  283 1
 284  136  284 1
 285  136  285 1

#	End of record

