#	Name: ASD00842021
#	Creating user name:	WinNT
#	Creation time:	15. 06. 2019 18:43

#	Modifying user name:	WinNT
#	Modification time:	15. 06. 2019 18:43

#	Program:	/corina/corina34_cracker 3.40 0067  02.08.2006

@<TRIPOS>MOLECULE
ASD00842021
  94   99    0    0    0
SMALL
NO_CHARGES


@<TRIPOS>ATOM
   1 C1             1.0004     1.5549    -0.3874 C.ar    
   2 C2             1.3082     0.2247    -0.6318 C.ar    
   3 C3             1.2414    -0.7012     0.3995 C.ar    
   4 C4             0.8687    -0.2964     1.6664 C.ar    
   5 C5             0.5618     1.0303     1.9073 C.ar    
   6 C6             0.6281     1.9548     0.8817 C.ar    
   7 C7             1.5747    -2.1473     0.1374 C.3     
   8 C8             1.3089    -2.9850     1.3700 C.2     
   9 C9             0.7706    -2.6744    -1.0528 C.3     
  10 C10           -0.6986    -2.4460    -0.8072 C.2     
  11 N11           -1.6095    -2.9210    -1.6795 N.am    
  12 O12           -1.0612    -1.8347     0.1756 O.2     
  13 C13           -3.0362    -2.6106    -1.5153 C.3     
  14 C14           -3.8283    -3.9218    -1.5069 C.3     
  15 C15           -3.5001    -4.7195    -2.7711 C.3     
  16 C16           -2.0074    -5.0570    -2.7902 C.3     
  17 C17           -1.1941    -3.7540    -2.8163 C.3     
  18 C18           -4.3155    -6.0140    -2.7830 C.3     
  19 C19           -5.8093    -5.6780    -2.7656 C.3     
  20 C20           -6.6196    -6.9741    -2.8392 C.3     
  21 N21           -6.2768    -7.6981    -4.0699 N.3     
  22 C22           -4.8571    -8.0729    -4.0875 C.3     
  23 C23           -3.9941    -6.8096    -4.0512 C.3     
  24 C24           -7.1349    -8.8778    -4.2432 C.3     
  25 O25            0.2386    -3.1384     1.9193 O.2     
  26 N26            2.4806    -3.5272     1.7409 N.am    
  27 C27            3.0576    -2.3138    -0.1058 C.ar    
  28 C28            3.5259    -3.1560     0.8999 C.ar    
  29 C29            3.9057    -1.8132    -1.0608 C.ar    
  30 C30            5.2638    -2.1494    -1.0307 C.ar    
  31 C31            5.7418    -2.9956    -0.0228 C.ar    
  32 C32            4.8792    -3.4931     0.9303 C.ar    
  33 F33            7.0512    -3.3262     0.0150 F       
  34 C34            2.4088    -6.1749     2.4888 C.ar    
  35 C35            1.1647    -6.5620     2.0117 C.ar    
  36 C36            3.4515    -7.0813     2.5181 C.ar    
  37 C37            3.2584    -8.3746     2.0724 C.ar    
  38 C38            2.0158    -8.7668     1.5943 C.ar    
  39 C39            0.9682    -7.8596     1.5642 C.ar    
  40 O40            1.8262   -10.0392     1.1564 O.3     
  41 O41            0.1396    -5.6703     1.9835 O.3     
  42 C42           -1.1133    -6.1379     1.4797 C.3     
  43 C43            2.9497   -10.9202     1.2168 C.3     
  44 O44            1.6742    -0.1712    -1.8793 O.3     
  45 C45            2.1534     0.2139    -4.2165 C.3     
  46 C46            1.6126     0.8107    -2.9157 C.3     
  47 C47            6.1574    -1.6326    -2.0232 C.1     
  48 N48            6.8663    -1.2226    -2.8105 N.1     
  49 S49            2.6613    -4.5241     3.0509 S.o2    
  50 O50            4.0260    -4.4361     3.4370 O.2     
  51 O51            1.5843    -4.2305     3.9301 O.2     
  52 H52            1.0560     2.2783    -1.1874 H       
  53 H53            0.8165    -1.0167     2.4694 H       
  54 H54            0.2699     1.3446     2.8985 H       
  55 H55            0.3879     2.9903     1.0724 H       
  56 H56            1.0738    -2.1480    -1.9579 H       
  57 H57            0.9572    -3.7415    -1.1734 H       
  58 H58           -3.1897    -2.0850    -0.5728 H       
  59 H59           -3.3720    -1.9862    -2.3432 H       
  60 H60           -3.5563    -4.5056    -0.6275 H       
  61 H61           -4.8956    -3.7020    -1.4823 H       
  62 H62           -3.7493    -4.1254    -3.6503 H       
  63 H63           -1.7526    -5.6300    -1.8987 H       
  64 H64           -1.7788    -5.6451    -3.6790 H       
  65 H65           -1.3808    -3.2253    -3.7511 H       
  66 H66           -0.1322    -3.9843    -2.7302 H       
  67 H67           -4.0659    -6.6099    -1.9051 H       
  68 H68           -6.0525    -5.1486    -1.8444 H       
  69 H69           -6.0507    -5.0488    -3.6223 H       
  70 H70           -6.3880    -7.5968    -1.9750 H       
  71 H71           -7.6837    -6.7376    -2.8414 H       
  72 H72           -4.6337    -8.6904    -3.2175 H       
  73 H73           -4.6409    -8.6344    -4.9964 H       
  74 H74           -4.2070    -6.1981    -4.9281 H       
  75 H75           -2.9404    -7.0886    -4.0485 H       
  76 H76           -8.1770    -8.5636    -4.3013 H       
  77 H77           -6.8597    -9.3954    -5.1621 H       
  78 H78           -7.0047    -9.5495    -3.3947 H       
  79 H79            3.5262    -1.1616    -1.8339 H       
  80 H80            5.2532    -4.1455     1.7055 H       
  81 H81            4.4192    -6.7781     2.8898 H       
  82 H82            4.0750    -9.0810     2.0957 H       
  83 H83            0.0005    -8.1629     1.1929 H       
  84 H84           -0.9885    -6.4733     0.4501 H       
  85 H85           -1.4642    -6.9683     2.0923 H       
  86 H86           -1.8428    -5.3287     1.5122 H       
  87 H87            2.6629   -11.9013     0.8383 H       
  88 H88            3.7596   -10.5185     0.6078 H       
  89 H89            3.2837   -11.0128     2.2502 H       
  90 H90            2.1881     0.9869    -4.9841 H       
  91 H91            3.1573    -0.1759    -4.0477 H       
  92 H92            1.5002    -0.5947    -4.5445 H       
  93 H93            0.5779     1.1212    -3.0610 H       
  94 H94            2.2150     1.6744    -2.6342 H       
@<TRIPOS>BOND
   1    1    2 ar
   2    1    6 ar
   3    1   52 1
   4    2    3 ar
   5    2   44 1
   6    3    4 ar
   7    3    7 1
   8    4    5 ar
   9    4   53 1
  10    5    6 ar
  11    5   54 1
  12    6   55 1
  13    7    8 1
  14    7    9 1
  15    7   27 1
  16    8   25 2
  17    8   26 am
  18    9   10 1
  19    9   56 1
  20    9   57 1
  21   10   11 am
  22   10   12 2
  23   11   13 1
  24   11   17 1
  25   13   14 1
  26   13   58 1
  27   13   59 1
  28   14   15 1
  29   14   60 1
  30   14   61 1
  31   15   16 1
  32   15   18 1
  33   15   62 1
  34   16   17 1
  35   16   63 1
  36   16   64 1
  37   17   65 1
  38   17   66 1
  39   18   19 1
  40   18   23 1
  41   18   67 1
  42   19   20 1
  43   19   68 1
  44   19   69 1
  45   20   21 1
  46   20   70 1
  47   20   71 1
  48   21   22 1
  49   21   24 1
  50   22   23 1
  51   22   72 1
  52   22   73 1
  53   23   74 1
  54   23   75 1
  55   24   76 1
  56   24   77 1
  57   24   78 1
  58   26   49 am
  59   26   28 1
  60   27   28 ar
  61   27   29 ar
  62   28   32 ar
  63   29   30 ar
  64   29   79 1
  65   30   31 ar
  66   30   47 1
  67   31   32 ar
  68   31   33 1
  69   32   80 1
  70   34   35 ar
  71   34   36 ar
  72   34   49 1
  73   35   41 1
  74   35   39 ar
  75   36   37 ar
  76   36   81 1
  77   37   38 ar
  78   37   82 1
  79   38   39 ar
  80   38   40 1
  81   39   83 1
  82   40   43 1
  83   41   42 1
  84   42   84 1
  85   42   85 1
  86   42   86 1
  87   43   87 1
  88   43   88 1
  89   43   89 1
  90   44   46 1
  91   45   46 1
  92   45   90 1
  93   45   91 1
  94   45   92 1
  95   46   93 1
  96   46   94 1
  97   47   48 3
  98   49   50 2
  99   49   51 2

#	End of record

