#	Name: ASD00844045
#	Creating user name:	WinNT
#	Creation time:	15. 06. 2019 18:49

#	Modifying user name:	WinNT
#	Modification time:	15. 06. 2019 18:49

#	Program:	/corina/corina34_cracker 3.40 0067  02.08.2006

@<TRIPOS>MOLECULE
ASD00844045
  94   99    0    0    0
SMALL
NO_CHARGES


@<TRIPOS>ATOM
   1 F1            -0.1126    -3.1351     4.7194 F       
   2 N2            -0.0159     1.3183     0.0093 N.ar    
   3 C3             0.0021    -0.0041     0.0020 C.ar    
   4 C4             1.2069    -0.6955    -0.0132 C.ar    
   5 C5             2.3925     0.0180    -0.0207 C.ar    
   6 C6             2.3308     1.4049    -0.0127 C.ar    
   7 C7             1.0980     2.0259     0.0025 C.ar    
   8 C8             1.2224    -2.2024    -0.0209 C.3     
   9 C9             0.4763    -2.7343    -1.2260 C.2     
  10 O10            2.5880    -2.6958    -0.0097 O.3     
  11 C11            3.3814    -2.3221    -1.0313 C.2     
  12 N12            4.6600    -2.7452    -1.0812 N.am    
  13 O13            2.9446    -1.6033    -1.9082 O.2     
  14 C14            5.5437    -2.3488    -2.1881 C.3     
  15 C15            6.8406    -1.7851    -1.5976 C.3     
  16 N16            7.4151    -2.7627    -0.6637 N.3     
  17 C17            6.5188    -3.0021     0.4752 C.3     
  18 C18            5.2104    -3.6107    -0.0270 C.3     
  19 C19            8.7444    -2.3360    -0.2068 C.3     
  20 C20            9.2576    -3.3113     0.8562 C.3     
  21 C21           10.6672    -2.8966     1.2840 C.3     
  22 N22           11.5570    -2.9051     0.1158 N.3     
  23 C23           11.1108    -1.9417    -0.8986 C.3     
  24 C24            9.7145    -2.3278    -1.3915 C.3     
  25 C25           12.9479    -2.6467     0.5116 C.3     
  26 O26            0.7562    -2.5398    -2.3900 O.2     
  27 N27           -0.5539    -3.4626    -0.7639 N.am    
  28 C28            0.4503    -2.7460     1.1593 C.ar    
  29 C29           -0.5978    -3.4898     0.6316 C.ar    
  30 C30            0.6153    -2.6252     2.5208 C.ar    
  31 C31           -0.2711    -3.2506     3.3828 C.ar    
  32 C32           -1.3213    -3.9958     2.8683 C.ar    
  33 C33           -1.4865    -4.1167     1.5019 C.ar    
  34 F34           -2.1867    -4.6064     3.7070 F       
  35 C35           -1.0180    -5.8565    -2.0399 C.ar    
  36 C36            0.1594    -6.0216    -2.7544 C.ar    
  37 C37           -1.6947    -6.9617    -1.5608 C.ar    
  38 C38           -1.1991    -8.2313    -1.7927 C.ar    
  39 C39           -0.0255    -8.3985    -2.5047 C.ar    
  40 C40            0.6545    -7.2969    -2.9862 C.ar    
  41 H41            0.3597    -9.3914    -2.6845 H       
  42 O42            0.8267    -4.9361    -3.2271 O.3     
  43 C43            2.0321    -5.1815    -3.9542 C.3     
  44 C44            2.6372    -3.8498    -4.4028 C.3     
  45 C45           13.8736    -2.9076    -0.6783 C.3     
  46 C46           15.3223    -2.6384    -0.2661 C.3     
  47 O47           -1.1673    -0.6919     0.0099 O.3     
  48 C48           -2.3720     0.0766     0.0260 C.3     
  49 C49           -3.5777    -0.8652     0.0330 C.3     
  50 F50           -3.5507    -1.6659    -1.1140 F       
  51 F51           -3.5280    -1.6782     1.1704 F       
  52 S52           -1.6462    -4.2384    -1.7372 S.o2    
  53 O53           -2.8263    -4.4044    -0.9633 O.2     
  54 O54           -1.6244    -3.5595    -2.9854 O.2     
  55 H55            3.3442    -0.4925    -0.0322 H       
  56 H56            3.2375     1.9916    -0.0178 H       
  57 H57            1.0444     3.1046     0.0084 H       
  58 H58            5.7699    -3.2182    -2.8053 H       
  59 H59            5.0540    -1.5849    -2.7920 H       
  60 H60            7.5507    -1.5887    -2.4009 H       
  61 H61            6.6256    -0.8577    -1.0668 H       
  62 H62            6.9955    -3.6883     1.1753 H       
  63 H63            6.3083    -2.0578     0.9772 H       
  64 H64            4.5005    -3.6837     0.7968 H       
  65 H65            5.4017    -4.6019    -0.4381 H       
  66 H66            8.6793    -1.3346     0.2187 H       
  67 H67            8.5939    -3.2898     1.7205 H       
  68 H68            9.2846    -4.3194     0.4424 H       
  69 H69           10.6371    -1.8939     1.7103 H       
  70 H70           11.0411    -3.5974     2.0304 H       
  71 H71           11.0787    -0.9434    -0.4620 H       
  72 H72           11.8069    -1.9488    -1.7373 H       
  73 H73            9.7487    -3.3204    -1.8407 H       
  74 H74            9.3771    -1.6037    -2.1331 H       
  75 H75           13.0484    -1.6089     0.8294 H       
  76 H76           13.2200    -3.3068     1.3352 H       
  77 H77            1.4351    -2.0439     2.9166 H       
  78 H78           -2.3067    -4.6983     1.1077 H       
  79 H79           -2.6115    -6.8337    -1.0045 H       
  80 H80           -1.7292    -9.0939    -1.4168 H       
  81 H81            1.5707    -7.4281    -3.5428 H       
  82 H82            2.7419    -5.7060    -3.3145 H       
  83 H83            1.8107    -5.7930    -4.8289 H       
  84 H84            1.9274    -3.3253    -5.0424 H       
  85 H85            2.8586    -3.2383    -3.5280 H       
  86 H86            3.5567    -4.0370    -4.9574 H       
  87 H87           13.7732    -3.9454    -0.9960 H       
  88 H88           13.6016    -2.2475    -1.5019 H       
  89 H89           15.4227    -1.6006     0.0517 H       
  90 H90           15.5943    -3.2986     0.5575 H       
  91 H91           15.9818    -2.8243    -1.1138 H       
  92 H92           -2.3931     0.7004     0.9196 H       
  93 H93           -2.4108     0.7099    -0.8602 H       
  94 H94           -4.4966    -0.2790     0.0452 H       
@<TRIPOS>BOND
   1    1   31 1
   2    2    3 ar
   3    2    7 ar
   4    3    4 ar
   5    3   47 1
   6    4    5 ar
   7    4    8 1
   8    5    6 ar
   9    5   55 1
  10    6    7 ar
  11    6   56 1
  12    7   57 1
  13    8    9 1
  14    8   10 1
  15    8   28 1
  16    9   26 2
  17    9   27 am
  18   10   11 1
  19   11   12 am
  20   11   13 2
  21   12   14 1
  22   12   18 1
  23   14   15 1
  24   14   58 1
  25   14   59 1
  26   15   16 1
  27   15   60 1
  28   15   61 1
  29   16   17 1
  30   16   19 1
  31   17   18 1
  32   17   62 1
  33   17   63 1
  34   18   64 1
  35   18   65 1
  36   19   20 1
  37   19   24 1
  38   19   66 1
  39   20   21 1
  40   20   67 1
  41   20   68 1
  42   21   22 1
  43   21   69 1
  44   21   70 1
  45   22   23 1
  46   22   25 1
  47   23   24 1
  48   23   71 1
  49   23   72 1
  50   24   73 1
  51   24   74 1
  52   25   45 1
  53   25   75 1
  54   25   76 1
  55   27   52 am
  56   27   29 1
  57   28   29 ar
  58   28   30 ar
  59   29   33 ar
  60   30   31 ar
  61   30   77 1
  62   31   32 ar
  63   32   33 ar
  64   32   34 1
  65   33   78 1
  66   35   36 ar
  67   35   37 ar
  68   35   52 1
  69   36   42 1
  70   36   40 ar
  71   37   38 ar
  72   37   79 1
  73   38   39 ar
  74   38   80 1
  75   39   40 ar
  76   39   41 1
  77   40   81 1
  78   42   43 1
  79   43   44 1
  80   43   82 1
  81   43   83 1
  82   44   84 1
  83   44   85 1
  84   44   86 1
  85   45   46 1
  86   45   87 1
  87   45   88 1
  88   46   89 1
  89   46   90 1
  90   46   91 1
  91   47   48 1
  92   48   49 1
  93   48   92 1
  94   48   93 1
  95   49   50 1
  96   49   51 1
  97   49   94 1
  98   52   53 2
  99   52   54 2

#	End of record

