#	Name: ASD03090765
#	Creating user name:	WinNT
#	Creation time:	15. 06. 2019 20:29

#	Modifying user name:	WinNT
#	Modification time:	15. 06. 2019 20:29

#	Program:	/corina/corina34_cracker 3.40 0067  02.08.2006

@<TRIPOS>MOLECULE
ASD03090765
  39   41    0    0    0
SMALL
NO_CHARGES


@<TRIPOS>ATOM
   1 O1             0.0021    -0.0041     0.0020 O.2     
   2 C2            -0.0144     1.2086     0.0087 C.2     
   3 C3            -1.3294     1.9442     0.0315 C.3     
   4 C4            -2.2057     1.8638    -1.2202 C.3     
   5 C5            -2.6084     1.1046     0.0457 C.3     
   6 C6            -3.7799     1.6345     0.8318 C.ar    
   7 C7            -4.3005     0.8965     1.8783 C.ar    
   8 C8            -5.3751     1.3825     2.5994 C.ar    
   9 C9            -5.9289     2.6067     2.2741 C.ar    
  10 C10           -5.4077     3.3450     1.2281 C.ar    
  11 C11           -4.3303     2.8610     0.5098 C.ar    
  12 N12            1.1435     1.8983     0.0013 N.am    
  13 C13            2.4220     1.1832    -0.0147 C.3     
  14 C14            3.5713     2.1931    -0.0203 C.3     
  15 C15            4.8864     1.4575    -0.0368 C.ar    
  16 C16            5.4782     1.1265    -1.2414 C.ar    
  17 C17            6.6845     0.4517    -1.2566 C.ar    
  18 C18            7.2993     0.1082    -0.0671 C.ar    
  19 C19            6.7080     0.4400     1.1376 C.ar    
  20 C20            5.5038     1.1186     1.1527 C.ar    
  21 H21           -1.3351     2.8800     0.5904 H       
  22 H22           -2.7881     2.7464    -1.4844 H       
  23 H23           -1.8310     1.2787    -2.0601 H       
  24 H24           -2.4986     0.0202     0.0386 H       
  25 H25           -3.8679    -0.0598     2.1325 H       
  26 H26           -5.7823     0.8057     3.4166 H       
  27 H27           -6.7689     2.9860     2.8370 H       
  28 H28           -5.8405     4.3012     0.9737 H       
  29 H29           -3.9231     3.4378    -0.3074 H       
  30 H30            1.1304     2.8682     0.0067 H       
  31 H31            2.4967     0.5526     0.8712 H       
  32 H32            2.4797     0.5621    -0.9086 H       
  33 H33            3.4966     2.8237    -0.9062 H       
  34 H34            3.5136     2.8141     0.8737 H       
  35 H35            4.9978     1.3948    -2.1708 H       
  36 H36            7.1465     0.1924    -2.1977 H       
  37 H37            8.2415    -0.4197    -0.0789 H       
  38 H38            7.1882     0.1713     2.0669 H       
  39 H39            5.0419     1.3778     2.0939 H       
@<TRIPOS>BOND
   1    1    2 2
   2    2   12 am
   3    2    3 1
   4    3    4 1
   5    3    5 1
   6    3   21 1
   7    4    5 1
   8    4   22 1
   9    4   23 1
  10    5    6 1
  11    5   24 1
  12    6    7 ar
  13    6   11 ar
  14    7    8 ar
  15    7   25 1
  16    8    9 ar
  17    8   26 1
  18    9   10 ar
  19    9   27 1
  20   10   11 ar
  21   10   28 1
  22   11   29 1
  23   12   13 1
  24   12   30 1
  25   13   14 1
  26   13   31 1
  27   13   32 1
  28   14   15 1
  29   14   33 1
  30   14   34 1
  31   15   16 ar
  32   15   20 ar
  33   16   17 ar
  34   16   35 1
  35   17   18 ar
  36   17   36 1
  37   18   19 ar
  38   18   37 1
  39   19   20 ar
  40   19   38 1
  41   20   39 1

#	End of record

