#	Name: ASD01140587
#	Creating user name:	WinNT
#	Creation time:	15. 06. 2019 19:01

#	Modifying user name:	WinNT
#	Modification time:	15. 06. 2019 19:01

#	Program:	/corina/corina34_cracker 3.40 0067  02.08.2006

@<TRIPOS>MOLECULE
ASD01140587
  31   33    0    0    0
SMALL
NO_CHARGES


@<TRIPOS>ATOM
   1 Cl1            3.7292     3.7262    -0.0130 Cl      
   2 O2            -0.0163     1.3522     0.0095 O.3     
   3 N3            -2.4514    -2.5593     0.0127 N.pl3   
   4 N4            -2.5134    -0.3774     0.0250 N.2     
   5 N5             1.1546    -0.6487    -0.0124 N.ar    
   6 C6            -1.1473    -2.1262     0.0020 C.ar    
   7 C7            -1.2020    -0.7212     0.0101 C.ar    
   8 C8             0.0021    -0.0041     0.0020 C.ar    
   9 C9             0.1001    -2.7456    -0.0134 C.ar    
  10 C10           -3.2462    -1.4528     0.0265 C.2     
  11 C11            1.2480     2.0182     0.0010 C.3     
  12 C12            1.0303     3.5094     0.0111 C.ar    
  13 C13           -2.9034    -3.9528     0.0043 C.3     
  14 C14            1.2255    -1.9705    -0.0195 C.ar    
  15 C15            2.1160     4.3673     0.0053 C.ar    
  16 C16           -0.2537     4.0203     0.0204 C.ar    
  17 C17            1.9153     5.7359     0.0146 C.ar    
  18 C18           -0.4536     5.3884     0.0292 C.ar    
  19 C19            0.6305     6.2458     0.0297 C.ar    
  20 H20            0.1768    -3.8229    -0.0197 H       
  21 H21           -4.3261    -1.4662     0.0366 H       
  22 H22            1.8174     1.7282     0.8840 H       
  23 H23            1.8004     1.7377    -0.8958 H       
  24 H24           -3.0039    -4.3084     1.0298 H       
  25 H25           -3.8679    -4.0189    -0.4992 H       
  26 H26           -2.1749    -4.5680    -0.5238 H       
  27 H27            2.1946    -2.4471    -0.0317 H       
  28 H28           -1.1012     3.3508     0.0204 H       
  29 H29            2.7623     6.4060     0.0105 H       
  30 H30           -1.4572     5.7872     0.0358 H       
  31 H31            0.4738     7.3143     0.0369 H       
@<TRIPOS>BOND
   1    1   15 1
   2    2    8 1
   3    2   11 1
   4    3    6 1
   5    3   10 1
   6    3   13 1
   7    4    7 1
   8    4   10 2
   9    5    8 ar
  10    5   14 ar
  11    6    7 ar
  12    6    9 ar
  13    7    8 ar
  14    9   14 ar
  15    9   20 1
  16   10   21 1
  17   11   12 1
  18   11   22 1
  19   11   23 1
  20   12   15 ar
  21   12   16 ar
  22   13   24 1
  23   13   25 1
  24   13   26 1
  25   14   27 1
  26   15   17 ar
  27   16   18 ar
  28   16   28 1
  29   17   19 ar
  30   17   29 1
  31   18   19 ar
  32   18   30 1
  33   19   31 1

#	End of record

