#	Name: ASD04230052
#	Creating user name:	WinNT
#	Creation time:	15. 06. 2019 20:48

#	Modifying user name:	WinNT
#	Modification time:	15. 06. 2019 20:48

#	Program:	/corina/corina34_cracker 3.40 0067  02.08.2006

@<TRIPOS>MOLECULE
ASD04230052
  51   54    0    0    0
SMALL
NO_CHARGES


@<TRIPOS>ATOM
   1 C1             1.5359     4.6863     1.7196 C.ar    
   2 C2             2.5438     5.3841     2.3694 C.ar    
   3 C3             3.8003     4.8590     2.4681 C.ar    
   4 C4             4.0823     3.6081     1.9004 C.ar    
   5 C5             3.0563     2.8818     1.2692 C.ar    
   6 C6             1.7831     3.4397     1.1725 C.ar    
   7 C7             5.3932     3.0678     1.9621 C.2     
   8 C8             5.6627     1.9284     1.2157 C.2     
   9 C9             4.5671     1.3877     0.3905 C.2     
  10 O10            3.2978     1.6422     0.7795 O.3     
  11 C11            6.9878     1.2871     1.2466 C.2     
  12 N12            7.2188     0.1818     0.5108 N.am    
  13 O13            7.8739     1.7548     1.9361 O.2     
  14 C14            8.5059    -0.3623     0.4513 C.ar    
  15 C15            8.6753    -1.7390     0.3691 C.ar    
  16 C16            9.9457    -2.2804     0.3107 C.ar    
  17 C17           11.0532    -1.4569     0.3337 C.ar    
  18 C18           10.8928    -0.0743     0.4160 C.ar    
  19 C19            9.6134     0.4724     0.4687 C.ar    
  20 C20           12.0819     0.8120     0.4419 C.ar    
  21 O21            4.7981     0.7335    -0.6091 O.2     
  22 C22           13.1345     0.5650     1.3307 C.ar    
  23 N23           14.1931     1.3560     1.3521 N.ar    
  24 C24           14.2996     2.3962     0.5472 C.ar    
  25 C25           13.3013     2.7039    -0.3575 C.ar    
  26 C26           12.1727     1.9030    -0.4237 C.ar    
  27 O27           13.0674    -0.4931     2.1763 O.3     
  28 C28           14.1744    -0.6899     3.0583 C.3     
  29 C29           13.9201    -1.9221     3.9288 C.3     
  30 O30            0.7869     2.7610     0.5434 O.3     
  31 C31           -0.4923     3.3951     0.4827 C.3     
  32 F32           -0.3778     4.6117    -0.1985 F       
  33 F33           -1.3927     2.5649    -0.1934 F       
  34 F34           -0.9586     3.6296     1.7807 F       
  35 H35            0.5488     5.1179     1.6441 H       
  36 H36            2.3327     6.3515     2.8007 H       
  37 H37            4.5762     5.4066     2.9825 H       
  38 H38            6.1574     3.5287     2.5704 H       
  39 H39            6.4924    -0.2364     0.0225 H       
  40 H40            7.8120    -2.3877     0.3512 H       
  41 H41           10.0722    -3.3511     0.2472 H       
  42 H42           12.0443    -1.8836     0.2882 H       
  43 H43            9.4840     1.5427     0.5325 H       
  44 H44           15.1815     3.0177     0.5965 H       
  45 H45           13.4017     3.5588    -1.0097 H       
  46 H46           11.3788     2.1225    -1.1223 H       
  47 H47           15.0824    -0.8390     2.4740 H       
  48 H48           14.2920     0.1869     3.6951 H       
  49 H49           14.7644    -2.0723     4.6016 H       
  50 H50           13.0120    -1.7730     4.5131 H       
  51 H51           13.8025    -2.7989     3.2920 H       
@<TRIPOS>BOND
   1    1    2 ar
   2    1    6 ar
   3    1   35 1
   4    2    3 ar
   5    2   36 1
   6    3    4 ar
   7    3   37 1
   8    4    5 ar
   9    4    7 1
  10    5    6 ar
  11    5   10 1
  12    6   30 1
  13    7    8 2
  14    7   38 1
  15    8    9 1
  16    8   11 1
  17    9   10 1
  18    9   21 2
  19   11   12 am
  20   11   13 2
  21   12   14 1
  22   12   39 1
  23   14   15 ar
  24   14   19 ar
  25   15   16 ar
  26   15   40 1
  27   16   17 ar
  28   16   41 1
  29   17   18 ar
  30   17   42 1
  31   18   19 ar
  32   18   20 1
  33   19   43 1
  34   20   22 ar
  35   20   26 ar
  36   22   23 ar
  37   22   27 1
  38   23   24 ar
  39   24   25 ar
  40   24   44 1
  41   25   26 ar
  42   25   45 1
  43   26   46 1
  44   27   28 1
  45   28   29 1
  46   28   47 1
  47   28   48 1
  48   29   49 1
  49   29   50 1
  50   29   51 1
  51   30   31 1
  52   31   32 1
  53   31   33 1
  54   31   34 1

#	End of record

