#	Name: ASD01900140
#	Creating user name:	WinNT
#	Creation time:	15. 06. 2019 19:51

#	Modifying user name:	WinNT
#	Modification time:	15. 06. 2019 19:51

#	Program:	/corina/corina34_cracker 3.40 0067  02.08.2006

@<TRIPOS>MOLECULE
ASD01900140
  58   62    0    0    0
SMALL
NO_CHARGES


@<TRIPOS>ATOM
   1 C1             0.1350     0.8642    -0.2688 C.ar    
   2 C2             0.3154    -0.5028    -0.3065 C.ar    
   3 C3             1.5883    -1.0416    -0.4108 C.ar    
   4 C4             2.6962    -0.2186    -0.4731 C.ar    
   5 C5             2.5328     1.1559    -0.4342 C.ar    
   6 C6             1.2423     1.7061    -0.3380 C.ar    
   7 N7             3.6181     2.0237    -0.4782 N.pl3   
   8 C8             3.4294     3.3642    -1.0439 C.3     
   9 N9             2.1756     3.9459    -0.5629 N.am    
  10 C10            1.1028     3.1723    -0.3025 C.2     
  11 C11            2.0890     5.3301    -0.3688 C.ar    
  12 C12            1.4371     6.1232    -1.3039 C.ar    
  13 C13            1.3522     7.4880    -1.1118 C.ar    
  14 C14            1.9178     8.0668     0.0148 C.ar    
  15 C15            2.5692     7.2751     0.9494 C.ar    
  16 C16            2.6500     5.9095     0.7616 C.ar    
  17 O17            0.0292     3.6801    -0.0406 O.2     
  18 O18            1.8342     9.4108     0.2030 O.3     
  19 C19            4.5991     4.2598    -0.6251 C.3     
  20 C20            3.3940     3.2687    -2.5719 C.3     
  21 C21            3.2641     4.6748    -3.1620 C.3     
  22 N22            4.4031     5.4955    -2.7311 N.3     
  23 C23            4.4339     5.6379    -1.2700 C.3     
  24 C24            4.3835     6.8094    -3.3878 C.3     
  25 C25            2.4389     9.9393     1.3850 C.3     
  26 C26            5.5016     7.6601    -2.8426 C.ar    
  27 C27            6.7771     7.5402    -3.3625 C.ar    
  28 C28            7.8042     8.3210    -2.8625 C.ar    
  29 C29            7.5526     9.2234    -1.8398 C.ar    
  30 C30            6.2750     9.3410    -1.3217 C.ar    
  31 C31            5.2497     8.5635    -1.8273 C.ar    
  32 F32            8.5540     9.9864    -1.3497 F       
  33 F33            9.0510     8.2040    -3.3696 F       
  34 H34           -0.8591     1.2792    -0.1908 H       
  35 H35           -0.5414    -1.1582    -0.2539 H       
  36 H36            1.7150    -2.1137    -0.4433 H       
  37 H37            3.6853    -0.6453    -0.5513 H       
  38 H38            4.4846     1.7479    -0.1407 H       
  39 H39            0.9970     5.6727    -2.1812 H       
  40 H40            0.8455     8.1050    -1.8392 H       
  41 H41            3.0094     7.7265     1.8263 H       
  42 H42            3.1533     5.2927     1.4915 H       
  43 H43            4.6076     4.3641     0.4598 H       
  44 H44            5.5366     3.8129    -0.9561 H       
  45 H45            4.3147     2.8076    -2.9292 H       
  46 H46            2.5403     2.6646    -2.8792 H       
  47 H47            3.2526     4.6123    -4.2501 H       
  48 H48            2.3365     5.1301    -2.8148 H       
  49 H49            3.5019     6.0889    -0.9293 H       
  50 H50            5.2710     6.2751    -0.9848 H       
  51 H51            4.5156     6.6807    -4.4621 H       
  52 H52            3.4283     7.2978    -3.1951 H       
  53 H53            2.3001    11.0201     1.4120 H       
  54 H54            1.9734     9.4912     2.2628 H       
  55 H55            3.5044     9.7098     1.3817 H       
  56 H56            6.9718     6.8369    -4.1586 H       
  57 H57            6.0779    10.0431    -0.5250 H       
  58 H58            4.2518     8.6589    -1.4255 H       
@<TRIPOS>BOND
   1    1    2 ar
   2    1    6 ar
   3    1   34 1
   4    2    3 ar
   5    2   35 1
   6    3    4 ar
   7    3   36 1
   8    4    5 ar
   9    4   37 1
  10    5    7 1
  11    5    6 ar
  12    6   10 1
  13    7    8 1
  14    7   38 1
  15    8    9 1
  16    8   20 1
  17    8   19 1
  18    9   10 am
  19    9   11 1
  20   10   17 2
  21   11   12 ar
  22   11   16 ar
  23   12   13 ar
  24   12   39 1
  25   13   14 ar
  26   13   40 1
  27   14   15 ar
  28   14   18 1
  29   15   16 ar
  30   15   41 1
  31   16   42 1
  32   18   25 1
  33   19   23 1
  34   19   43 1
  35   19   44 1
  36   20   21 1
  37   20   45 1
  38   20   46 1
  39   21   22 1
  40   21   47 1
  41   21   48 1
  42   22   23 1
  43   22   24 1
  44   23   49 1
  45   23   50 1
  46   24   26 1
  47   24   51 1
  48   24   52 1
  49   25   53 1
  50   25   54 1
  51   25   55 1
  52   26   27 ar
  53   26   31 ar
  54   27   28 ar
  55   27   56 1
  56   28   29 ar
  57   28   33 1
  58   29   30 ar
  59   29   32 1
  60   30   31 ar
  61   30   57 1
  62   31   58 1

#	End of record

