#	Name: ASD04550032
#	Creating user name:	WinNT
#	Creation time:	15. 06. 2019 20:49

#	Modifying user name:	WinNT
#	Modification time:	15. 06. 2019 20:49

#	Program:	/corina/corina34_cracker 3.40 0067  02.08.2006

@<TRIPOS>MOLECULE
ASD04550032
  35   36    0    0    0
SMALL
NO_CHARGES


@<TRIPOS>ATOM
   1 C1            -0.0168     1.3895     0.0097 C.ar    
   2 C2             0.0021    -0.0041     0.0020 C.ar    
   3 C3            -1.1853    -0.7077     0.0095 C.ar    
   4 C4            -2.3923    -0.0325     0.0246 C.ar    
   5 C5            -2.4172     1.3508     0.0323 C.ar    
   6 C6            -1.2364     2.0647     0.0308 C.ar    
   7 C7            -3.7363     2.0792     0.0483 C.3     
   8 C8            -4.5428     1.7010    -1.1957 C.3     
   9 C9             1.2555     2.1512     0.0016 C.2     
  10 C10            2.1816     2.0601     1.1563 C.ar    
  11 C11            1.5681     2.9207    -1.0476 C.2     
  12 C12            2.4354     3.1845     1.9400 C.ar    
  13 C13            3.2977     3.0937     3.0136 C.ar    
  14 C14            3.9097     1.8897     3.3126 C.ar    
  15 C15            3.6616     0.7705     2.5384 C.ar    
  16 C16            2.7970     0.8482     1.4656 C.ar    
  17 C17           -4.5082     1.6934     1.2838 C.2     
  18 O18           -4.0356     0.9077     2.0706 O.2     
  19 O19           -5.7208     2.2228     1.5101 O.3     
  20 H20            0.9440    -0.5323    -0.0101 H       
  21 H21           -1.1719    -1.7876     0.0032 H       
  22 H22           -3.3189    -0.5872     0.0301 H       
  23 H23           -1.2569     3.1445     0.0367 H       
  24 H24           -3.5577     3.1544     0.0524 H       
  25 H25           -5.4970     2.2278    -1.1842 H       
  26 H26           -3.9845     1.9800    -2.0894 H       
  27 H27           -4.7215     0.6257    -1.1999 H       
  28 H28            2.4947     3.4754    -1.0535 H       
  29 H29            0.8937     2.9871    -1.8886 H       
  30 H30            1.9584     4.1251     1.7072 H       
  31 H31            3.4954     3.9644     3.6212 H       
  32 H32            4.5841     1.8234     4.1536 H       
  33 H33            4.1422    -0.1669     2.7766 H       
  34 H34            2.6038    -0.0263     0.8620 H       
  35 H35           -6.1776     1.9451     2.3159 H       
@<TRIPOS>BOND
   1    1    2 ar
   2    1    9 1
   3    1    6 ar
   4    2    3 ar
   5    2   20 1
   6    3    4 ar
   7    3   21 1
   8    4    5 ar
   9    4   22 1
  10    5    6 ar
  11    5    7 1
  12    6   23 1
  13    7    8 1
  14    7   17 1
  15    7   24 1
  16    8   25 1
  17    8   26 1
  18    8   27 1
  19    9   10 1
  20    9   11 2
  21   10   12 ar
  22   10   16 ar
  23   11   28 1
  24   11   29 1
  25   12   13 ar
  26   12   30 1
  27   13   14 ar
  28   13   31 1
  29   14   15 ar
  30   14   32 1
  31   15   16 ar
  32   15   33 1
  33   16   34 1
  34   17   18 2
  35   17   19 1
  36   19   35 1

#	End of record

