#	Name: ASD01881340
#	Creating user name:	WinNT
#	Creation time:	15. 06. 2019 19:42

#	Modifying user name:	WinNT
#	Modification time:	15. 06. 2019 19:42

#	Program:	/corina/corina34_cracker 3.40 0067  02.08.2006

@<TRIPOS>MOLECULE
ASD01881340
  39   42    0    0    0
SMALL
NO_CHARGES


@<TRIPOS>ATOM
   1 C1            -0.0169     1.3978     0.0097 C.2     
   2 C2             0.0021    -0.0041     0.0020 C.2     
   3 C3            -1.2218    -0.7047     0.0104 C.2     
   4 C4            -2.3968    -0.0477     0.0252 C.2     
   5 N5            -2.4615     1.3153     0.0327 N.pl3   
   6 C6            -1.3172     2.0713     0.0319 C.2     
   7 C7            -3.5156     2.1914     0.0470 C.2     
   8 C8            -2.9977     3.4378     0.0485 C.2     
   9 N9            -1.6638     3.3458     0.0402 N.2     
  10 C10            1.2864    -0.7371    -0.0152 C.ar    
  11 C11            1.6486    -1.5295     1.0688 C.ar    
  12 C12            2.8615    -2.2154     1.0396 C.ar    
  13 C13            3.7073    -2.1025    -0.0804 C.ar    
  14 C14            3.3246    -1.3028    -1.1550 C.ar    
  15 C15            2.1346    -0.6372    -1.1262 C.ar    
  16 C16           -4.9787     1.8304     0.0585 C.3     
  17 C17            3.5449    -3.1135     1.9746 C.2     
  18 N18            4.8157    -2.8783     0.1699 N.pl3   
  19 C19            4.7020    -3.4725     1.3973 C.2     
  20 C20            5.7250    -4.3938     2.0102 C.3     
  21 C21           -5.5171     1.8381    -1.3736 C.3     
  22 F22           -4.8126     0.9048    -2.1416 F       
  23 F23           -6.8753     1.5030    -1.3629 F       
  24 F24           -5.3557     3.1133    -1.9257 F       
  25 C25            1.2014     2.1503     0.0021 C.1     
  26 N26            2.1679     2.7472    -0.0039 N.1     
  27 H27           -1.2164    -1.7847     0.0046 H       
  28 H28           -3.3152    -0.6160     0.0310 H       
  29 H29           -3.5659     4.3562     0.0579 H       
  30 H30            0.9961    -1.6123     1.9254 H       
  31 H31            3.9704    -1.2134    -2.0160 H       
  32 H32            1.8469    -0.0200    -1.9645 H       
  33 H33           -5.1044     0.8368     0.4887 H       
  34 H34           -5.5276     2.5576     0.6569 H       
  35 H35            3.1858    -3.4266     2.9439 H       
  36 H36            5.5668    -2.9875    -0.4342 H       
  37 H37            5.5052    -5.4224     1.7243 H       
  38 H38            6.7186    -4.1221     1.6536 H       
  39 H39            5.6913    -4.3033     3.0959 H       
@<TRIPOS>BOND
   1    1    2 2
   2    1   25 1
   3    1    6 1
   4    2    3 1
   5    2   10 1
   6    3    4 2
   7    3   27 1
   8    4    5 1
   9    4   28 1
  10    5    6 1
  11    5    7 1
  12    6    9 2
  13    7    8 2
  14    7   16 1
  15    8    9 1
  16    8   29 1
  17   10   11 ar
  18   10   15 ar
  19   11   12 ar
  20   11   30 1
  21   12   13 ar
  22   12   17 1
  23   13   14 ar
  24   13   18 1
  25   14   15 ar
  26   14   31 1
  27   15   32 1
  28   16   21 1
  29   16   33 1
  30   16   34 1
  31   17   19 2
  32   17   35 1
  33   18   19 1
  34   18   36 1
  35   19   20 1
  36   20   37 1
  37   20   38 1
  38   20   39 1
  39   21   22 1
  40   21   23 1
  41   21   24 1
  42   25   26 3

#	End of record

