#	Name: ASD06600029
#	Creating user name:	WinNT
#	Creation time:	15. 06. 2019 21:07

#	Modifying user name:	WinNT
#	Modification time:	15. 06. 2019 21:07

#	Program:	/corina/corina34_cracker 3.40 0067  02.08.2006

@<TRIPOS>MOLECULE
ASD06600029
 288  290    0    0    0
SMALL
NO_CHARGES


@<TRIPOS>ATOM
   1 C1             0.1926    -3.6797    -6.0394 C.2     
   2 O2             0.1217    -4.8574    -5.7583 O.2     
   3 N3             2.5741    -4.0834    -6.2732 N.am    
   4 C4             1.5280    -3.0619    -6.3650 C.3     
   5 C5             1.4940    -2.4929    -7.7849 C.3     
   6 C6             2.7848    -1.7680    -8.0666 C.2     
   7 C7             3.6155    -2.0036    -9.1000 C.2     
   8 N8             4.6595    -1.1269    -8.9768 N.pl3   
   9 C9             4.4303    -0.3856    -7.8716 C.2     
  10 N10            3.3049    -0.7712    -7.3351 N.2     
  11 C11           -3.3170    -2.7289    -6.4160 C.2     
  12 O12           -3.0393    -1.7534    -7.0810 O.2     
  13 N13           -0.9236    -2.9249    -6.0659 N.am    
  14 C14           -2.2226    -3.5269    -5.7553 C.3     
  15 C15           -2.4353    -3.5271    -4.2401 C.3     
  16 C16           -6.9567    -2.5142    -6.1523 C.2     
  17 O17           -7.0281    -3.3527    -5.2789 O.2     
  18 N18           -4.6044    -3.0993    -6.2680 N.am    
  19 C19           -5.6683    -2.3236    -6.9103 C.3     
  20 C20           -5.8492    -2.8025    -8.3522 C.3     
  21 C21           -4.5860    -2.4885    -9.1562 C.3     
  22 C22           -6.0971    -4.3122    -8.3608 C.3     
  23 C23          -10.4347    -1.5086    -6.6573 C.2     
  24 O24          -10.1874    -0.9865    -7.7237 O.2     
  25 N25           -8.0297    -1.7529    -6.4448 N.am    
  26 C26           -9.3125    -2.0110    -5.7860 C.3     
  27 C27           -9.3490    -1.2861    -4.4391 C.3     
  28 C28          -14.0046    -0.8404    -6.2423 C.2     
  29 O29          -13.9539    -1.0101    -5.0425 O.2     
  30 N30          -11.7133    -1.6396    -6.2516 N.am    
  31 C31          -12.8043    -1.1513    -7.0987 C.3     
  32 C32          -13.1736    -2.2251    -8.1241 C.3     
  33 C33          -17.5528    -0.1696    -6.8113 C.2     
  34 O34          -17.4772    -0.4629    -7.9857 O.2     
  35 N35          -15.1346    -0.3739    -6.8096 N.am    
  36 C36          -16.3016    -0.0717    -5.9771 C.3     
  37 C37          -16.1734     1.3453    -5.4143 C.3     
  38 C38          -14.9910     1.4105    -4.4822 C.ar    
  39 C39          -13.7418     1.7413    -4.9742 C.ar    
  40 C40          -12.6563     1.8014    -4.1219 C.ar    
  41 C41          -12.8203     1.5299    -2.7713 C.ar    
  42 O42          -11.7541     1.5887    -1.9308 O.3     
  43 C43          -14.0748     1.1987    -2.2802 C.ar    
  44 C44          -15.1582     1.1450    -3.1357 C.ar    
  45 C45          -21.0499     0.8337    -6.4552 C.2     
  46 O46          -20.8242     1.4640    -5.4440 O.2     
  47 N47          -18.7558     0.0688    -6.2523 N.am    
  48 C48          -19.9721    -0.0263    -7.0633 C.3     
  49 C49          -20.4440    -1.4811    -7.1062 C.3     
  50 C50          -19.4036    -2.3335    -7.8354 C.3     
  51 C51          -19.8755    -3.7883    -7.8783 C.3     
  52 N52          -18.8792    -4.6044    -8.5766 N.pl3   
  53 C53          -19.0876    -5.9537    -8.7389 C.2     
  54 N54          -20.1714    -6.5066    -8.2716 N.2     
  55 N55          -18.1526    -6.7196    -9.3942 N.pl3   
  56 C56          -24.6644     1.2110    -6.8497 C.2     
  57 O57          -24.7450     0.2331    -7.5625 O.2     
  58 N58          -22.2645     0.9024    -7.0351 N.am    
  59 C59          -23.3123     1.7384    -6.4440 C.3     
  60 C60          -23.1565     3.1776    -6.9394 C.3     
  61 C61          -21.8575     3.7465    -6.4296 C.2     
  62 C62          -20.8814     4.2886    -7.1826 C.2     
  63 N63          -19.8885     4.6770    -6.3241 N.pl3   
  64 C64          -20.2928     4.3586    -5.0756 C.2     
  65 N65          -21.4734     3.8070    -5.1460 N.2     
  66 C66          -28.1098     2.4296    -6.7619 C.2     
  67 O67          -27.7662     3.5437    -6.4276 O.2     
  68 N68          -25.7842     1.8261    -6.4205 N.am    
  69 C69          -27.0987     1.3134    -6.8149 C.3     
  70 C70          -27.5197     0.1980    -5.8561 C.3     
  71 C71          -26.5629    -0.9871    -6.0008 C.3     
  72 C72          -26.9840    -2.1026    -5.0420 C.3     
  73 N73          -26.0678    -3.2374    -5.1806 N.pl3   
  74 C74          -26.2488    -4.3645    -4.4144 C.2     
  75 N75          -25.4337    -5.3741    -4.5378 N.2     
  76 N76          -27.2894    -4.4267    -3.5182 N.pl3   
  77 C77          -31.7550     2.6967    -6.8279 C.2     
  78 O78          -31.9004     1.4964    -6.7329 O.2     
  79 N79          -29.3958     2.1899    -7.0861 N.am    
  80 C80          -30.3787     3.2750    -7.0346 C.3     
  81 C81          -30.3459     4.0557    -8.3500 C.3     
  82 C82          -28.9886     4.7458    -8.4997 C.3     
  83 C83          -28.9558     5.5266    -9.8151 C.3     
  84 N84          -27.6562     6.1874    -9.9584 N.pl3   
  85 C85          -27.3927     6.9520   -11.0702 C.2     
  86 N86          -26.2364     7.5399   -11.1978 N.2     
  87 N87          -28.3488     7.0964   -12.0475 N.pl3   
  88 C88          -35.2099     3.8285    -7.0612 C.2     
  89 O89          -34.9486     4.9651    -7.3942 O.2     
  90 N90          -32.8241     3.5135    -6.7485 N.am    
  91 C91          -34.1456     2.9622    -6.4385 C.3     
  92 C92          -34.3402     2.9264    -4.9214 C.3     
  93 C93          -35.6483     2.2046    -4.5919 C.3     
  94 C94          -35.5301     0.7304    -4.9836 C.3     
  95 C95          -35.9265     2.3128    -3.0913 C.3     
  96 C96          -38.8345     3.7128    -7.5220 C.2     
  97 O97          -38.9661     2.8257    -6.7055 O.2     
  98 N98          -36.4522     3.3403    -7.2479 N.am    
  99 C99          -37.4556     4.1413    -7.9535 C.3     
 100 C100         -37.3057     3.9334    -9.4618 C.3     
 101 C101         -35.9535     4.4831    -9.9205 C.3     
 102 C102         -35.7497     4.1644   -11.4030 C.3     
 103 C103         -35.9232     5.9990    -9.7159 C.3     
 104 C104         -42.2529     4.2267    -8.7108 C.2     
 105 O105         -41.8766     4.7562    -9.7350 O.2     
 106 N106         -39.9214     4.3154    -8.0434 N.am    
 107 C107         -41.2619     3.8989    -7.6239 C.3     
 108 C108         -41.6479     4.6388    -6.3416 C.3     
 109 O109         -41.7543     6.0379    -6.6126 O.3     
 110 C110         -44.9742     5.6798    -9.4533 C.2     
 111 O111         -44.5373     6.3624    -8.5571 O.2     
 112 N112         -43.5574     3.9315    -8.5447 N.am    
 113 C113         -44.5208     4.2503    -9.6013 C.3     
 114 C114         -45.7287     3.3179    -9.4884 C.3     
 115 C115         -46.6761     3.5659   -10.6639 C.3     
 116 C116         -47.8197     2.5504   -10.6202 C.3     
 117 C117         -46.4634     3.5920    -8.1746 C.3     
 118 O118         -45.8633     6.1948   -10.3170 O.3     
 119 C119           3.8478    -3.7226    -6.0204 C.2     
 120 O120           4.1280    -2.5524    -5.8689 O.2     
 121 C121          21.9773    -7.5448    -3.2093 C.3     
 122 C122          20.8848    -6.4780    -3.3052 C.3     
 123 C123          19.5411    -7.1489    -3.5974 C.3     
 124 C124          18.4486    -6.0821    -3.6933 C.3     
 125 C125          17.1049    -6.7530    -3.9855 C.3     
 126 C126          16.0124    -5.6862    -4.0814 C.3     
 127 C127          14.6687    -6.3571    -4.3736 C.3     
 128 C128          13.5762    -5.2903    -4.4695 C.3     
 129 C129          12.2325    -5.9612    -4.7617 C.3     
 130 C130          11.1400    -4.8944    -4.8576 C.3     
 131 C131           9.7963    -5.5652    -5.1497 C.3     
 132 C132           8.7038    -4.4984    -5.2457 C.3     
 133 C133           7.3601    -5.1693    -5.5378 C.3     
 134 C134           6.2676    -4.1025    -5.6337 C.3     
 135 C135           4.9239    -4.7734    -5.9259 C.3     
 136 H136           2.3500    -5.0193    -6.3943 H       
 137 H137           1.7397    -2.2603    -5.6573 H       
 138 H138           1.3708    -3.3066    -8.4995 H       
 139 H139           0.6593    -1.7980    -7.8780 H       
 140 H140           3.4835    -2.7425    -9.8766 H       
 141 H141           5.4216    -1.0521    -9.5722 H       
 142 H142           5.0703     0.3991    -7.4961 H       
 143 H143          -0.8669    -1.9830    -6.2908 H       
 144 H144          -2.2460    -4.5518    -6.1256 H       
 145 H145          -2.4119    -2.5023    -3.8698 H       
 146 H146          -3.4018    -3.9751    -4.0090 H       
 147 H147          -1.6437    -4.1043    -3.7622 H       
 148 H148          -4.8265    -3.8795    -5.7362 H       
 149 H149          -5.3990    -1.2674    -6.9094 H       
 150 H150          -6.7015    -2.2918    -8.8004 H       
 151 H151          -3.7564    -3.0855    -8.7774 H       
 152 H152          -4.7552    -2.7264   -10.2064 H       
 153 H153          -4.3464    -1.4297    -9.0576 H       
 154 H154          -6.9971    -4.5359    -7.7880 H       
 155 H155          -6.2260    -4.6534    -9.3880 H       
 156 H156          -5.2448    -4.8229    -7.9126 H       
 157 H157          -7.9526    -1.0342    -7.0916 H       
 158 H158          -9.4292    -3.0827    -5.6251 H       
 159 H159         -10.3034    -1.4781    -3.9489 H       
 160 H160          -8.5373    -1.6495    -3.8088 H       
 161 H161          -9.2322    -0.2144    -4.5999 H       
 162 H162         -11.9111    -2.0572    -5.3988 H       
 163 H163         -12.4846    -0.2478    -7.6179 H       
 164 H164         -13.9854    -1.8618    -8.7543 H       
 165 H165         -12.3054    -2.4499    -8.7435 H       
 166 H166         -13.4933    -3.1286    -7.6049 H       
 167 H167         -15.1753    -0.2382    -7.7692 H       
 168 H168         -16.3561    -0.7855    -5.1551 H       
 169 H169         -16.0297     2.0499    -6.2334 H       
 170 H170         -17.0810     1.6029    -4.8684 H       
 171 H171         -13.6146     1.9526    -6.0256 H       
 172 H172         -11.6806     2.0591    -4.5068 H       
 173 H173         -11.6120     2.4600    -1.5361 H       
 174 H174         -14.2050     0.9865    -1.2292 H       
 175 H175         -16.1358     0.8915    -2.7530 H       
 176 H176         -18.8162     0.3034    -5.3131 H       
 177 H177         -19.7613     0.3173    -8.0761 H       
 178 H178         -20.5696    -1.8524    -6.0891 H       
 179 H179         -21.3958    -1.5389    -7.6342 H       
 180 H180         -19.2780    -1.9622    -8.8525 H       
 181 H181         -18.4518    -2.2757    -7.3074 H       
 182 H182         -20.0011    -4.1596    -6.8612 H       
 183 H183         -20.8273    -3.8461    -8.4063 H       
 184 H184         -18.0727    -4.1929    -8.9243 H       
 185 H185         -20.3184    -7.4586    -8.3861 H       
 186 H186         -17.3461    -6.3081    -9.7420 H       
 187 H187         -18.2996    -7.6715    -9.5088 H       
 188 H188         -22.4450     0.3982    -7.8439 H       
 189 H189         -23.2248     1.7166    -5.3577 H       
 190 H190         -23.1551     3.1885    -8.0293 H       
 191 H191         -23.9866     3.7805    -6.5711 H       
 192 H192         -20.8817     4.3958    -8.2573 H       
 193 H193         -19.0510     5.1017    -6.5672 H       
 194 H194         -19.7335     4.5350    -4.1687 H       
 195 H195         -25.7198     2.6083    -5.8504 H       
 196 H196         -27.0454     0.9193    -7.8298 H       
 197 H197         -27.4872     0.5681    -4.8314 H       
 198 H198         -28.5339    -0.1226    -6.0946 H       
 199 H199         -26.5955    -1.3573    -7.0255 H       
 200 H200         -25.5488    -0.6666    -5.7623 H       
 201 H201         -26.9515    -1.7324    -4.0173 H       
 202 H202         -27.9981    -2.4232    -5.2805 H       
 203 H203         -25.3336    -3.1935    -5.8130 H       
 204 H204         -25.5613    -6.1693    -3.9972 H       
 205 H205         -27.8960    -3.6753    -3.4264 H       
 206 H206         -27.4170    -5.2219    -2.9776 H       
 207 H207         -29.6706     1.2989    -7.3534 H       
 208 H208         -30.1381     3.9443    -6.2087 H       
 209 H209         -30.4987     3.3700    -9.1834 H       
 210 H210         -31.1366     4.8059    -8.3470 H       
 211 H211         -28.8358     5.4315    -7.6663 H       
 212 H212         -28.1979     3.9956    -8.5026 H       
 213 H213         -29.1086     4.8409   -10.6485 H       
 214 H214         -29.7465     6.2768    -9.8121 H       
 215 H215         -26.9816     6.0854    -9.2689 H       
 216 H216         -26.0505     8.0794   -11.9822 H       
 217 H217         -29.2093     6.6589   -11.9526 H       
 218 H218         -28.1629     7.6359   -12.8319 H       
 219 H219         -32.7187     4.4663    -6.8966 H       
 220 H220         -34.2203     1.9510    -6.8384 H       
 221 H221         -33.5067     2.3963    -4.4606 H       
 222 H222         -34.3803     3.9452    -4.5361 H       
 223 H223         -36.4664     2.6636    -5.1471 H       
 224 H224         -34.6554     0.2951    -4.5005 H       
 225 H225         -36.4251     0.1966    -4.6639 H       
 226 H226         -35.4256     0.6492    -6.0656 H       
 227 H227         -36.0108     3.3631    -2.8122 H       
 228 H228         -36.8585     1.7986    -2.8565 H       
 229 H229         -35.1085     1.8538    -2.5361 H       
 230 H230         -36.6819     2.4586    -6.9152 H       
 231 H231         -37.3117     5.1953    -7.7159 H       
 232 H232         -37.3611     2.8688    -9.6891 H       
 233 H233         -38.1067     4.4583    -9.9824 H       
 234 H234         -35.1568     4.0217    -9.3368 H       
 235 H235         -36.5463     4.6257   -11.9866 H       
 236 H236         -34.7864     4.5560   -11.7297 H       
 237 H237         -35.7712     3.0844   -11.5487 H       
 238 H238         -36.7198     6.4604   -10.2995 H       
 239 H239         -36.0684     6.2261    -8.6597 H       
 240 H240         -34.9599     6.3906   -10.0426 H       
 241 H241         -39.8162     5.0250    -8.6964 H       
 242 H242         -41.2673     2.8247    -7.4392 H       
 243 H243         -42.6060     4.2648    -5.9806 H       
 244 H244         -40.8837     4.4729    -5.5822 H       
 245 H245         -41.9968     6.5703    -5.8426 H       
 246 H246         -43.8584     3.5081    -7.7256 H       
 247 H247         -44.0493     4.1176   -10.5751 H       
 248 H248         -45.3908     2.2818    -9.5064 H       
 249 H249         -47.0832     4.5747   -10.5958 H       
 250 H250         -46.1292     3.4572   -11.6005 H       
 251 H251         -48.3666     2.6592    -9.6836 H       
 252 H252         -48.4946     2.7271   -11.4577 H       
 253 H253         -47.4126     1.5416   -10.6882 H       
 254 H254         -47.3239     2.9277    -8.0941 H       
 255 H255         -45.7884     3.4153    -7.3372 H       
 256 H256         -46.8013     4.6281    -8.1566 H       
 257 H257         -46.1238     7.1162   -10.1817 H       
 258 H258          22.9345    -7.0669    -3.0012 H       
 259 H259          21.7362    -8.2406    -2.4056 H       
 260 H260          22.0395    -8.0871    -4.1528 H       
 261 H261          20.8226    -5.9358    -2.3617 H       
 262 H262          21.1259    -5.7823    -4.1089 H       
 263 H263          19.6033    -7.6912    -4.5409 H       
 264 H264          19.3000    -7.8447    -2.7937 H       
 265 H265          18.3864    -5.5399    -2.7498 H       
 266 H266          18.6897    -5.3864    -4.4970 H       
 267 H267          17.1671    -7.2952    -4.9290 H       
 268 H268          16.8638    -7.4487    -3.1818 H       
 269 H269          15.9502    -5.1440    -3.1379 H       
 270 H270          16.2535    -4.9905    -4.8851 H       
 271 H271          14.7309    -6.8993    -5.3171 H       
 272 H272          14.4276    -7.0528    -3.5699 H       
 273 H273          13.5140    -4.7480    -3.5260 H       
 274 H274          13.8173    -4.5945    -5.2732 H       
 275 H275          12.2947    -6.5034    -5.7052 H       
 276 H276          11.9914    -6.6569    -3.9580 H       
 277 H277          11.0778    -4.3521    -3.9140 H       
 278 H278          11.3811    -4.1986    -5.6613 H       
 279 H279           9.8585    -6.1075    -6.0933 H       
 280 H280           9.5552    -6.2610    -4.3461 H       
 281 H281           8.6416    -3.9562    -4.3021 H       
 282 H282           8.9449    -3.8027    -6.0493 H       
 283 H283           7.4223    -5.7116    -6.4813 H       
 284 H284           7.1190    -5.8651    -4.7341 H       
 285 H285           6.2054    -3.5603    -4.6902 H       
 286 H286           6.5087    -3.4068    -6.4374 H       
 287 H287           4.6828    -5.4692    -5.1222 H       
 288 H288           4.9861    -5.3156    -6.8694 H       
@<TRIPOS>BOND
   1    1    2 2
   2    1    4 1
   3    1   13 am
   4    3  119 am
   5    3    4 1
   6    3  136 1
   7    4    5 1
   8    4  137 1
   9    5    6 1
  10    5  138 1
  11    5  139 1
  12    6    7 2
  13    6   10 1
  14    7    8 1
  15    7  140 1
  16    8    9 1
  17    8  141 1
  18    9   10 2
  19    9  142 1
  20   11   12 2
  21   11   14 1
  22   11   18 am
  23   13   14 1
  24   13  143 1
  25   14   15 1
  26   14  144 1
  27   15  145 1
  28   15  146 1
  29   15  147 1
  30   16   17 2
  31   16   19 1
  32   16   25 am
  33   18   19 1
  34   18  148 1
  35   19   20 1
  36   19  149 1
  37   20   21 1
  38   20   22 1
  39   20  150 1
  40   21  151 1
  41   21  152 1
  42   21  153 1
  43   22  154 1
  44   22  155 1
  45   22  156 1
  46   23   24 2
  47   23   26 1
  48   23   30 am
  49   25   26 1
  50   25  157 1
  51   26   27 1
  52   26  158 1
  53   27  159 1
  54   27  160 1
  55   27  161 1
  56   28   29 2
  57   28   31 1
  58   28   35 am
  59   30   31 1
  60   30  162 1
  61   31   32 1
  62   31  163 1
  63   32  164 1
  64   32  165 1
  65   32  166 1
  66   33   34 2
  67   33   36 1
  68   33   47 am
  69   35   36 1
  70   35  167 1
  71   36   37 1
  72   36  168 1
  73   37   38 1
  74   37  169 1
  75   37  170 1
  76   38   39 ar
  77   38   44 ar
  78   39   40 ar
  79   39  171 1
  80   40   41 ar
  81   40  172 1
  82   41   42 1
  83   41   43 ar
  84   42  173 1
  85   43   44 ar
  86   43  174 1
  87   44  175 1
  88   45   46 2
  89   45   48 1
  90   45   58 am
  91   47   48 1
  92   47  176 1
  93   48   49 1
  94   48  177 1
  95   49   50 1
  96   49  178 1
  97   49  179 1
  98   50   51 1
  99   50  180 1
 100   50  181 1
 101   51   52 1
 102   51  182 1
 103   51  183 1
 104   52   53 1
 105   52  184 1
 106   53   54 2
 107   53   55 1
 108   54  185 1
 109   55  186 1
 110   55  187 1
 111   56   57 2
 112   56   59 1
 113   56   68 am
 114   58   59 1
 115   58  188 1
 116   59   60 1
 117   59  189 1
 118   60   61 1
 119   60  190 1
 120   60  191 1
 121   61   62 2
 122   61   65 1
 123   62   63 1
 124   62  192 1
 125   63   64 1
 126   63  193 1
 127   64   65 2
 128   64  194 1
 129   66   67 2
 130   66   69 1
 131   66   79 am
 132   68   69 1
 133   68  195 1
 134   69   70 1
 135   69  196 1
 136   70   71 1
 137   70  197 1
 138   70  198 1
 139   71   72 1
 140   71  199 1
 141   71  200 1
 142   72   73 1
 143   72  201 1
 144   72  202 1
 145   73   74 1
 146   73  203 1
 147   74   75 2
 148   74   76 1
 149   75  204 1
 150   76  205 1
 151   76  206 1
 152   77   78 2
 153   77   80 1
 154   77   90 am
 155   79   80 1
 156   79  207 1
 157   80   81 1
 158   80  208 1
 159   81   82 1
 160   81  209 1
 161   81  210 1
 162   82   83 1
 163   82  211 1
 164   82  212 1
 165   83   84 1
 166   83  213 1
 167   83  214 1
 168   84   85 1
 169   84  215 1
 170   85   86 2
 171   85   87 1
 172   86  216 1
 173   87  217 1
 174   87  218 1
 175   88   89 2
 176   88   91 1
 177   88   98 am
 178   90   91 1
 179   90  219 1
 180   91   92 1
 181   91  220 1
 182   92   93 1
 183   92  221 1
 184   92  222 1
 185   93   94 1
 186   93   95 1
 187   93  223 1
 188   94  224 1
 189   94  225 1
 190   94  226 1
 191   95  227 1
 192   95  228 1
 193   95  229 1
 194   96   97 2
 195   96   99 1
 196   96  106 am
 197   98   99 1
 198   98  230 1
 199   99  100 1
 200   99  231 1
 201  100  101 1
 202  100  232 1
 203  100  233 1
 204  101  102 1
 205  101  103 1
 206  101  234 1
 207  102  235 1
 208  102  236 1
 209  102  237 1
 210  103  238 1
 211  103  239 1
 212  103  240 1
 213  104  105 2
 214  104  107 1
 215  104  112 am
 216  106  107 1
 217  106  241 1
 218  107  108 1
 219  107  242 1
 220  108  109 1
 221  108  243 1
 222  108  244 1
 223  109  245 1
 224  110  111 2
 225  110  113 1
 226  110  118 1
 227  112  113 1
 228  112  246 1
 229  113  114 1
 230  113  247 1
 231  114  115 1
 232  114  117 1
 233  114  248 1
 234  115  116 1
 235  115  249 1
 236  115  250 1
 237  116  251 1
 238  116  252 1
 239  116  253 1
 240  117  254 1
 241  117  255 1
 242  117  256 1
 243  118  257 1
 244  119  120 2
 245  119  135 1
 246  121  122 1
 247  121  258 1
 248  121  259 1
 249  121  260 1
 250  122  123 1
 251  122  261 1
 252  122  262 1
 253  123  124 1
 254  123  263 1
 255  123  264 1
 256  124  125 1
 257  124  265 1
 258  124  266 1
 259  125  126 1
 260  125  267 1
 261  125  268 1
 262  126  127 1
 263  126  269 1
 264  126  270 1
 265  127  128 1
 266  127  271 1
 267  127  272 1
 268  128  129 1
 269  128  273 1
 270  128  274 1
 271  129  130 1
 272  129  275 1
 273  129  276 1
 274  130  131 1
 275  130  277 1
 276  130  278 1
 277  131  132 1
 278  131  279 1
 279  131  280 1
 280  132  133 1
 281  132  281 1
 282  132  282 1
 283  133  134 1
 284  133  283 1
 285  133  284 1
 286  134  135 1
 287  134  285 1
 288  134  286 1
 289  135  287 1
 290  135  288 1

#	End of record

