#	Name: ASD03380004
#	Creating user name:	WinNT
#	Creation time:	15. 06. 2019 20:40

#	Modifying user name:	WinNT
#	Modification time:	15. 06. 2019 20:40

#	Program:	/corina/corina34_cracker 3.40 0067  02.08.2006

@<TRIPOS>MOLECULE
ASD03380004
  77   78    0    0    0
SMALL
NO_CHARGES


@<TRIPOS>ATOM
   1 N1            -1.1777     1.4596     0.5761 N.3     
   2 C2            -0.7167     0.0939     0.2927 C.3     
   3 C3            -1.9039    -0.8312     0.2157 C.2     
   4 O4            -3.0107    -0.3813     0.0073 O.2     
   5 C5             0.0321     0.0748    -1.0413 C.3     
   6 C6            -0.8550     0.6770    -2.1328 C.3     
   7 C7             1.3166     0.8968    -0.9170 C.3     
   8 N8            -1.7356    -2.1585     0.3783 N.am    
   9 C9            -2.9013    -3.0448     0.4210 C.3     
  10 C10           -3.7828    -2.6599     1.5811 C.2     
  11 O11           -3.6889    -1.5557     2.0737 O.2     
  12 C12           -3.6895    -2.9141    -0.8838 C.3     
  13 C13           -2.8579    -3.4353    -2.0275 C.ar    
  14 C14           -3.0071    -4.7436    -2.4491 C.ar    
  15 C15           -1.9511    -2.6027    -2.6570 C.ar    
  16 C16           -2.2460    -5.2238    -3.4972 C.ar    
  17 C17           -1.1880    -3.0780    -3.7059 C.ar    
  18 C18           -1.3314    -4.3921    -4.1268 C.ar    
  19 O19           -0.5811    -4.8622    -5.1578 O.3     
  20 N20           -4.6754    -3.5428     2.0711 N.am    
  21 C21           -5.5324    -3.1687     3.1989 C.3     
  22 C22           -6.7901    -3.9983     3.1710 C.2     
  23 O23           -6.9546    -4.8210     2.2952 O.2     
  24 C24           -4.7861    -3.4179     4.5111 C.3     
  25 C25           -3.5764    -2.4849     4.5950 C.3     
  26 C26           -2.8413    -2.7304     5.8875 C.2     
  27 N27           -1.7351    -2.0180     6.1794 N.am    
  28 O28           -3.2453    -3.5689     6.6650 O.2     
  29 N29           -7.7323    -3.8259     4.1191 N.am    
  30 C30           -8.9551    -4.6323     4.0920 C.3     
  31 C31           -8.7050    -5.9474     4.7842 C.2     
  32 O32           -7.6170    -6.1864     5.2522 O.2     
  33 C33          -10.0770    -3.8820     4.8125 C.3     
  34 C34          -10.4111    -2.6255     4.0505 C.ar    
  35 C35           -9.7469    -1.4471     4.3354 C.ar    
  36 C36          -11.3778    -2.6527     3.0627 C.ar    
  37 C37          -10.0494    -0.2959     3.6325 C.ar    
  38 C38          -11.6843    -1.5001     2.3638 C.ar    
  39 C39          -11.0158    -0.3231     2.6444 C.ar    
  40 O40           -9.6909    -6.8531     4.8808 O.3     
  41 H41           -0.3968     2.0871     0.6964 H       
  42 H42           -1.7983     1.7893    -0.1480 H       
  43 H43           -0.0495    -0.2368     1.0887 H       
  44 H44            0.2825    -0.9533    -1.3028 H       
  45 H45           -0.3687     0.5610    -3.1014 H       
  46 H46           -1.8160     0.1627    -2.1448 H       
  47 H47           -1.0123     1.7363    -1.9298 H       
  48 H48            1.9486     0.4678    -0.1394 H       
  49 H49            1.8501     0.8832    -1.8674 H       
  50 H50            1.0662     1.9249    -0.6555 H       
  51 H51           -0.8427    -2.5269     0.4670 H       
  52 H52           -2.5695    -4.0759     0.5432 H       
  53 H53           -4.6107    -3.4922    -0.8114 H       
  54 H54           -3.9313    -1.8657    -1.0587 H       
  55 H55           -3.7189    -5.3908    -1.9584 H       
  56 H56           -1.8396    -1.5799    -2.3287 H       
  57 H57           -2.3626    -6.2459    -3.8259 H       
  58 H58           -0.4803    -2.4270    -4.1977 H       
  59 H59           -0.9885    -4.7436    -6.0268 H       
  60 H60           -4.7505    -4.4260     1.6771 H       
  61 H61           -5.7918    -2.1127     3.1234 H       
  62 H62           -5.4533    -3.2241     5.3510 H       
  63 H63           -4.4491    -4.4539     4.5463 H       
  64 H64           -2.9092    -2.6787     3.7551 H       
  65 H65           -3.9134    -1.4489     4.5597 H       
  66 H66           -1.4120    -1.3473     5.5575 H       
  67 H67           -1.2620    -2.1760     7.0113 H       
  68 H68           -7.6008    -3.1678     4.8195 H       
  69 H69           -9.2464    -4.8157     3.0578 H       
  70 H70          -10.9605    -4.5177     4.8702 H       
  71 H71           -9.7511    -3.6205     5.8192 H       
  72 H72           -8.9919    -1.4259     5.1073 H       
  73 H73          -11.8933    -3.5744     2.8368 H       
  74 H74           -9.5310     0.6249     3.8556 H       
  75 H75          -12.4393    -1.5214     1.5918 H       
  76 H76          -11.2524     0.5764     2.0955 H       
  77 H77           -9.4828    -7.6819     5.3336 H       
@<TRIPOS>BOND
   1    1    2 1
   2    1   41 1
   3    1   42 1
   4    2    3 1
   5    2    5 1
   6    2   43 1
   7    3    4 2
   8    3    8 am
   9    5    6 1
  10    5    7 1
  11    5   44 1
  12    6   45 1
  13    6   46 1
  14    6   47 1
  15    7   48 1
  16    7   49 1
  17    7   50 1
  18    8    9 1
  19    8   51 1
  20    9   10 1
  21    9   12 1
  22    9   52 1
  23   10   11 2
  24   10   20 am
  25   12   13 1
  26   12   53 1
  27   12   54 1
  28   13   14 ar
  29   13   15 ar
  30   14   16 ar
  31   14   55 1
  32   15   17 ar
  33   15   56 1
  34   16   18 ar
  35   16   57 1
  36   17   18 ar
  37   17   58 1
  38   18   19 1
  39   19   59 1
  40   20   21 1
  41   20   60 1
  42   21   22 1
  43   21   24 1
  44   21   61 1
  45   22   29 am
  46   22   23 2
  47   24   25 1
  48   24   62 1
  49   24   63 1
  50   25   26 1
  51   25   64 1
  52   25   65 1
  53   26   28 2
  54   26   27 am
  55   27   66 1
  56   27   67 1
  57   29   30 1
  58   29   68 1
  59   30   31 1
  60   30   33 1
  61   30   69 1
  62   31   32 2
  63   31   40 1
  64   33   34 1
  65   33   70 1
  66   33   71 1
  67   34   36 ar
  68   34   35 ar
  69   35   37 ar
  70   35   72 1
  71   36   38 ar
  72   36   73 1
  73   37   39 ar
  74   37   74 1
  75   38   39 ar
  76   38   75 1
  77   39   76 1
  78   40   77 1

#	End of record

