#	Name: ASD04590672
#	Creating user name:	WinNT
#	Creation time:	15. 06. 2019 20:51

#	Modifying user name:	WinNT
#	Modification time:	15. 06. 2019 20:51

#	Program:	/corina/corina34_cracker 3.40 0067  02.08.2006

@<TRIPOS>MOLECULE
ASD04590672
  67   72    0    0    0
SMALL
NO_CHARGES


@<TRIPOS>ATOM
   1 N1            -2.3783    -2.7059     0.0213 N.ar    
   2 C2            -1.2117    -2.0738     0.0045 C.ar    
   3 N3            -0.0574    -2.7202    -0.0182 N.ar    
   4 C4            -0.0260    -4.0496    -0.0249 C.ar    
   5 C5            -1.2488    -4.7505    -0.0074 C.ar    
   6 C6            -2.4371    -4.0274     0.0161 C.ar    
   7 N7             0.9974    -4.9639    -0.0461 N.pl3   
   8 C8             0.4932    -6.2541    -0.0433 C.ar    
   9 C9            -0.9097    -6.1793    -0.0194 C.ar    
  10 N10           -1.2019    -0.6888     0.0103 N.pl3   
  11 C11           -2.4014     0.0175    -0.0793 C.ar    
  12 C12            2.4221    -4.6234    -0.0694 C.3     
  13 C13            2.7450    -3.7924    -1.3235 C.3     
  14 N14           -3.5344    -0.6391    -0.2708 N.ar    
  15 C15           -4.6920    -0.0127    -0.3616 C.ar    
  16 C16           -4.7606     1.3689    -0.2589 C.ar    
  17 C17           -3.5879     2.0943    -0.0570 C.ar    
  18 C18           -2.3937     1.4026     0.0393 C.ar    
  19 N19           -5.9926     2.0265    -0.3573 N.3     
  20 C20           -7.0852     1.0684    -0.5686 C.3     
  21 C21           -8.3906     1.8277    -0.8162 C.3     
  22 C22           -8.6943     2.7183     0.3918 C.3     
  23 C23           -7.5198     3.6740     0.6194 C.3     
  24 C24           -6.2396     2.8611     0.8254 C.3     
  25 C25            1.0903    -7.5109    -0.0585 C.ar    
  26 N26            0.3515    -8.6038    -0.0509 N.ar    
  27 C27           -0.9697    -8.5657    -0.0285 C.ar    
  28 C28           -1.6454    -7.3649    -0.0122 C.ar    
  29 F29            2.4373    -7.6127    -0.0815 F       
  30 C30            3.2824    -2.4346    -0.8262 C.3     
  31 C31            3.8157    -2.7352     0.5966 C.3     
  32 C32            2.7745    -3.7415     1.1463 C.3     
  33 C33           -9.9661     3.5258     0.1248 C.3     
  34 C34          -10.3323     4.3089     1.3592 C.2     
  35 O35          -11.4205     5.0948     1.3571 O.3     
  36 O36           -9.6465     4.2293     2.3507 O.2     
  37 C37          -11.7124     5.8197     2.5809 C.3     
  38 H38           -3.3900    -4.5355     0.0303 H       
  39 H39           -0.3610    -0.2099     0.0767 H       
  40 H40            3.0232    -5.5325    -0.0589 H       
  41 H41            3.5035    -4.2979    -1.9212 H       
  42 H42            1.8417    -3.6425    -1.9149 H       
  43 H43           -5.5963    -0.5821    -0.5181 H       
  44 H44           -3.6113     3.1708     0.0263 H       
  45 H45           -1.4660     1.9327     0.1961 H       
  46 H46           -6.8587     0.4440    -1.4329 H       
  47 H47           -7.1928     0.4396     0.3152 H       
  48 H48           -8.2884     2.4462    -1.7078 H       
  49 H49           -9.2043     1.1163    -0.9574 H       
  50 H50           -8.8350     2.0971     1.2762 H       
  51 H51           -7.4038     4.3216    -0.2497 H       
  52 H52           -7.7112     4.2817     1.5038 H       
  53 H53           -6.3511     2.2240     1.7027 H       
  54 H54           -5.3989     3.5389     0.9735 H       
  55 H55           -1.5281    -9.4900    -0.0232 H       
  56 H56           -2.7250    -7.3418     0.0060 H       
  57 H57            4.0893    -2.0847    -1.4701 H       
  58 H58            2.4795    -1.6985    -0.7850 H       
  59 H59            4.8053    -3.1899     0.5501 H       
  60 H60            3.8340    -1.8289     1.2018 H       
  61 H61            1.8896    -3.2165     1.5061 H       
  62 H62            3.2107    -4.3454     1.9420 H       
  63 H63           -9.7931     4.2130    -0.7034 H       
  64 H64          -10.7804     2.8475    -0.1300 H       
  65 H65          -10.8769     6.4769     2.8220 H       
  66 H66          -12.6152     6.4149     2.4441 H       
  67 H67          -11.8642     5.1113     3.3954 H       
@<TRIPOS>BOND
   1    1    2 ar
   2    1    6 ar
   3    2    3 ar
   4    2   10 1
   5    3    4 ar
   6    4    5 ar
   7    4    7 1
   8    5    6 ar
   9    5    9 1
  10    6   38 1
  11    7    8 1
  12    7   12 1
  13    8    9 ar
  14    8   25 ar
  15    9   28 ar
  16   10   11 1
  17   10   39 1
  18   11   14 ar
  19   11   18 ar
  20   12   13 1
  21   12   32 1
  22   12   40 1
  23   13   30 1
  24   13   41 1
  25   13   42 1
  26   14   15 ar
  27   15   16 ar
  28   15   43 1
  29   16   17 ar
  30   16   19 1
  31   17   18 ar
  32   17   44 1
  33   18   45 1
  34   19   20 1
  35   19   24 1
  36   20   21 1
  37   20   46 1
  38   20   47 1
  39   21   22 1
  40   21   48 1
  41   21   49 1
  42   22   23 1
  43   22   33 1
  44   22   50 1
  45   23   24 1
  46   23   51 1
  47   23   52 1
  48   24   53 1
  49   24   54 1
  50   25   26 ar
  51   25   29 1
  52   26   27 ar
  53   27   28 ar
  54   27   55 1
  55   28   56 1
  56   30   31 1
  57   30   57 1
  58   30   58 1
  59   31   32 1
  60   31   59 1
  61   31   60 1
  62   32   61 1
  63   32   62 1
  64   33   34 1
  65   33   63 1
  66   33   64 1
  67   34   35 1
  68   34   36 2
  69   35   37 1
  70   37   65 1
  71   37   66 1
  72   37   67 1

#	End of record

