#	Name: ASD01148676
#	Creating user name:	WinNT
#	Creation time:	15. 06. 2019 19:03

#	Modifying user name:	WinNT
#	Modification time:	15. 06. 2019 19:03

#	Program:	/corina/corina34_cracker 3.40 0067  02.08.2006

@<TRIPOS>MOLECULE
ASD01148676
  31   33    0    0    0
SMALL
NO_CHARGES


@<TRIPOS>ATOM
   1 O1            -0.0461    -0.1358    -0.1689 O.3     
   2 C2             0.0752     1.2026    -0.2498 C.2     
   3 C3             1.4268     1.5889    -0.2107 C.2     
   4 C4             2.2098     0.4930    -0.1026 C.2     
   5 C5             1.2707    -0.6924    -0.0704 C.3     
   6 O6            -0.8604     1.9753    -0.3442 O.2     
   7 N7             3.5736     0.4618    -0.0366 N.pl3   
   8 C8             4.2706    -0.8178     0.1149 C.3     
   9 C9             5.1476    -1.2866    -1.0478 C.3     
  10 C10            5.7947    -0.7813     0.2432 C.3     
  11 C11            4.3396     1.7081    -0.1173 C.3     
  12 C12            5.6476     1.9954     2.0029 C.ar    
  13 C13            4.5141     2.2808     1.2657 C.ar    
  14 C14            3.5396     3.1010     1.8137 C.ar    
  15 C15            3.7423     3.6058     3.0886 C.ar    
  16 C16            4.9023     3.2768     3.7672 C.ar    
  17 N17            5.8084     2.4932     3.2134 N.ar    
  18 Cl18           5.1690     3.9021     5.3646 Cl      
  19 H19            1.7846     2.6067    -0.2600 H       
  20 H20            1.3814    -1.2366     0.8675 H       
  21 H21            1.4660    -1.3521    -0.9159 H       
  22 H22            3.7357    -1.5803     0.6811 H       
  23 H23            5.1900    -2.3575    -1.2464 H       
  24 H24            5.2061    -0.6428    -1.9255 H       
  25 H25            6.2789     0.1949     0.2149 H       
  26 H26            6.2629    -1.5197     0.8940 H       
  27 H27            5.3180     1.5056    -0.5529 H       
  28 H28            3.8047     2.4235    -0.7420 H       
  29 H29            6.4088     1.3537     1.5844 H       
  30 H30            2.6439     3.3411     1.2602 H       
  31 H31            3.0044     4.2481     3.5463 H       
@<TRIPOS>BOND
   1    1    2 1
   2    1    5 1
   3    2    3 1
   4    2    6 2
   5    3    4 2
   6    3   19 1
   7    4    5 1
   8    4    7 1
   9    5   20 1
  10    5   21 1
  11    7    8 1
  12    7   11 1
  13    8    9 1
  14    8   10 1
  15    8   22 1
  16    9   10 1
  17    9   23 1
  18    9   24 1
  19   10   25 1
  20   10   26 1
  21   11   13 1
  22   11   27 1
  23   11   28 1
  24   12   13 ar
  25   12   17 ar
  26   12   29 1
  27   13   14 ar
  28   14   15 ar
  29   14   30 1
  30   15   16 ar
  31   15   31 1
  32   16   17 ar
  33   16   18 1

#	End of record

