#	Name: ASD01918093
#	Creating user name:	WinNT
#	Creation time:	15. 06. 2019 20:10

#	Modifying user name:	WinNT
#	Modification time:	15. 06. 2019 20:10

#	Program:	/corina/corina34_cracker 3.40 0067  02.08.2006

@<TRIPOS>MOLECULE
ASD01918093
  43   46    0    0    0
SMALL
NO_CHARGES


@<TRIPOS>ATOM
   1 N1             4.8189    -0.4146    -2.1411 N.ar    
   2 C2             5.2861     0.2836    -3.1573 C.ar    
   3 C3             5.1751     1.6615    -3.1827 C.ar    
   4 C4             4.5631     2.3103    -2.1228 C.ar    
   5 C5             4.0809     1.5426    -1.0669 C.ar    
   6 C6             4.2300     0.1641    -1.1133 C.ar    
   7 O7             3.4736     2.1348    -0.0053 O.3     
   8 C8             3.4560     3.4940     0.0439 C.2     
   9 N9             2.2077     5.5082    -0.0226 N.pl3   
  10 C10            2.2740     4.1523    -0.0660 C.2     
  11 C11            4.6565     4.1941     0.2128 C.2     
  12 C12            4.6303     5.5835     0.2624 C.2     
  13 C13            3.3386     6.2580     0.1350 C.2     
  14 C14            5.8713     6.3561     0.4394 C.2     
  15 N15            5.8262     7.7024     0.4852 N.am    
  16 O16            6.9370     5.7795     0.5442 O.2     
  17 N17            1.1460     6.4205    -0.1092 N.2     
  18 C18            1.6621     7.6227    -0.0112 C.2     
  19 N19            2.9771     7.5313     0.1409 N.2     
  20 C20            5.7140     2.4483    -4.3495 C.3     
  21 C21            6.9829     8.4292     0.7578 C.ar    
  22 N22            8.1431     7.8002     0.8637 N.ar    
  23 C23            6.9094     9.8090     0.9106 C.ar    
  24 C24            8.0663    10.5189     1.1808 C.ar    
  25 C25            9.2613     9.8212     1.2892 C.ar    
  26 C26            9.2617     8.4504     1.1204 C.ar    
  27 C27           10.5568     7.6878     1.2311 C.3     
  28 H28            5.7623    -0.2278    -3.9808 H       
  29 H29            4.4629     3.3856    -2.1159 H       
  30 H30            3.8595    -0.4412    -0.2992 H       
  31 H31            1.3642     3.5840    -0.1913 H       
  32 H32            5.5916     3.6615     0.3037 H       
  33 H33            4.9883     8.1652     0.3283 H       
  34 H34            1.1015     8.5453    -0.0420 H       
  35 H35            4.9361     2.5561    -5.1054 H       
  36 H36            6.0284     3.4347    -4.0084 H       
  37 H37            6.5674     1.9232    -4.7787 H       
  38 H38            5.9624    10.3201     0.8194 H       
  39 H39            8.0399    11.5915     1.3041 H       
  40 H40           10.1819    10.3453     1.4994 H       
  41 H41           11.0282     7.6279     0.2501 H       
  42 H42           11.2231     8.2019     1.9237 H       
  43 H43           10.3556     6.6818     1.5996 H       
@<TRIPOS>BOND
   1    1    2 ar
   2    1    6 ar
   3    2    3 ar
   4    2   28 1
   5    3    4 ar
   6    3   20 1
   7    4    5 ar
   8    4   29 1
   9    5    6 ar
  10    5    7 1
  11    6   30 1
  12    7    8 1
  13    8   11 1
  14    8   10 2
  15    9   10 1
  16    9   17 1
  17    9   13 1
  18   10   31 1
  19   11   12 2
  20   11   32 1
  21   12   13 1
  22   12   14 1
  23   13   19 2
  24   14   15 am
  25   14   16 2
  26   15   21 1
  27   15   33 1
  28   17   18 2
  29   18   19 1
  30   18   34 1
  31   20   35 1
  32   20   36 1
  33   20   37 1
  34   21   23 ar
  35   21   22 ar
  36   22   26 ar
  37   23   24 ar
  38   23   38 1
  39   24   25 ar
  40   24   39 1
  41   25   26 ar
  42   25   40 1
  43   26   27 1
  44   27   41 1
  45   27   42 1
  46   27   43 1

#	End of record

