#	Name: ASD01913827
#	Creating user name:	WinNT
#	Creation time:	15. 06. 2019 20:02

#	Modifying user name:	WinNT
#	Modification time:	15. 06. 2019 20:02

#	Program:	/corina/corina34_cracker 3.40 0067  02.08.2006

@<TRIPOS>MOLECULE
ASD01913827
  42   44    0    0    0
SMALL
NO_CHARGES


@<TRIPOS>ATOM
   1 C1            -0.0223     1.4278    -0.0312 C.ar    
   2 C2            -0.0014    -0.0041    -0.0269 C.1     
   3 C3             0.0157    -1.1780    -0.0233 C.1     
   4 C4             0.0365    -2.6098    -0.0189 C.ar    
   5 C5            -1.1338    -3.3383     0.2416 C.ar    
   6 C6             0.1560    -5.3344    -0.0280 C.ar    
   7 N7             1.2427    -4.6190    -0.2762 N.ar    
   8 C8             1.2210    -3.3023    -0.2796 C.ar    
   9 C9            -1.0632    -4.7168     0.2348 C.ar    
  10 N10            0.2331    -6.7250    -0.0364 N.am    
  11 C11           -0.8139    -7.5604    -0.0312 C.2     
  12 N12           -0.4748    -8.8562    -0.0416 N.am    
  13 C13            0.9911    -8.9718    -0.0561 C.3     
  14 C14            1.4768    -7.5093    -0.0589 C.3     
  15 O15           -1.9677    -7.1772    -0.0179 O.2     
  16 C16           -1.4149    -9.9798    -0.0390 C.3     
  17 C17            1.4844    -9.7045     1.1932 C.3     
  18 C18            1.4607    -9.6906    -1.3225 C.3     
  19 C19            1.1474     2.1457    -0.2916 C.ar    
  20 C20            1.1192     3.5270    -0.2945 C.ar    
  21 C21           -0.0658     4.1987    -0.0395 C.ar    
  22 C22           -1.2271     3.4922     0.2189 C.ar    
  23 C23           -1.2143     2.1132     0.2193 C.ar    
  24 F24            2.2488     4.2241    -0.5460 F       
  25 H25           -2.0669    -2.8330     0.4429 H       
  26 H26            2.1275    -2.7529    -0.4864 H       
  27 H27           -1.9442    -5.3096     0.4316 H       
  28 H28            2.0522    -7.2990    -0.9604 H       
  29 H29            2.0697    -7.3013     0.8318 H       
  30 H30           -2.4361    -9.5990    -0.0277 H       
  31 H31           -1.2621   -10.5834    -0.9336 H       
  32 H32           -1.2459   -10.5928     0.8463 H       
  33 H33            1.0717   -10.7132     1.2095 H       
  34 H34            2.5730    -9.7576     1.1773 H       
  35 H35            1.1600    -9.1648     2.0829 H       
  36 H36            1.1196    -9.1410    -2.1998 H       
  37 H37            2.5494    -9.7437    -1.3276 H       
  38 H38            1.0476   -10.6991    -1.3422 H       
  39 H39            2.0712     1.6225    -0.4896 H       
  40 H40           -0.0829     5.2786    -0.0421 H       
  41 H41           -2.1470     4.0222     0.4172 H       
  42 H42           -2.1220     1.5639     0.4209 H       
@<TRIPOS>BOND
   1    1    2 1
   2    1   19 ar
   3    1   23 ar
   4    2    3 3
   5    3    4 1
   6    4    5 ar
   7    4    8 ar
   8    5    9 ar
   9    5   25 1
  10    6    7 ar
  11    6   10 1
  12    6    9 ar
  13    7    8 ar
  14    8   26 1
  15    9   27 1
  16   10   11 am
  17   10   14 1
  18   11   12 am
  19   11   15 2
  20   12   13 1
  21   12   16 1
  22   13   14 1
  23   13   17 1
  24   13   18 1
  25   14   28 1
  26   14   29 1
  27   16   30 1
  28   16   31 1
  29   16   32 1
  30   17   33 1
  31   17   34 1
  32   17   35 1
  33   18   36 1
  34   18   37 1
  35   18   38 1
  36   19   20 ar
  37   19   39 1
  38   20   21 ar
  39   20   24 1
  40   21   22 ar
  41   21   40 1
  42   22   23 ar
  43   22   41 1
  44   23   42 1

#	End of record

