#	Name: ASD09800042
#	Creating user name:	WinNT
#	Creation time:	15. 06. 2019 21:24

#	Modifying user name:	WinNT
#	Modification time:	15. 06. 2019 21:24

#	Program:	/corina/corina34_cracker 3.40 0067  02.08.2006

@<TRIPOS>MOLECULE
ASD09800042
  65   70    0    0    0
SMALL
NO_CHARGES


@<TRIPOS>ATOM
   1 C1            -3.2436     1.2250     2.8767 C.2     
   2 N2            -4.3297     0.5693     3.2436 N.2     
   3 C3            -5.0416    -0.1453     2.3624 C.2     
   4 C4            -4.6837    -0.2278     1.0681 C.2     
   5 C5            -2.8273     1.1777     1.5309 C.2     
   6 C6            -1.7696     1.7281     0.8153 C.2     
   7 N7            -3.5605     0.4341     0.6248 N.pl3   
   8 C8            -2.9573     0.5564    -0.5712 C.2     
   9 N9            -1.9020     1.3218    -0.4582 N.2     
  10 C10           -0.7026     2.5961     1.3536 C.ar    
  11 C11            0.1604     4.8180     1.9001 C.ar    
  12 C12            1.3436     4.2175     2.3824 C.ar    
  13 C13            1.4844     2.8460     2.3391 C.ar    
  14 C14            0.4745     2.0407     1.8308 C.ar    
  15 C15           -0.8729     4.0027     1.3804 C.ar    
  16 N16            2.3709     5.0106     2.8976 N.am    
  17 C17            3.6349     4.5434     2.9228 C.2     
  18 N18            4.6076     5.2629     3.5166 N.am    
  19 O19            3.8976     3.4727     2.4098 O.2     
  20 C20            5.8981     4.7343     3.6312 C.ar    
  21 C21            7.6910     3.4181     2.7299 C.ar    
  22 C22            6.4166     3.9396     2.6169 C.ar    
  23 C23            6.6638     5.0080     4.7560 C.ar    
  24 C24            7.9416     4.4830     4.8656 C.ar    
  25 C25            8.4527     3.6852     3.8513 C.ar    
  26 N26           -2.5231     1.9576     3.8053 N.pl3   
  27 C27           -3.4242    -0.0936    -1.8482 C.3     
  28 C28           -4.8379     0.2350    -2.3323 C.3     
  29 C29           -3.6249     0.8084    -3.0676 C.3     
  30 C30           -2.9046    -1.5113    -2.0953 C.3     
  31 C31           -0.0087     6.2116     1.9251 C.ar    
  32 C32           -2.0468     4.6006     0.9009 C.ar    
  33 C33           -2.1788     5.9562     0.9407 C.ar    
  34 C34           -1.1622     6.7594     1.4515 C.ar    
  35 O35            8.6941     4.7496     5.9655 O.3     
  36 C36            8.1047     5.5781     6.9695 C.3     
  37 C37            8.2513     2.5562     1.6279 C.3     
  38 F38            8.9160     3.3623     0.6976 F       
  39 F39            9.1503     1.6317     2.1704 F       
  40 F40            7.2077     1.8744     0.9928 F       
  41 H41           -5.9243    -0.6685     2.6992 H       
  42 H42           -5.2755    -0.8117     0.3788 H       
  43 H43            2.3917     2.3921     2.7094 H       
  44 H44            0.6072     0.9692     1.8071 H       
  45 H45            2.1749     5.8977     3.2374 H       
  46 H46            4.4131     6.1472     3.8645 H       
  47 H47            5.8231     3.7290     1.7395 H       
  48 H48            6.2646     5.6293     5.5441 H       
  49 H49            9.4483     3.2756     3.9371 H       
  50 H50           -2.7614     1.9181     4.7447 H       
  51 H51           -1.7801     2.5101     3.5162 H       
  52 H52           -5.3976    -0.5586    -2.8272 H       
  53 H53           -5.4303     0.9214    -1.7272 H       
  54 H54           -3.4192     1.8719    -2.9463 H       
  55 H55           -3.3865     0.3919    -4.0463 H       
  56 H56           -3.1883    -2.1528    -1.2610 H       
  57 H57           -3.3369    -1.9012    -3.0168 H       
  58 H58           -1.8184    -1.4898    -2.1841 H       
  59 H59            0.7721     6.8461     2.3179 H       
  60 H60           -2.8427     3.9896     0.5015 H       
  61 H61           -3.0842     6.4141     0.5706 H       
  62 H62           -1.2900     7.8316     1.4718 H       
  63 H63            8.8094     5.7114     7.7904 H       
  64 H64            7.8586     6.5495     6.5406 H       
  65 H65            7.1964     5.1055     7.3435 H       
@<TRIPOS>BOND
   1    1    2 2
   2    1   26 1
   3    1    5 1
   4    2    3 1
   5    3    4 2
   6    3   41 1
   7    4    7 1
   8    4   42 1
   9    5    7 1
  10    5    6 2
  11    6    9 1
  12    6   10 1
  13    7    8 1
  14    8    9 2
  15    8   27 1
  16   10   15 ar
  17   10   14 ar
  18   11   12 ar
  19   11   15 ar
  20   11   31 ar
  21   12   13 ar
  22   12   16 1
  23   13   14 ar
  24   13   43 1
  25   14   44 1
  26   15   32 ar
  27   16   17 am
  28   16   45 1
  29   17   18 am
  30   17   19 2
  31   18   20 1
  32   18   46 1
  33   20   23 ar
  34   20   22 ar
  35   21   22 ar
  36   21   25 ar
  37   21   37 1
  38   22   47 1
  39   23   24 ar
  40   23   48 1
  41   24   25 ar
  42   24   35 1
  43   25   49 1
  44   26   50 1
  45   26   51 1
  46   27   28 1
  47   27   29 1
  48   27   30 1
  49   28   29 1
  50   28   52 1
  51   28   53 1
  52   29   54 1
  53   29   55 1
  54   30   56 1
  55   30   57 1
  56   30   58 1
  57   31   34 ar
  58   31   59 1
  59   32   33 ar
  60   32   60 1
  61   33   34 ar
  62   33   61 1
  63   34   62 1
  64   35   36 1
  65   36   63 1
  66   36   64 1
  67   36   65 1
  68   37   38 1
  69   37   39 1
  70   37   40 1

#	End of record

