#	Name: ASD01908014
#	Creating user name:	WinNT
#	Creation time:	15. 06. 2019 19:54

#	Modifying user name:	WinNT
#	Modification time:	15. 06. 2019 19:54

#	Program:	/corina/corina34_cracker 3.40 0067  02.08.2006

@<TRIPOS>MOLECULE
ASD01908014
  44   47    0    0    0
SMALL
NO_CHARGES


@<TRIPOS>ATOM
   1 S1            -0.0211     1.7049     0.0114 S.3     
   2 C2             0.0021    -0.0041     0.0020 C.2     
   3 N3             1.2205    -0.4385    -0.0119 N.2     
   4 C4             2.1837     0.4741    -0.0162 C.2     
   5 C5             1.7399     1.7435    -0.0052 C.2     
   6 O6            -1.1004    -0.7928     0.0090 O.3     
   7 C7            -2.3137    -0.1899     0.0241 C.ar    
   8 N8            -3.4057    -0.9372     0.0312 N.ar    
   9 C9            -4.6060    -0.3812     0.0463 C.ar    
  10 C10           -4.7103     1.0009     0.0547 C.ar    
  11 C11           -3.5458     1.7525     0.0469 C.ar    
  12 N12           -2.3776     1.1317     0.0368 N.ar    
  13 N13            5.8112     0.2831    -0.0529 N.pl3   
  14 N14            5.4708    -1.0751    -0.0570 N.2     
  15 C15            4.1677    -1.1763    -0.0445 C.2     
  16 C16            3.6273     0.1239    -0.0319 C.2     
  17 C17            4.6696     1.0033    -0.0375 C.2     
  18 C18            3.3804    -2.4613    -0.0438 C.3     
  19 C19            7.1711     0.8281    -0.0580 C.3     
  20 C20            7.9471     0.2529     1.0987 C.ar    
  21 C21            8.6637    -0.9181     0.9348 C.ar    
  22 C22            9.3759    -1.4474     1.9936 C.ar    
  23 C23            9.3717    -0.8029     3.2221 C.ar    
  24 C24            8.6519     0.3720     3.3840 C.ar    
  25 C25            7.9459     0.9002     2.3205 C.ar    
  26 O26           10.0712    -1.3218     4.2653 O.3     
  27 C27           10.0215    -0.6048     5.5004 C.3     
  28 H28            2.3553     2.6311    -0.0063 H       
  29 H29           -5.4935    -0.9965     0.0517 H       
  30 H30           -5.6774     1.4814     0.0667 H       
  31 H31           -3.5914     2.8315     0.0527 H       
  32 H32            4.5951     2.0807    -0.0304 H       
  33 H33            3.2005    -2.7766     0.9840 H       
  34 H34            2.4268    -2.3034    -0.5476 H       
  35 H35            3.9444    -3.2333    -0.5672 H       
  36 H36            7.6646     0.5646    -0.9935 H       
  37 H37            7.1280     1.9131     0.0370 H       
  38 H38            8.6664    -1.4196    -0.0217 H       
  39 H39            9.9352    -2.3623     1.8651 H       
  40 H40            8.6471     0.8755     4.3394 H       
  41 H41            7.3893     1.8173     2.4447 H       
  42 H42           10.4173     0.4001     5.3534 H       
  43 H43            8.9885    -0.5420     5.8427 H       
  44 H44           10.6207    -1.1257     6.2473 H       
@<TRIPOS>BOND
   1    1    2 1
   2    1    5 1
   3    2    3 2
   4    2    6 1
   5    3    4 1
   6    4    5 2
   7    4   16 1
   8    5   28 1
   9    6    7 1
  10    7    8 ar
  11    7   12 ar
  12    8    9 ar
  13    9   10 ar
  14    9   29 1
  15   10   11 ar
  16   10   30 1
  17   11   12 ar
  18   11   31 1
  19   13   14 1
  20   13   17 1
  21   13   19 1
  22   14   15 2
  23   15   16 1
  24   15   18 1
  25   16   17 2
  26   17   32 1
  27   18   33 1
  28   18   34 1
  29   18   35 1
  30   19   20 1
  31   19   36 1
  32   19   37 1
  33   20   21 ar
  34   20   25 ar
  35   21   22 ar
  36   21   38 1
  37   22   23 ar
  38   22   39 1
  39   23   24 ar
  40   23   26 1
  41   24   25 ar
  42   24   40 1
  43   25   41 1
  44   26   27 1
  45   27   42 1
  46   27   43 1
  47   27   44 1

#	End of record

