#	Name: ASD01882031
#	Creating user name:	WinNT
#	Creation time:	15. 06. 2019 19:43

#	Modifying user name:	WinNT
#	Modification time:	15. 06. 2019 19:43

#	Program:	/corina/corina34_cracker 3.40 0067  02.08.2006

@<TRIPOS>MOLECULE
ASD01882031
  55   59    0    0    0
SMALL
NO_CHARGES


@<TRIPOS>ATOM
   1 C1            -0.0161     1.3337     0.0094 C.2     
   2 N2             0.0021    -0.0041     0.0020 N.am    
   3 C3             1.2613    -0.4841    -0.0126 C.2     
   4 C4             2.1640     0.7337    -0.0147 C.3     
   5 N5             1.2200     1.8645     0.0004 N.am    
   6 O6            -1.0354     1.9955     0.0180 O.2     
   7 O7             1.6013    -1.6477    -0.0215 O.2     
   8 C8             3.0460     0.7520     1.2354 C.3     
   9 C9             3.0220     0.7655    -1.2811 C.3     
  10 C10           -1.1986    -0.8435     0.0097 C.3     
  11 C11            1.5609     3.2893     0.0041 C.3     
  12 C12            1.6916     3.7708     1.4261 C.ar    
  13 C13            2.9177     3.7118     2.0630 C.ar    
  14 C14            3.0432     4.1518     3.3675 C.ar    
  15 C15            1.9284     4.6565     4.0403 C.ar    
  16 C16            0.6965     4.7129     3.3909 C.ar    
  17 C17            0.5858     4.2753     2.0867 C.ar    
  18 F18            4.2409     4.0932     3.9898 F       
  19 C19            2.2735     6.7362     9.3461 C.2     
  20 N20            1.6797     7.9330     9.2004 N.am    
  21 C21            1.2619     8.0859     7.8022 C.3     
  22 C22            1.6776     6.8188     7.0970 C.ar    
  23 C23            1.5591     6.3843     5.8002 C.ar    
  24 C24            2.0547     5.1298     5.4393 C.ar    
  25 C25            2.6686     4.3219     6.3974 C.ar    
  26 C26            2.7872     4.7577     7.6972 C.ar    
  27 C27            2.2918     6.0134     8.0612 C.ar    
  28 O28            2.7346     6.3121    10.3880 O.2     
  29 C29            1.4816     8.9221    10.2629 C.3     
  30 C30            0.6502     8.4992    11.4756 C.3     
  31 C31            2.1659     8.6621    11.6064 C.3     
  32 H32            3.6824    -0.1329     1.2441 H       
  33 H33            3.6682     1.6470     1.2280 H       
  34 H34            2.4158     0.7550     2.1247 H       
  35 H35            2.3749     0.7780    -2.1581 H       
  36 H36            3.6443     1.6604    -1.2759 H       
  37 H37            3.6580    -0.1191    -1.3114 H       
  38 H38           -2.0851    -0.2094     0.0217 H       
  39 H39           -1.2108    -1.4683    -0.8833 H       
  40 H40           -1.1931    -1.4772     0.8965 H       
  41 H41            2.5060     3.4381    -0.5182 H       
  42 H42            0.7749     3.8522    -0.4994 H       
  43 H43            3.7784     3.3211     1.5406 H       
  44 H44           -0.1692     5.1022     3.9061 H       
  45 H45           -0.3678     4.3229     1.5819 H       
  46 H46            0.1803     8.2086     7.7457 H       
  47 H47            1.7609     8.9451     7.3539 H       
  48 H48            1.0836     7.0115     5.0607 H       
  49 H49            3.0515     3.3514     6.1179 H       
  50 H50            3.2626     4.1297     8.4362 H       
  51 H51            1.3986     9.9573     9.9319 H       
  52 H52            0.0205     9.2563    11.9428 H       
  53 H53            0.2506     7.4851    11.4830 H       
  54 H54            2.7634     7.7553    11.6998 H       
  55 H55            2.5333     9.5265    12.1597 H       
@<TRIPOS>BOND
   1    1    2 am
   2    1    5 am
   3    1    6 2
   4    2    3 am
   5    2   10 1
   6    3    4 1
   7    3    7 2
   8    4    5 1
   9    4    8 1
  10    4    9 1
  11    5   11 1
  12    8   32 1
  13    8   33 1
  14    8   34 1
  15    9   35 1
  16    9   36 1
  17    9   37 1
  18   10   38 1
  19   10   39 1
  20   10   40 1
  21   11   12 1
  22   11   41 1
  23   11   42 1
  24   12   13 ar
  25   12   17 ar
  26   13   14 ar
  27   13   43 1
  28   14   15 ar
  29   14   18 1
  30   15   16 ar
  31   15   24 1
  32   16   17 ar
  33   16   44 1
  34   17   45 1
  35   19   20 am
  36   19   27 1
  37   19   28 2
  38   20   21 1
  39   20   29 1
  40   21   22 1
  41   21   46 1
  42   21   47 1
  43   22   23 ar
  44   22   27 ar
  45   23   24 ar
  46   23   48 1
  47   24   25 ar
  48   25   26 ar
  49   25   49 1
  50   26   27 ar
  51   26   50 1
  52   29   30 1
  53   29   31 1
  54   29   51 1
  55   30   31 1
  56   30   52 1
  57   30   53 1
  58   31   54 1
  59   31   55 1

#	End of record

