#	Name: ASD08070234
#	Creating user name:	WinNT
#	Creation time:	15. 06. 2019 21:14

#	Modifying user name:	WinNT
#	Modification time:	15. 06. 2019 21:14

#	Program:	/corina/corina34_cracker 3.40 0067  02.08.2006

@<TRIPOS>MOLECULE
ASD08070234
  35   36    0    0    0
SMALL
NO_CHARGES


@<TRIPOS>ATOM
   1 C1            -0.0124     1.3903     0.0577 C.ar    
   2 C2             0.0048    -0.0059     0.0325 C.ar    
   3 C3            -1.2639    -0.7633     0.0264 C.2     
   4 N4            -1.2442    -2.1107     0.0021 N.am    
   5 O5            -2.3255    -0.1711     0.0434 O.2     
   6 C6             1.2254    -0.6831     0.0126 C.ar    
   7 C7             2.4062     0.0293     0.0179 C.ar    
   8 C8             2.3828     1.4138     0.0429 C.ar    
   9 C9             1.1746     2.0915     0.0627 C.ar    
  10 C10           -2.4384    -2.8296     0.1148 C.ar    
  11 C11           -2.5936    -4.0322    -0.5630 C.ar    
  12 C12           -3.4697    -2.3456     0.9090 C.ar    
  13 C13           -4.6478    -3.0584     1.0185 C.ar    
  14 C14           -4.8010    -4.2524     0.3384 C.ar    
  15 C15           -3.7738    -4.7398    -0.4492 C.ar    
  16 C16           -1.4751    -4.5637    -1.4218 C.3     
  17 C17           -6.0875    -5.0276     0.4606 C.3     
  18 C18            1.1579     3.5982     0.0899 C.3     
  19 Cl19           3.8733     2.3037     0.0500 Cl      
  20 H20           -0.9537     1.9197     0.0686 H       
  21 H21           -0.4017    -2.5818    -0.0935 H       
  22 H22            1.2449    -1.7628    -0.0066 H       
  23 H23            3.3512    -0.4935     0.0028 H       
  24 H24           -3.3506    -1.4132     1.4407 H       
  25 H25           -5.4501    -2.6827     1.6362 H       
  26 H26           -3.8967    -5.6726    -0.9795 H       
  27 H27           -0.8241    -5.1973    -0.8194 H       
  28 H28           -1.8928    -5.1477    -2.2419 H       
  29 H29           -0.8995    -3.7307    -1.8253 H       
  30 H30           -6.7807    -4.7059    -0.3166 H       
  31 H31           -5.8825    -6.0921     0.3467 H       
  32 H32           -6.5298    -4.8455     1.4400 H       
  33 H33            1.1473     3.9799    -0.9310 H       
  34 H34            0.2672     3.9422     0.6156 H       
  35 H35            2.0470     3.9622     0.6047 H       
@<TRIPOS>BOND
   1    1    2 ar
   2    1    9 ar
   3    1   20 1
   4    2    3 1
   5    2    6 ar
   6    3    4 am
   7    3    5 2
   8    4   10 1
   9    4   21 1
  10    6    7 ar
  11    6   22 1
  12    7    8 ar
  13    7   23 1
  14    8    9 ar
  15    8   19 1
  16    9   18 1
  17   10   11 ar
  18   10   12 ar
  19   11   16 1
  20   11   15 ar
  21   12   13 ar
  22   12   24 1
  23   13   14 ar
  24   13   25 1
  25   14   15 ar
  26   14   17 1
  27   15   26 1
  28   16   27 1
  29   16   28 1
  30   16   29 1
  31   17   30 1
  32   17   31 1
  33   17   32 1
  34   18   33 1
  35   18   34 1
  36   18   35 1

#	End of record

