#	Name: ASD00069088
#	Creating user name:	WinNT
#	Creation time:	15. 06. 2019 18:29

#	Modifying user name:	WinNT
#	Modification time:	15. 06. 2019 18:29

#	Program:	/corina/corina34_cracker 3.40 0067  02.08.2006

@<TRIPOS>MOLECULE
ASD00069088
  70   76    0    0    0
SMALL
NO_CHARGES


@<TRIPOS>ATOM
   1 N1             0.0200     0.3630    -0.3923 N.3     
   2 C2             0.6815    -0.9154    -0.6828 C.3     
   3 C3             1.4129    -1.4085     0.5678 C.3     
   4 C4             2.4468    -0.3627     0.9942 C.3     
   5 C5             1.7385     0.9717     1.2438 C.3     
   6 C6             0.9977     1.3958    -0.0264 C.3     
   7 C7             3.1286    -0.8153     2.2596 C.2     
   8 O8             2.8190    -1.8705     2.7713 O.2     
   9 N9             4.0825    -0.0476     2.8228 N.am    
  10 C10           -2.2464     2.3408    -2.4977 C.ar    
  11 C11           -1.4839     1.9675    -1.4110 C.ar    
  12 C12           -0.7623     0.7752    -1.4670 C.ar    
  13 C13           -0.8447     0.0071    -2.6282 C.ar    
  14 C14           -1.6307     0.4510    -3.6707 C.ar    
  15 N15           -2.2984     1.5859    -3.5792 N.ar    
  16 N16            6.4991    -1.3861     7.6056 N.pl3   
  17 N17            7.7944    -0.9273     7.3461 N.2     
  18 C18            7.8527    -0.4096     6.1405 C.2     
  19 C19            6.5155    -0.5240     5.5455 C.ar    
  20 C20            5.9705    -0.1579     4.3130 C.ar    
  21 C21            4.6371    -0.4121     4.0564 C.ar    
  22 C22            3.8405    -1.0297     5.0207 C.ar    
  23 C23            4.3626    -1.3914     6.2289 C.ar    
  24 C24            5.7046    -1.1457     6.5116 C.ar    
  25 C25            6.0602    -2.0280     8.8471 C.3     
  26 C26            6.5887    -3.4640     8.8939 C.3     
  27 C27            6.1768    -4.1085    10.2211 C.3     
  28 C28            6.7083    -3.2554    11.3770 C.3     
  29 C29            6.1751    -1.8275    11.2343 C.3     
  30 O30            6.5677    -1.2984     9.9661 O.3     
  31 C31            9.0450     0.1803     5.5009 C.2     
  32 N32           10.2833     0.2755     6.0784 N.pl3   
  33 C33           11.1171     0.8838     5.1593 C.ar    
  34 C34           10.3280     1.1422     4.0241 C.ar    
  35 N35            9.0796     0.6873     4.2916 N.2     
  36 C36           10.9060     1.7621     2.9117 C.ar    
  37 C37           12.2368     2.1118     2.9388 C.ar    
  38 C38           13.0105     1.8543     4.0614 C.ar    
  39 C39           12.4568     1.2438     5.1673 C.ar    
  40 H40           -0.0653    -1.6513    -0.9806 H       
  41 H41            1.3985    -0.7777    -1.4921 H       
  42 H42            0.6945    -1.5596     1.3736 H       
  43 H43            1.9167    -2.3496     0.3474 H       
  44 H44            3.1876    -0.2397     0.2042 H       
  45 H45            1.0253     0.8580     2.0602 H       
  46 H46            2.4750     1.7311     1.5063 H       
  47 H47            1.7132     1.5227    -0.8389 H       
  48 H48            0.4805     2.3385     0.1524 H       
  49 H49            4.3850     0.7573     2.3739 H       
  50 H50           -2.8120     3.2601    -2.4615 H       
  51 H51           -1.4455     2.5900    -0.5293 H       
  52 H52           -0.3004    -0.9221    -2.7099 H       
  53 H53           -1.7005    -0.1373    -4.5737 H       
  54 H54            6.5867     0.3208     3.5663 H       
  55 H55            2.7993    -1.2236     4.8091 H       
  56 H56            3.7346    -1.8682     6.9668 H       
  57 H57            4.9709    -2.0402     8.8846 H       
  58 H58            6.1677    -4.0343     8.0659 H       
  59 H59            7.6759    -3.4548     8.8155 H       
  60 H60            5.0896    -4.1629    10.2780 H       
  61 H61            6.5973    -5.1121    10.2851 H       
  62 H62            6.3728    -3.6765    12.3247 H       
  63 H63            7.7979    -3.2419    11.3487 H       
  64 H64            5.0874    -1.8370    11.3032 H       
  65 H65            6.5845    -1.2053    12.0302 H       
  66 H66           10.5291    -0.0273     6.9665 H       
  67 H67           10.3101     1.9653     2.0341 H       
  68 H68           12.6826     2.5901     2.0792 H       
  69 H69           14.0537     2.1337     4.0691 H       
  70 H70           13.0649     1.0468     6.0379 H       
@<TRIPOS>BOND
   1    1    2 1
   2    1    6 1
   3    1   12 1
   4    2    3 1
   5    2   40 1
   6    2   41 1
   7    3    4 1
   8    3   42 1
   9    3   43 1
  10    4    5 1
  11    4    7 1
  12    4   44 1
  13    5    6 1
  14    5   45 1
  15    5   46 1
  16    6   47 1
  17    6   48 1
  18    7    8 2
  19    7    9 am
  20    9   21 1
  21    9   49 1
  22   10   11 ar
  23   10   15 ar
  24   10   50 1
  25   11   12 ar
  26   11   51 1
  27   12   13 ar
  28   13   14 ar
  29   13   52 1
  30   14   15 ar
  31   14   53 1
  32   16   17 1
  33   16   24 1
  34   16   25 1
  35   17   18 2
  36   18   19 1
  37   18   31 1
  38   19   20 ar
  39   19   24 ar
  40   20   21 ar
  41   20   54 1
  42   21   22 ar
  43   22   23 ar
  44   22   55 1
  45   23   24 ar
  46   23   56 1
  47   25   26 1
  48   25   30 1
  49   25   57 1
  50   26   27 1
  51   26   58 1
  52   26   59 1
  53   27   28 1
  54   27   60 1
  55   27   61 1
  56   28   29 1
  57   28   62 1
  58   28   63 1
  59   29   30 1
  60   29   64 1
  61   29   65 1
  62   31   32 1
  63   31   35 2
  64   32   33 1
  65   32   66 1
  66   33   34 ar
  67   33   39 ar
  68   34   35 1
  69   34   36 ar
  70   36   37 ar
  71   36   67 1
  72   37   38 ar
  73   37   68 1
  74   38   39 ar
  75   38   69 1
  76   39   70 1

#	End of record

