#	Name: ASD07931887
#	Creating user name:	WinNT
#	Creation time:	15. 06. 2019 21:13

#	Modifying user name:	WinNT
#	Modification time:	15. 06. 2019 21:13

#	Program:	/corina/corina34_cracker 3.40 0067  02.08.2006

@<TRIPOS>MOLECULE
ASD07931887
  33   34    0    0    0
SMALL
NO_CHARGES


@<TRIPOS>ATOM
   1 C1            -0.0173     1.4248     0.0099 C.3     
   2 O2             0.0021    -0.0041     0.0020 O.3     
   3 O3             2.0603     1.6287    -1.2439 O.3     
   4 C4             1.4181     1.9544    -0.0010 C.3     
   5 C5             1.4206     3.5025     0.0622 C.3     
   6 C6             2.7923     3.8220    -0.5922 C.3     
   7 C7             2.9226     2.7000    -1.6445 C.3     
   8 C8             4.3483     2.2149    -1.7007 C.ar    
   9 C9             4.6187     0.9011    -2.0353 C.ar    
  10 C10            5.9265     0.4562    -2.0868 C.ar    
  11 C11            6.9638     1.3250    -1.8043 C.ar    
  12 C12            6.6935     2.6390    -1.4707 C.ar    
  13 C13            5.3859     3.0851    -1.4234 C.ar    
  14 C14            8.3895     0.8397    -1.8596 C.3     
  15 F15            8.8958     1.0258    -3.1504 F       
  16 F16            9.1640     1.5627    -0.9461 F       
  17 F17            8.4321    -0.5202    -1.5335 F       
  18 C18            2.4963     3.2238    -3.0173 C.3     
  19 H19           -0.5445     1.7859    -0.8732 H       
  20 H20           -0.5275     1.7763     0.9067 H       
  21 H21           -0.8759    -0.4094     0.0082 H       
  22 H22            1.9802     1.5391     0.8355 H       
  23 H23            0.6002     3.9209    -0.5209 H       
  24 H24            1.3861     3.8536     1.0936 H       
  25 H25            2.7755     4.8017    -1.0698 H       
  26 H26            3.5959     3.7608     0.1417 H       
  27 H27            3.8082     0.2223    -2.2560 H       
  28 H28            6.1377    -0.5704    -2.3475 H       
  29 H29            7.5039     3.3177    -1.2496 H       
  30 H30            5.1749     4.1126    -1.1663 H       
  31 H31            1.4618     3.5641    -2.9711 H       
  32 H32            3.1398     4.0553    -3.3048 H       
  33 H33            2.5835     2.4252    -3.7541 H       
@<TRIPOS>BOND
   1    1    2 1
   2    1    4 1
   3    1   19 1
   4    1   20 1
   5    2   21 1
   6    3    4 1
   7    3    7 1
   8    4    5 1
   9    4   22 1
  10    5    6 1
  11    5   23 1
  12    5   24 1
  13    6    7 1
  14    6   25 1
  15    6   26 1
  16    7    8 1
  17    7   18 1
  18    8    9 ar
  19    8   13 ar
  20    9   10 ar
  21    9   27 1
  22   10   11 ar
  23   10   28 1
  24   11   12 ar
  25   11   14 1
  26   12   13 ar
  27   12   29 1
  28   13   30 1
  29   14   15 1
  30   14   16 1
  31   14   17 1
  32   18   31 1
  33   18   32 1
  34   18   33 1

#	End of record

