#	Name: ASD03430537
#	Creating user name:	WinNT
#	Creation time:	15. 06. 2019 20:41

#	Modifying user name:	WinNT
#	Modification time:	15. 06. 2019 20:41

#	Program:	/corina/corina34_cracker 3.40 0067  02.08.2006

@<TRIPOS>MOLECULE
ASD03430537
  43   47    0    0    0
SMALL
NO_CHARGES


@<TRIPOS>ATOM
   1 O1            -0.0902     1.4302     0.1208 O.3     
   2 C2            -0.0854    -0.0016     0.1344 C.3     
   3 C3             0.9472    -0.4680     1.1695 C.3     
   4 O4             2.2285     0.0433     0.7877 O.3     
   5 C5             2.2823     1.3547     0.4254 C.ar    
   6 C6             1.1241     2.0451     0.0872 C.ar    
   7 C7             3.5064     2.0015     0.3978 C.ar    
   8 C8             3.5896     3.3392     0.0251 C.ar    
   9 C9             2.4257     4.0150    -0.3286 C.ar    
  10 C10            1.2043     3.3761    -0.2923 C.ar    
  11 O11            4.6778     4.1582    -0.0473 O.3     
  12 C12            2.8394     5.4107    -0.7114 C.3     
  13 C13            4.3614     5.2959    -0.8723 C.3     
  14 N14            1.5141     7.0049    -1.6725 N.am    
  15 C15            2.1779     5.8723    -1.9784 C.2     
  16 C16            2.4598     6.4243     0.3264 C.ar    
  17 C17            2.7462     6.5678     1.6823 C.ar    
  18 C18            2.2239     7.6563     2.3900 C.ar    
  19 C19            1.4303     8.5769     1.7376 C.ar    
  20 C20            1.1488     8.4326     0.3935 C.ar    
  21 C21            1.6605     7.3538    -0.3270 C.ar    
  22 O22            2.2306     5.3322    -3.0631 O.2     
  23 C23            0.7313     7.7803    -2.6380 C.3     
  24 C24            3.5941     5.5789     2.3674 C.2     
  25 O25            4.7588     5.8306     2.5919 O.2     
  26 C26            3.0147     4.2534     2.7899 C.3     
  27 Br27           4.4431     3.1163     3.5190 Br      
  28 H28           -1.0738    -0.3700     0.4091 H       
  29 H29            0.1868    -0.3777    -0.8518 H       
  30 H30            0.6780    -0.0868     2.1545 H       
  31 H31            0.9782    -1.5574     1.1924 H       
  32 H32            4.4030     1.4635     0.6679 H       
  33 H33            0.3072     3.9143    -0.5605 H       
  34 H34            4.8585     6.1926    -0.5022 H       
  35 H35            4.6274     5.1059    -1.9122 H       
  36 H36            2.4406     7.7747     3.4414 H       
  37 H37            1.0262     9.4174     2.2823 H       
  38 H38            0.5265     9.1616    -0.1042 H       
  39 H39            0.7773     7.2976    -3.6142 H       
  40 H40           -0.3059     7.8321    -2.3067 H       
  41 H41            1.1400     8.7880    -2.7113 H       
  42 H42            2.2543     4.4162     3.5537 H       
  43 H43            2.5640     3.7624     1.9274 H       
@<TRIPOS>BOND
   1    1    2 1
   2    1    6 1
   3    2    3 1
   4    2   28 1
   5    2   29 1
   6    3    4 1
   7    3   30 1
   8    3   31 1
   9    4    5 1
  10    5    6 ar
  11    5    7 ar
  12    6   10 ar
  13    7    8 ar
  14    7   32 1
  15    8    9 ar
  16    8   11 1
  17    9   10 ar
  18    9   12 1
  19   10   33 1
  20   11   13 1
  21   12   13 1
  22   12   15 1
  23   12   16 1
  24   13   34 1
  25   13   35 1
  26   14   15 am
  27   14   21 1
  28   14   23 1
  29   15   22 2
  30   16   17 ar
  31   16   21 ar
  32   17   18 ar
  33   17   24 1
  34   18   19 ar
  35   18   36 1
  36   19   20 ar
  37   19   37 1
  38   20   21 ar
  39   20   38 1
  40   23   39 1
  41   23   40 1
  42   23   41 1
  43   24   25 2
  44   24   26 1
  45   26   27 1
  46   26   42 1
  47   26   43 1

#	End of record

