#	Name: ASD05420022
#	Creating user name:	WinNT
#	Creation time:	15. 06. 2019 20:59

#	Modifying user name:	WinNT
#	Modification time:	15. 06. 2019 20:59

#	Program:	/corina/corina34_cracker 3.40 0067  02.08.2006

@<TRIPOS>MOLECULE
ASD05420022
  18   18    0    0    0
SMALL
NO_CHARGES


@<TRIPOS>ATOM
   1 C1             0.0338     1.4119     0.2675 C.ar    
   2 C2             0.0873     0.0520     0.5159 C.ar    
   3 C3             1.2498    -0.6564     0.2424 C.ar    
   4 C4             2.3555     0.0032    -0.2800 C.ar    
   5 C5             2.2965     1.3608    -0.5260 C.ar    
   6 C6             1.1384     2.0652    -0.2532 C.ar    
   7 N7             1.3076    -2.0293     0.4923 N.pl3   
   8 N8             3.5965    -0.7489    -0.5722 N.pl3   
   9 O9             4.6821    -0.2360    -0.3673 O.2     
  10 O10            3.5321    -1.8807    -1.0176 O.2     
  11 N11           -1.0928    -0.6468     1.0728 N.pl3   
  12 O12           -1.9257    -1.1264     0.3248 O.2     
  13 O13           -1.2309    -0.7421     2.2792 O.2     
  14 F14           -1.0983     2.1018     0.5277 F       
  15 H15            3.1562     1.8731    -0.9320 H       
  16 H16            1.0951     3.1269    -0.4465 H       
  17 H17            0.5053    -2.5095     0.7504 H       
  18 H18            2.1501    -2.5026     0.4077 H       
@<TRIPOS>BOND
   1    1    2 ar
   2    1    6 ar
   3    1   14 1
   4    2    3 ar
   5    2   11 1
   6    3    4 ar
   7    3    7 1
   8    4    5 ar
   9    4    8 1
  10    5    6 ar
  11    5   15 1
  12    6   16 1
  13    7   17 1
  14    7   18 1
  15    8    9 2
  16    8   10 2
  17   11   12 2
  18   11   13 2

#	End of record

