#	Name: ASD01180103
#	Creating user name:	WinNT
#	Creation time:	15. 06. 2019 19:06

#	Modifying user name:	WinNT
#	Modification time:	15. 06. 2019 19:06

#	Program:	/corina/corina34_cracker 3.40 0067  02.08.2006

@<TRIPOS>MOLECULE
ASD01180103
  42   44    0    0    0
SMALL
NO_CHARGES


@<TRIPOS>ATOM
   1 C1            -0.0642     1.1424     0.6111 C.2     
   2 C2             0.0323    -0.0248    -0.0447 C.2     
   3 C3             1.3456    -0.6757    -0.2016 C.ar    
   4 C4             1.4504    -2.0652    -0.1336 C.ar    
   5 C5             2.6938    -2.6710    -0.2833 C.ar    
   6 C6             3.8273    -1.8877    -0.5001 C.ar    
   7 C7             3.7192    -0.5119    -0.5663 C.ar    
   8 C8             2.4891     0.0973    -0.4247 C.ar    
   9 C9             2.8140    -4.1476    -0.2119 C.ar    
  10 C10            4.0574    -4.7669    -0.3607 C.ar    
  11 C11            4.1156    -6.1474    -0.2859 C.ar    
  12 N12            3.0006    -6.8304    -0.0775 N.ar    
  13 C13            1.8421    -6.2159     0.0589 C.ar    
  14 N14            1.7393    -4.9047     0.0006 N.ar    
  15 S15            0.3909    -7.1767     0.3338 S.o     
  16 C16            0.3159    -7.2942     2.1425 C.3     
  17 O17           -0.6485    -6.3254    -0.1290 O.2     
  18 C18            1.0969     1.6713     1.3491 C.ar    
  19 C19            1.3507     3.0452     1.3672 C.ar    
  20 C20            2.4391     3.5329     2.0599 C.ar    
  21 C21            3.2787     2.6651     2.7359 C.ar    
  22 C22            3.0339     1.3032     2.7220 C.ar    
  23 C23            1.9458     0.8017     2.0388 C.ar    
  24 C24            5.4319    -6.8647    -0.4403 C.3     
  25 F25            6.0348    -7.0079     0.8140 F       
  26 F26            5.2116    -8.1284    -0.9988 F       
  27 F27            6.2712    -6.1239    -1.2793 F       
  28 H28           -0.9913     1.6962     0.5943 H       
  29 H29           -0.8522    -0.4871    -0.4574 H       
  30 H30            0.5702    -2.6680     0.0347 H       
  31 H31            4.7926    -2.3580    -0.6163 H       
  32 H32            4.6007     0.0893    -0.7337 H       
  33 H33            2.4108     1.1732    -0.4777 H       
  34 H34            4.9502    -4.1833    -0.5302 H       
  35 H35            0.2430    -6.2938     2.5689 H       
  36 H36           -0.5579    -7.8775     2.4328 H       
  37 H37            1.2177    -7.7821     2.5125 H       
  38 H38            0.6964     3.7236     0.8399 H       
  39 H39            2.6367     4.5945     2.0745 H       
  40 H40            4.1295     3.0526     3.2766 H       
  41 H41            3.6937     0.6319     3.2515 H       
  42 H42            1.7557    -0.2614     2.0291 H       
@<TRIPOS>BOND
   1    1    2 2
   2    1   18 1
   3    1   28 1
   4    2    3 1
   5    2   29 1
   6    3    4 ar
   7    3    8 ar
   8    4    5 ar
   9    4   30 1
  10    5    6 ar
  11    5    9 1
  12    6    7 ar
  13    6   31 1
  14    7    8 ar
  15    7   32 1
  16    8   33 1
  17    9   10 ar
  18    9   14 ar
  19   10   11 ar
  20   10   34 1
  21   11   24 1
  22   11   12 ar
  23   12   13 ar
  24   13   14 ar
  25   13   15 1
  26   15   16 1
  27   15   17 2
  28   16   35 1
  29   16   36 1
  30   16   37 1
  31   18   19 ar
  32   18   23 ar
  33   19   20 ar
  34   19   38 1
  35   20   21 ar
  36   20   39 1
  37   21   22 ar
  38   21   40 1
  39   22   23 ar
  40   22   41 1
  41   23   42 1
  42   24   25 1
  43   24   26 1
  44   24   27 1

#	End of record

