#	Name: ASD01914220
#	Creating user name:	WinNT
#	Creation time:	15. 06. 2019 20:03

#	Modifying user name:	WinNT
#	Modification time:	15. 06. 2019 20:03

#	Program:	/corina/corina34_cracker 3.40 0067  02.08.2006

@<TRIPOS>MOLECULE
ASD01914220
  33   34    0    0    0
SMALL
NO_CHARGES


@<TRIPOS>ATOM
   1 C1            -0.0465     1.4850     0.2241 C.2     
   2 C2            -0.0457    -0.0219     0.2060 C.3     
   3 C3             1.3742    -0.5341     0.4560 C.3     
   4 C4             1.3750    -2.0060     0.4383 C.1     
   5 C5             1.3757    -3.1800     0.4242 C.1     
   6 O6             0.9868     2.0897     0.4178 O.2     
   7 N7            -1.1946     2.1607     0.0195 N.am    
   8 C8             1.3765    -4.6119     0.4071 C.ar    
   9 C9             2.5691    -5.3061     0.6138 C.ar    
  10 C10            2.5534    -6.6893     0.5942 C.ar    
  11 C11            1.3457    -7.3355     0.3686 C.ar    
  12 C12            0.2011    -6.5854     0.1711 C.ar    
  13 N13            0.2412    -5.2690     0.1999 N.ar    
  14 C14           -1.2153     3.5557     0.1328 C.ar    
  15 C15           -0.1180     4.3030    -0.2744 C.ar    
  16 C16           -0.1412     5.6793    -0.1620 C.ar    
  17 C17           -1.2565     6.3137     0.3564 C.ar    
  18 C18           -2.3512     5.5713     0.7633 C.ar    
  19 C19           -2.3355     4.1951     0.6473 C.ar    
  20 Cl20          -1.2822     8.0438     0.4969 Cl      
  21 H21           -0.7092    -0.3950     0.9862 H       
  22 H22           -0.3932    -0.3738    -0.7653 H       
  23 H23            2.0376    -0.1611    -0.3242 H       
  24 H24            1.7216    -0.1822     1.4273 H       
  25 H25           -2.0065     1.6803    -0.2064 H       
  26 H26            3.4914    -4.7712     0.7863 H       
  27 H27            3.4607    -7.2539     0.7507 H       
  28 H28            1.3007    -8.4143     0.3470 H       
  29 H29           -0.7397    -7.0858    -0.0050 H       
  30 H30            0.7529     3.8083    -0.6784 H       
  31 H31            0.7119     6.2609    -0.4785 H       
  32 H32           -3.2202     6.0687     1.1679 H       
  33 H33           -3.1918     3.6165     0.9608 H       
@<TRIPOS>BOND
   1    1    2 1
   2    1    6 2
   3    1    7 am
   4    2    3 1
   5    2   21 1
   6    2   22 1
   7    3    4 1
   8    3   23 1
   9    3   24 1
  10    4    5 3
  11    5    8 1
  12    7   14 1
  13    7   25 1
  14    8    9 ar
  15    8   13 ar
  16    9   10 ar
  17    9   26 1
  18   10   11 ar
  19   10   27 1
  20   11   12 ar
  21   11   28 1
  22   12   13 ar
  23   12   29 1
  24   14   15 ar
  25   14   19 ar
  26   15   16 ar
  27   15   30 1
  28   16   17 ar
  29   16   31 1
  30   17   18 ar
  31   17   20 1
  32   18   19 ar
  33   18   32 1
  34   19   33 1

#	End of record

