#	Name: ASD03092097
#	Creating user name:	WinNT
#	Creation time:	15. 06. 2019 20:31

#	Modifying user name:	WinNT
#	Modification time:	15. 06. 2019 20:31

#	Program:	/corina/corina34_cracker 3.40 0067  02.08.2006

@<TRIPOS>MOLECULE
ASD03092097
  43   45    0    0    0
SMALL
NO_CHARGES


@<TRIPOS>ATOM
   1 N1             0.1280     1.3354     0.0456 N.am    
   2 C2            -0.0116    -0.0271    -0.0084 C.2     
   3 C3            -1.3470    -0.2978    -0.0532 C.2     
   4 C4            -2.0347     0.9262    -0.0260 C.2     
   5 N5            -1.1549     1.8975     0.0390 N.2     
   6 N6            -3.4229     1.0832    -0.0571 N.pl3   
   7 C7            -3.9864     2.3540     0.0941 C.ar    
   8 C8            -5.2404     2.6261    -0.4366 C.ar    
   9 C9            -5.7957     3.8838    -0.2852 C.ar    
  10 C10           -5.1002     4.8716     0.3955 C.ar    
  11 C11           -3.2948     3.3442     0.7804 C.ar    
  12 C12            1.0841    -1.0202    -0.0172 C.ar    
  13 C13            1.2918     2.0130     0.1010 C.2     
  14 C14            0.9596    -2.2348     0.6673 C.ar    
  15 C15            2.0064    -3.1322     0.6325 C.ar    
  16 N16            3.1122    -2.8580    -0.0331 N.ar    
  17 C17            3.2706    -1.7256    -0.6915 C.ar    
  18 C18            2.2722    -0.7743    -0.7151 C.ar    
  19 C19            4.5576    -1.4708    -1.4331 C.3     
  20 C20           -3.8501     4.6007     0.9246 C.ar    
  21 F21           -7.0157     4.1501    -0.8010 F       
  22 N22            1.2915     3.3592     0.0358 N.am    
  23 O23            2.3413     1.4102     0.2098 O.2     
  24 C24            2.5564     4.0958     0.0960 C.3     
  25 C25            1.8858    -4.4436     1.3652 C.3     
  26 F26           -5.6431     6.1000     0.5420 F       
  27 H27           -1.7960    -1.2788    -0.1015 H       
  28 H28           -3.9957     0.3106    -0.1836 H       
  29 H29           -5.7814     1.8566    -0.9673 H       
  30 H30           -2.3212     3.1329     1.1972 H       
  31 H31            0.0577    -2.4655     1.2148 H       
  32 H32            2.4088     0.1504    -1.2561 H       
  33 H33            4.4686    -1.8430    -2.4537 H       
  34 H34            4.7595    -0.3998    -1.4531 H       
  35 H35            5.3755    -1.9853    -0.9287 H       
  36 H36           -3.3100     5.3715     1.4544 H       
  37 H37            0.4537     3.8404    -0.0511 H       
  38 H38            3.0592     3.8779     1.0382 H       
  39 H39            3.1936     3.7920    -0.7346 H       
  40 H40            2.3576     5.1654     0.0291 H       
  41 H41            1.4571    -5.1932     0.7001 H       
  42 H42            2.8734    -4.7696     1.6915 H       
  43 H43            1.2397    -4.3164     2.2338 H       
@<TRIPOS>BOND
   1    1    2 1
   2    1   13 am
   3    1    5 1
   4    2    3 2
   5    2   12 1
   6    3    4 1
   7    3   27 1
   8    4    5 2
   9    4    6 1
  10    6    7 1
  11    6   28 1
  12    7    8 ar
  13    7   11 ar
  14    8    9 ar
  15    8   29 1
  16    9   10 ar
  17    9   21 1
  18   10   20 ar
  19   10   26 1
  20   11   20 ar
  21   11   30 1
  22   12   14 ar
  23   12   18 ar
  24   13   22 am
  25   13   23 2
  26   14   15 ar
  27   14   31 1
  28   15   16 ar
  29   15   25 1
  30   16   17 ar
  31   17   18 ar
  32   17   19 1
  33   18   32 1
  34   19   33 1
  35   19   34 1
  36   19   35 1
  37   20   36 1
  38   22   24 1
  39   22   37 1
  40   24   38 1
  41   24   39 1
  42   24   40 1
  43   25   41 1
  44   25   42 1
  45   25   43 1

#	End of record

