#	Name: ASD06590039
#	Creating user name:	WinNT
#	Creation time:	15. 06. 2019 21:06

#	Modifying user name:	WinNT
#	Modification time:	15. 06. 2019 21:06

#	Program:	/corina/corina34_cracker 3.40 0067  02.08.2006

@<TRIPOS>MOLECULE
ASD06590039
 273  273    0    0    0
SMALL
NO_CHARGES


@<TRIPOS>ATOM
   1 C1            -2.7756    -0.0533    -0.9511 C.2     
   2 O2            -3.3512    -1.1001    -1.1604 O.2     
   3 N3            -0.7125    -1.3371    -0.9494 N.3     
   4 C4            -1.2741     0.0158    -1.0593 C.3     
   5 C5            -0.8875     0.6202    -2.4107 C.3     
   6 C6             0.6300     0.8058    -2.4709 C.3     
   7 C7             1.0166     1.4102    -3.8223 C.3     
   8 N8             2.4697     1.5879    -3.8800 N.pl3   
   9 C9             3.0529     2.1189    -5.0055 C.2     
  10 N10            2.3262     2.3808    -6.0534 N.2     
  11 N11            4.4105     2.3748    -5.0249 N.am    
  12 C12           -5.5215     2.3530    -0.7683 C.2     
  13 O13           -4.7887     3.2912    -1.0000 O.2     
  14 N14           -3.4793     1.0496    -0.6271 N.am    
  15 C15           -4.9395     0.9839    -0.5277 C.3     
  16 C16           -5.3344     0.5001     0.8690 C.3     
  17 C17           -4.8502    -0.9377     1.0666 C.3     
  18 C18           -5.2391    -1.4142     2.4423 C.2     
  19 O19           -5.8418    -0.6792     3.1883 O.2     
  20 O20           -4.9160    -2.6552     2.8390 O.3     
  21 C21           -8.7668     3.9653    -0.2872 C.2     
  22 O22           -9.2599     2.9856     0.2305 O.2     
  23 N23           -6.8563     2.5348    -0.7261 N.am    
  24 C24           -7.4220     3.8657    -0.9600 C.3     
  25 C25           -7.5862     4.0930    -2.4641 C.3     
  26 C26           -6.2120     4.0698    -3.1364 C.3     
  27 O27           -8.4039     3.0589    -3.0156 O.3     
  28 C28          -11.6692     5.9481    -0.6956 C.2     
  29 O29          -11.2090     6.3727    -1.7343 O.2     
  30 N30           -9.4216     5.1430    -0.2607 N.am    
  31 C31          -10.7829     5.2123     0.2761 C.3     
  32 C32          -10.7664     5.9545     1.6139 C.3     
  33 C33           -9.8705     5.2254     2.5818 C.2     
  34 O34           -9.2820     4.2256     2.2282 O.2     
  35 N35           -9.7231     5.6845     3.8404 N.am    
  36 C36          -14.9983     7.4559    -0.6137 C.2     
  37 O37          -15.0980     7.3055     0.5856 O.2     
  38 N38          -12.9732     6.1342    -0.4104 N.am    
  39 C39          -13.8348     6.8494    -1.3550 C.3     
  40 C40          -14.3562     5.8721    -2.4105 C.3     
  41 C41          -17.9454     9.4908    -1.5345 C.2     
  42 O42          -17.6603     9.5198    -2.7130 O.2     
  43 N43          -15.9280     8.1655    -1.2835 N.am    
  44 C44          -17.0591     8.7550    -0.5628 C.3     
  45 C45          -20.6803    11.9057    -1.3077 C.2     
  46 O46          -20.5207    12.0586    -0.1152 O.2     
  47 N47          -19.0548    10.1166    -1.0939 N.am    
  48 C48          -19.9164    10.8318    -2.0386 C.3     
  49 C49          -20.9011     9.8491    -2.6754 C.3     
  50 C50          -20.1317     8.8314    -3.5200 C.3     
  51 C51          -21.1164     7.8488    -4.1568 C.3     
  52 N52          -20.3797     6.8743    -4.9655 N.pl3   
  53 C53          -21.0585     5.8860    -5.6383 C.2     
  54 N54          -20.4030     5.0190    -6.3578 N.2     
  55 N55          -22.4286     5.8121    -5.5521 N.pl3   
  56 C56          -23.5539    14.0509    -2.0173 C.2     
  57 O57          -23.8136    13.4584    -3.0433 O.2     
  58 N58          -21.5408    12.6963    -1.9793 N.am    
  59 C59          -22.2834    13.7403    -1.2688 C.3     
  60 C60          -21.4247    15.0032    -1.1755 C.3     
  61 O61          -21.2005    15.5247    -2.4869 O.3     
  62 C62          -25.1877    16.3879    -3.3656 C.2     
  63 O63          -24.0364    16.7611    -3.4434 O.2     
  64 N64          -24.4017    14.9869    -1.5467 N.am    
  65 C65          -25.5806    15.3672    -2.3289 C.3     
  66 C66          -26.6382    15.9655    -1.3992 C.3     
  67 C67          -27.1332    14.9031    -0.4519 C.2     
  68 O68          -26.6312    13.8041    -0.4610 O.2     
  69 O69          -28.1317    15.1778     0.4021 O.3     
  70 C70          -26.9373    18.7061    -5.5855 C.2     
  71 O71          -28.0085    18.4885    -5.0601 O.2     
  72 N72          -26.1158    16.8862    -4.2063 N.am    
  73 C73          -25.7339    17.8785    -5.2141 C.3     
  74 C74          -25.2030    17.1636    -6.4582 C.3     
  75 C75          -24.0601    16.2276    -6.0599 C.3     
  76 O76          -26.2550    16.4032    -7.0560 O.3     
  77 C77          -27.8089    21.0528    -8.2494 C.2     
  78 O78          -26.7998    20.8045    -8.8747 O.2     
  79 N79          -26.8232    19.6881    -6.5015 N.am    
  80 C80          -27.9931    20.4927    -6.8626 C.3     
  81 C81          -28.1492    21.6420    -5.8648 C.3     
  82 C82          -28.4602    21.0750    -4.4782 C.3     
  83 C83          -28.6163    22.2244    -3.4805 C.3     
  84 N84          -28.9141    21.6815    -2.1528 N.pl3   
  85 C85          -29.0971    22.5314    -1.0878 C.2     
  86 N86          -29.3620    22.0484     0.0935 N.2     
  87 N87          -29.0007    23.8909    -1.2688 N.pl3   
  88 C88          -29.4079    23.6292   -10.2912 C.2     
  89 O89          -30.0769    24.0291    -9.3621 O.2     
  90 N90          -28.7655    21.8298    -8.7949 N.am    
  91 C91          -28.5865    22.3744   -10.1431 C.3     
  92 C92          -29.0429    21.3413   -11.1752 C.3     
  93 C93          -28.1290    20.1160   -11.1089 C.3     
  94 C94          -28.5786    19.0984   -12.1255 C.2     
  95 O95          -29.5357    19.3303   -12.8333 O.2     
  96 N96          -27.9170    17.9306   -12.2481 N.am    
  97 C97          -30.5209    25.7464   -13.0555 C.2     
  98 O98          -30.1236    24.9614   -13.8903 O.2     
  99 N99          -29.3989    24.3068   -11.4561 N.am    
 100 C100         -30.1974    25.5266   -11.6001 C.3     
 101 C101         -29.4037    26.7215   -11.0680 C.3     
 102 C102         -29.1829    26.5576    -9.5629 C.3     
 103 C103         -28.4011    27.7345    -9.0388 C.2     
 104 O104         -28.0547    28.6175    -9.7946 O.2     
 105 N105         -28.0869    27.8059    -7.7301 N.am    
 106 C106         -30.4261    27.7578   -15.5077 C.2     
 107 O107         -29.4511    28.0670   -14.8647 O.2     
 108 N108         -31.2517    26.8153   -13.4294 N.am    
 109 C109         -31.5662    27.0290   -14.8442 C.3     
 110 C110         -32.8429    27.8638   -14.9625 C.3     
 111 C111         -34.0068    27.0828   -14.4089 C.ar    
 112 C112         -34.3361    27.1906   -13.0704 C.ar    
 113 C113         -35.4023    26.4754   -12.5604 C.ar    
 114 C114         -36.1432    25.6489   -13.3927 C.ar    
 115 O115         -37.1928    24.9446   -12.8934 O.3     
 116 C116         -35.8111    25.5429   -14.7355 C.ar    
 117 C117         -34.7471    26.2642   -15.2417 C.ar    
 118 O118         -30.4940    28.0634   -16.8130 O.3     
 119 C119           5.1860     1.9765    -3.9971 C.2     
 120 O120           4.7125     1.3061    -3.1046 O.2     
 121 C121          21.5138     1.0921     5.1576 C.3     
 122 C122          20.0359     0.6984     5.1171 C.3     
 123 C123          19.3892     1.2738     3.8555 C.3     
 124 C124          17.9113     0.8801     3.8150 C.3     
 125 C125          17.2646     1.4555     2.5534 C.3     
 126 C126          15.7867     1.0619     2.5129 C.3     
 127 C127          15.1401     1.6372     1.2513 C.3     
 128 C128          13.6621     1.2436     1.2108 C.3     
 129 C129          13.0155     1.8190    -0.0509 C.3     
 130 C130          11.5375     1.4253    -0.0914 C.3     
 131 C131          10.8909     2.0007    -1.3530 C.3     
 132 C132           9.4130     1.6071    -1.3935 C.3     
 133 C133           8.7663     2.1824    -2.6551 C.3     
 134 C134           7.2884     1.7888    -2.6956 C.3     
 135 C135           6.6417     2.3642    -3.9572 C.3     
 136 H136          -0.8992    -1.7333    -0.0404 H       
 137 H137          -1.0626    -1.9347    -1.6831 H       
 138 H138          -0.8803     0.6391    -0.2565 H       
 139 H139          -1.2039    -0.0481    -3.2115 H       
 140 H140          -1.3767     1.5870    -2.5296 H       
 141 H141           0.9464     1.4741    -1.6701 H       
 142 H142           1.1193    -0.1610    -2.3520 H       
 143 H143           0.7002     0.7419    -4.6231 H       
 144 H144           0.5274     2.3769    -3.9412 H       
 145 H145           3.0201     1.3307    -3.1238 H       
 146 H146           2.7228     2.8223    -6.8207 H       
 147 H147           4.8054     2.8412    -5.7782 H       
 148 H148          -3.0190     1.8868    -0.4596 H       
 149 H149          -5.3236     0.2894    -1.2749 H       
 150 H150          -4.8763     1.1442     1.6196 H       
 151 H151          -6.4189     0.5358     0.9727 H       
 152 H152          -5.3083    -1.5818     0.3160 H       
 153 H153          -3.7657    -0.9734     0.9629 H       
 154 H154          -5.1869    -2.9157     3.7300 H       
 155 H155          -7.4423     1.7844    -0.5408 H       
 156 H156          -6.7533     4.6221    -0.5491 H       
 157 H157          -8.0585     5.0602    -2.6360 H       
 158 H158          -5.7837     3.0709    -3.0533 H       
 159 H159          -6.3179     4.3333    -4.1887 H       
 160 H160          -5.5555     4.7886    -2.6461 H       
 161 H161          -9.2918     3.0145    -2.6351 H       
 162 H162          -8.9915     5.9447    -0.5971 H       
 163 H163         -11.1665     4.2030     0.4252 H       
 164 H164         -10.3911     6.9667     1.4633 H       
 165 H165         -11.7779     5.9984     2.0176 H       
 166 H166         -10.1937     6.4841     4.1232 H       
 167 H167          -9.1464     5.2152     4.4634 H       
 168 H168         -13.3413     5.7946     0.4203 H       
 169 H169         -13.2629     7.6392    -1.8422 H       
 170 H170         -14.9972     6.4043    -3.1133 H       
 171 H171         -13.5147     5.4335    -2.9467 H       
 172 H172         -14.9281     5.0824    -1.9233 H       
 173 H173         -15.8483     8.2858    -2.2427 H       
 174 H174         -16.6876     9.4513     0.1891 H       
 175 H175         -17.6310     7.9653    -0.0757 H       
 176 H176         -19.2828    10.0933    -0.1514 H       
 177 H177         -19.3033    11.2873    -2.8163 H       
 178 H178         -21.4526     9.3286    -1.8925 H       
 179 H179         -21.5992    10.3945    -3.3104 H       
 180 H180         -19.5802     9.3519    -4.3029 H       
 181 H181         -19.4335     8.2860    -2.8850 H       
 182 H182         -21.6679     7.3283    -3.3739 H       
 183 H183         -21.8145     8.3942    -4.7918 H       
 184 H184         -19.4130     6.9265    -5.0263 H       
 185 H185         -20.8819     4.3217    -6.8324 H       
 186 H186         -22.9164     6.4573    -5.0167 H       
 187 H187         -22.9075     5.1148    -6.0268 H       
 188 H188         -21.6684    12.5740    -2.9330 H       
 189 H189         -22.5286    13.3928    -0.2652 H       
 190 H190         -21.9405    15.7494    -0.5711 H       
 191 H191         -20.4683    14.7590    -0.7132 H       
 192 H192         -20.6620    16.3277    -2.5041 H       
 193 H193         -24.2313    15.4089    -0.6900 H       
 194 H194         -25.9884    14.4855    -2.8234 H       
 195 H195         -26.1996    16.7846    -0.8294 H       
 196 H196         -27.4724    16.3410    -1.9919 H       
 197 H197         -28.4150    14.4645     0.9903 H       
 198 H198         -27.0367    16.5878    -4.1441 H       
 199 H199         -24.9576    18.5276    -4.8090 H       
 200 H200         -24.8366    17.9009    -7.1725 H       
 201 H201         -23.6819    15.7183    -6.9462 H       
 202 H202         -23.2577    16.8076    -5.6039 H       
 203 H203         -24.4265    15.4902    -5.3456 H       
 204 H204         -25.9894    15.9223    -7.8518 H       
 205 H205         -25.9664    19.8622    -6.9218 H       
 206 H206         -28.8855    19.8672    -6.8389 H       
 207 H207         -27.2232    22.2156    -5.8235 H       
 208 H208         -28.9648    22.2913    -6.1832 H       
 209 H209         -29.3861    20.5015    -4.5196 H       
 210 H210         -27.6445    20.4258    -4.1599 H       
 211 H211         -27.6903    22.7980    -3.4392 H       
 212 H212         -29.4319    22.8736    -3.7989 H       
 213 H213         -28.9821    20.7223    -2.0251 H       
 214 H214         -29.4912    22.6481     0.8449 H       
 215 H215         -28.8035    24.2504    -2.1479 H       
 216 H216         -29.1298    24.4906    -0.5174 H       
 217 H217         -29.5726    22.0284    -8.2948 H       
 218 H218         -27.5340    22.6080   -10.3037 H       
 219 H219         -30.0686    21.0415   -10.9602 H       
 220 H220         -28.9935    21.7779   -12.1727 H       
 221 H221         -27.1033    20.4157   -11.3239 H       
 222 H222         -28.1784    19.6794   -10.1114 H       
 223 H223         -27.1515    17.7451   -11.6819 H       
 224 H224         -28.2064    17.2756   -12.9024 H       
 225 H225         -28.8638    23.9869   -12.1992 H       
 226 H226         -31.1230    25.4240   -11.0337 H       
 227 H227         -28.4393    26.7712   -11.5734 H       
 228 H228         -29.9600    27.6399   -11.2557 H       
 229 H229         -30.1474    26.5079    -9.0575 H       
 230 H230         -28.6266    25.6393    -9.3752 H       
 231 H231         -28.3640    27.0997    -7.1256 H       
 232 H232         -27.5838    28.5634    -7.3927 H       
 233 H233         -31.5695    27.4431   -12.7618 H       
 234 H234         -31.7152    26.0660   -15.3328 H       
 235 H235         -32.7253    28.7893   -14.3988 H       
 236 H236         -33.0281    28.0979   -16.0108 H       
 237 H237         -33.7590    27.8341   -12.4229 H       
 238 H238         -35.6586    26.5593   -11.5146 H       
 239 H239         -38.0372    25.4139   -12.9361 H       
 240 H240         -36.3861    24.8998   -15.3853 H       
 241 H241         -34.4909    26.1854   -16.2879 H       
 242 H242         -29.7384    28.5313   -17.1942 H       
 243 H243          22.0196     0.6959     4.2771 H       
 244 H244          21.6003     2.1786     5.1682 H       
 245 H245          21.9745     0.6822     6.0564 H       
 246 H246          19.9494    -0.3881     5.1066 H       
 247 H247          19.5301     1.0946     5.9977 H       
 248 H248          19.4757     2.3603     3.8661 H       
 249 H249          19.8950     0.8776     2.9750 H       
 250 H250          17.8248    -0.2064     3.8044 H       
 251 H251          17.4055     1.2763     4.6955 H       
 252 H252          17.3511     2.5420     2.5640 H       
 253 H253          17.7704     1.0593     1.6729 H       
 254 H254          15.7002    -0.0246     2.5023 H       
 255 H255          15.2809     1.4581     3.3934 H       
 256 H256          15.2265     2.7238     1.2618 H       
 257 H257          15.6458     1.2411     0.3707 H       
 258 H258          13.5757     0.1571     1.2002 H       
 259 H259          13.1563     1.6398     2.0913 H       
 260 H260          13.1019     2.9055    -0.0403 H       
 261 H261          13.5213     1.4228    -0.9314 H       
 262 H262          11.4511     0.3388    -0.1019 H       
 263 H263          11.0318     1.8215     0.7892 H       
 264 H264          10.9774     3.0872    -1.3424 H       
 265 H265          11.3967     1.6045    -2.2335 H       
 266 H266           9.3265     0.5206    -1.4041 H       
 267 H267           8.9072     2.0032    -0.5129 H       
 268 H268           8.8528     3.2690    -2.6445 H       
 269 H269           9.2721     1.7863    -3.5356 H       
 270 H270           7.2019     0.7023    -2.7062 H       
 271 H271           6.7826     2.1850    -1.8151 H       
 272 H272           7.1475     1.9680    -4.8378 H       
 273 H273           6.7282     3.4507    -3.9467 H       
@<TRIPOS>BOND
   1    1    2 2
   2    1    4 1
   3    1   14 am
   4    3    4 1
   5    3  136 1
   6    3  137 1
   7    4    5 1
   8    4  138 1
   9    5    6 1
  10    5  139 1
  11    5  140 1
  12    6    7 1
  13    6  141 1
  14    6  142 1
  15    7    8 1
  16    7  143 1
  17    7  144 1
  18    8    9 1
  19    8  145 1
  20    9   10 2
  21    9   11 1
  22   10  146 1
  23   11  119 am
  24   11  147 1
  25   12   13 2
  26   12   15 1
  27   12   23 am
  28   14   15 1
  29   14  148 1
  30   15   16 1
  31   15  149 1
  32   16   17 1
  33   16  150 1
  34   16  151 1
  35   17   18 1
  36   17  152 1
  37   17  153 1
  38   18   19 2
  39   18   20 1
  40   20  154 1
  41   21   22 2
  42   21   24 1
  43   21   30 am
  44   23   24 1
  45   23  155 1
  46   24   25 1
  47   24  156 1
  48   25   26 1
  49   25   27 1
  50   25  157 1
  51   26  158 1
  52   26  159 1
  53   26  160 1
  54   27  161 1
  55   28   29 2
  56   28   31 1
  57   28   38 am
  58   30   31 1
  59   30  162 1
  60   31   32 1
  61   31  163 1
  62   32   33 1
  63   32  164 1
  64   32  165 1
  65   33   34 2
  66   33   35 am
  67   35  166 1
  68   35  167 1
  69   36   37 2
  70   36   39 1
  71   36   43 am
  72   38   39 1
  73   38  168 1
  74   39   40 1
  75   39  169 1
  76   40  170 1
  77   40  171 1
  78   40  172 1
  79   41   42 2
  80   41   44 1
  81   41   47 am
  82   43   44 1
  83   43  173 1
  84   44  174 1
  85   44  175 1
  86   45   46 2
  87   45   48 1
  88   45   58 am
  89   47   48 1
  90   47  176 1
  91   48   49 1
  92   48  177 1
  93   49   50 1
  94   49  178 1
  95   49  179 1
  96   50   51 1
  97   50  180 1
  98   50  181 1
  99   51   52 1
 100   51  182 1
 101   51  183 1
 102   52   53 1
 103   52  184 1
 104   53   54 2
 105   53   55 1
 106   54  185 1
 107   55  186 1
 108   55  187 1
 109   56   57 2
 110   56   59 1
 111   56   64 am
 112   58   59 1
 113   58  188 1
 114   59   60 1
 115   59  189 1
 116   60   61 1
 117   60  190 1
 118   60  191 1
 119   61  192 1
 120   62   63 2
 121   62   65 1
 122   62   72 am
 123   64   65 1
 124   64  193 1
 125   65   66 1
 126   65  194 1
 127   66   67 1
 128   66  195 1
 129   66  196 1
 130   67   68 2
 131   67   69 1
 132   69  197 1
 133   70   71 2
 134   70   73 1
 135   70   79 am
 136   72   73 1
 137   72  198 1
 138   73   74 1
 139   73  199 1
 140   74   75 1
 141   74   76 1
 142   74  200 1
 143   75  201 1
 144   75  202 1
 145   75  203 1
 146   76  204 1
 147   77   78 2
 148   77   80 1
 149   77   90 am
 150   79   80 1
 151   79  205 1
 152   80   81 1
 153   80  206 1
 154   81   82 1
 155   81  207 1
 156   81  208 1
 157   82   83 1
 158   82  209 1
 159   82  210 1
 160   83   84 1
 161   83  211 1
 162   83  212 1
 163   84   85 1
 164   84  213 1
 165   85   86 2
 166   85   87 1
 167   86  214 1
 168   87  215 1
 169   87  216 1
 170   88   89 2
 171   88   91 1
 172   88   99 am
 173   90   91 1
 174   90  217 1
 175   91   92 1
 176   91  218 1
 177   92   93 1
 178   92  219 1
 179   92  220 1
 180   93   94 1
 181   93  221 1
 182   93  222 1
 183   94   95 2
 184   94   96 am
 185   96  223 1
 186   96  224 1
 187   97   98 2
 188   97  100 1
 189   97  108 am
 190   99  100 1
 191   99  225 1
 192  100  101 1
 193  100  226 1
 194  101  102 1
 195  101  227 1
 196  101  228 1
 197  102  103 1
 198  102  229 1
 199  102  230 1
 200  103  104 2
 201  103  105 am
 202  105  231 1
 203  105  232 1
 204  106  107 2
 205  106  109 1
 206  106  118 1
 207  108  109 1
 208  108  233 1
 209  109  110 1
 210  109  234 1
 211  110  111 1
 212  110  235 1
 213  110  236 1
 214  111  112 ar
 215  111  117 ar
 216  112  113 ar
 217  112  237 1
 218  113  114 ar
 219  113  238 1
 220  114  115 1
 221  114  116 ar
 222  115  239 1
 223  116  117 ar
 224  116  240 1
 225  117  241 1
 226  118  242 1
 227  119  120 2
 228  119  135 1
 229  121  122 1
 230  121  243 1
 231  121  244 1
 232  121  245 1
 233  122  123 1
 234  122  246 1
 235  122  247 1
 236  123  124 1
 237  123  248 1
 238  123  249 1
 239  124  125 1
 240  124  250 1
 241  124  251 1
 242  125  126 1
 243  125  252 1
 244  125  253 1
 245  126  127 1
 246  126  254 1
 247  126  255 1
 248  127  128 1
 249  127  256 1
 250  127  257 1
 251  128  129 1
 252  128  258 1
 253  128  259 1
 254  129  130 1
 255  129  260 1
 256  129  261 1
 257  130  131 1
 258  130  262 1
 259  130  263 1
 260  131  132 1
 261  131  264 1
 262  131  265 1
 263  132  133 1
 264  132  266 1
 265  132  267 1
 266  133  134 1
 267  133  268 1
 268  133  269 1
 269  134  135 1
 270  134  270 1
 271  134  271 1
 272  135  272 1
 273  135  273 1

#	End of record

