#	Name: ASD03320109
#	Creating user name:	WinNT
#	Creation time:	15. 06. 2019 20:36

#	Modifying user name:	WinNT
#	Modification time:	15. 06. 2019 20:36

#	Program:	/corina/corina34_cracker 3.40 0067  02.08.2006

@<TRIPOS>MOLECULE
ASD03320109
  42   44    0    0    0
SMALL
NO_CHARGES


@<TRIPOS>ATOM
   1 C1            -0.0181     1.4706     0.0147 C.2     
   2 C2             0.0015    -0.0045     0.0116 C.ar    
   3 C3             1.2205    -0.7002     0.0010 C.ar    
   4 C4             1.1912    -2.0690    -0.0015 C.ar    
   5 C5            -0.0388    -2.7267     0.0064 C.ar    
   6 N6            -1.1757    -2.0449     0.0159 N.ar    
   7 C7            -1.1918    -0.7281     0.0250 C.ar    
   8 O8             1.0269     2.0925     0.0080 O.2     
   9 N9            -1.1941     2.1289     0.0193 N.am    
  10 N10           -0.0728    -4.1113     0.0039 N.3     
  11 C11           -1.4618    -4.6058     0.0134 C.3     
  12 C12           -1.6308    -5.5181    -1.2197 C.3     
  13 C13           -0.1739    -5.9423    -1.5429 C.3     
  14 C14            0.6127    -4.6560    -1.1875 C.3     
  15 O15           -2.4297    -6.6586    -0.8988 O.3     
  16 C16           -1.2149     3.5245     0.1327 C.ar    
  17 C17           -2.1835     4.2615    -0.5365 C.ar    
  18 C18           -2.2030     5.6390    -0.4239 C.ar    
  19 C19           -1.2537     6.2851     0.3585 C.ar    
  20 C20           -0.2872     5.5488     1.0255 C.ar    
  21 C21           -0.2708     4.1714     0.9185 C.ar    
  22 O22           -1.2727     7.6407     0.4695 O.3     
  23 C23           -0.2672     8.2386     1.2902 C.3     
  24 F24            0.9977     7.9205     0.7842 F       
  25 F25           -0.4326     9.6277     1.2929 F       
  26 F26           -0.3823     7.7527     2.5971 F       
  27 F27           -3.1444     6.3569    -1.0747 F       
  28 Br28           2.8026    -3.0584    -0.0163 Br      
  29 H29            2.1602    -0.1679    -0.0053 H       
  30 H30           -2.1360    -0.2040     0.0381 H       
  31 H31           -2.0262     1.6360    -0.0560 H       
  32 H32           -1.6465    -5.1754     0.9242 H       
  33 H33           -2.1546    -3.7665    -0.0486 H       
  34 H34           -2.0646    -4.9643    -2.0523 H       
  35 H35            0.1382    -6.7768    -0.9150 H       
  36 H36           -0.0639    -6.1879    -2.5991 H       
  37 H37            0.5664    -3.9432    -2.0108 H       
  38 H38            1.6490    -4.8979    -0.9515 H       
  39 H39           -2.5663    -7.2643    -1.6401 H       
  40 H40           -2.9207     3.7586    -1.1447 H       
  41 H41            0.4505     6.0517     1.6332 H       
  42 H42            0.4797     3.5981     1.4424 H       
@<TRIPOS>BOND
   1    1    2 1
   2    1    8 2
   3    1    9 am
   4    2    3 ar
   5    2    7 ar
   6    3    4 ar
   7    3   29 1
   8    4    5 ar
   9    4   28 1
  10    5    6 ar
  11    5   10 1
  12    6    7 ar
  13    7   30 1
  14    9   16 1
  15    9   31 1
  16   10   11 1
  17   10   14 1
  18   11   12 1
  19   11   32 1
  20   11   33 1
  21   12   13 1
  22   12   15 1
  23   12   34 1
  24   13   14 1
  25   13   35 1
  26   13   36 1
  27   14   37 1
  28   14   38 1
  29   15   39 1
  30   16   17 ar
  31   16   21 ar
  32   17   18 ar
  33   17   40 1
  34   18   19 ar
  35   18   27 1
  36   19   20 ar
  37   19   22 1
  38   20   21 ar
  39   20   41 1
  40   21   42 1
  41   22   23 1
  42   23   24 1
  43   23   25 1
  44   23   26 1

#	End of record

