#	Name: ASD03930099
#	Creating user name:	WinNT
#	Creation time:	15. 06. 2019 20:47

#	Modifying user name:	WinNT
#	Modification time:	15. 06. 2019 20:47

#	Program:	/corina/corina34_cracker 3.40 0067  02.08.2006

@<TRIPOS>MOLECULE
ASD03930099
  44   47    0    0    0
SMALL
NO_CHARGES


@<TRIPOS>ATOM
   1 C1            -0.0173     1.4248     0.0099 C.3     
   2 O2             0.0021    -0.0041     0.0020 O.3     
   3 C3             0.6057    -0.6070    -1.0555 C.ar    
   4 C4             0.6593    -1.9926    -1.1249 C.ar    
   5 C5             1.2712    -2.6076    -2.1967 C.ar    
   6 C6             1.8359    -1.8362    -3.2118 C.ar    
   7 C7             1.7799    -0.4449    -3.1394 C.ar    
   8 C8             1.1624     0.1639    -2.0672 C.ar    
   9 C9             2.4949    -2.4941    -4.3654 C.ar    
  10 C10            3.0593    -1.7205    -5.3800 C.ar    
  11 C11            3.6711    -2.3306    -6.4519 C.ar    
  12 C12            3.7270    -3.7244    -6.5232 C.ar    
  13 C13            3.1621    -4.4981    -5.5067 C.ar    
  14 C14            2.5553    -3.8862    -4.4330 C.ar    
  15 C15            4.3831    -4.3802    -7.6736 C.2     
  16 C16            4.4974    -5.7207    -7.8496 C.2     
  17 C17            5.2095    -5.9264    -9.1095 C.ar    
  18 C18            5.4840    -4.6447    -9.6225 C.ar    
  19 N19            4.9665    -3.7252    -8.7336 N.pl3   
  20 C20            6.1633    -4.5215   -10.8299 C.ar    
  21 C21            6.5617    -5.6480   -11.5146 C.ar    
  22 C22            6.2916    -6.9179   -11.0104 C.ar    
  23 C23            5.6198    -7.0629    -9.8137 C.ar    
  24 O24            6.6919    -8.0195   -11.7000 O.3     
  25 C25            7.3830    -7.7986   -12.9311 C.3     
  26 H26            1.0053     1.8021     0.0021 H       
  27 H27           -0.5445     1.7859    -0.8732 H       
  28 H28           -0.5275     1.7763     0.9067 H       
  29 H29            0.2217    -2.5895    -0.3383 H       
  30 H30            1.3132    -3.6854    -2.2498 H       
  31 H31            2.2164     0.1553    -3.9240 H       
  32 H32            1.1184     1.2415    -2.0107 H       
  33 H33            3.0160    -0.6428    -5.3247 H       
  34 H34            4.1074    -1.7316    -7.2376 H       
  35 H35            3.2048    -5.5758    -5.5610 H       
  36 H36            2.1184    -4.4843    -3.6469 H       
  37 H37            4.1321    -6.4896    -7.1850 H       
  38 H38            5.0121    -2.7619    -8.8375 H       
  39 H39            6.3780    -3.5419   -11.2308 H       
  40 H40            7.0885    -5.5457   -12.4519 H       
  41 H41            5.4108    -8.0482    -9.4239 H       
  42 H42            6.7401    -7.2432   -13.6140 H       
  43 H43            8.2909    -7.2264   -12.7405 H       
  44 H44            7.6451    -8.7577   -13.3778 H       
@<TRIPOS>BOND
   1    1    2 1
   2    1   26 1
   3    1   27 1
   4    1   28 1
   5    2    3 1
   6    3    4 ar
   7    3    8 ar
   8    4    5 ar
   9    4   29 1
  10    5    6 ar
  11    5   30 1
  12    6    7 ar
  13    6    9 1
  14    7    8 ar
  15    7   31 1
  16    8   32 1
  17    9   10 ar
  18    9   14 ar
  19   10   11 ar
  20   10   33 1
  21   11   12 ar
  22   11   34 1
  23   12   13 ar
  24   12   15 1
  25   13   14 ar
  26   13   35 1
  27   14   36 1
  28   15   16 2
  29   15   19 1
  30   16   17 1
  31   16   37 1
  32   17   18 ar
  33   17   23 ar
  34   18   19 1
  35   18   20 ar
  36   19   38 1
  37   20   21 ar
  38   20   39 1
  39   21   22 ar
  40   21   40 1
  41   22   23 ar
  42   22   24 1
  43   23   41 1
  44   24   25 1
  45   25   42 1
  46   25   43 1
  47   25   44 1

#	End of record

