#	Name: ASD01881523
#	Creating user name:	WinNT
#	Creation time:	15. 06. 2019 19:42

#	Modifying user name:	WinNT
#	Modification time:	15. 06. 2019 19:42

#	Program:	/corina/corina34_cracker 3.40 0067  02.08.2006

@<TRIPOS>MOLECULE
ASD01881523
  37   39    0    0    0
SMALL
NO_CHARGES


@<TRIPOS>ATOM
   1 N1            -0.0154     1.2839     0.0091 N.pl3   
   2 N2             0.0021    -0.0041     0.0020 N.2     
   3 N3             1.2033    -0.4649    -0.0119 N.2     
   4 C4             2.0741     0.5645    -0.0147 C.ar    
   5 C5             1.2843     1.7298    -0.0009 C.ar    
   6 C6             3.4670     0.6759    -0.0271 C.ar    
   7 C7             4.0484     1.9285    -0.0255 C.ar    
   8 C8             3.2560     3.0739    -0.0118 C.ar    
   9 C9             1.8924     2.9784    -0.0004 C.ar    
  10 O10            5.4033     2.0444    -0.0370 O.3     
  11 C11            5.9411     3.3683    -0.0346 C.3     
  12 C12           -1.2133     2.1272     0.0196 C.3     
  13 C13           -1.6228     2.4135     1.4657 C.3     
  14 C14           -2.7972     3.3940     1.4787 C.3     
  15 C15           -3.2067     3.6802     2.9248 C.3     
  16 C16           -3.6248     2.3748     3.6044 C.3     
  17 C17           -2.4504     1.3942     3.5915 C.3     
  18 C18           -2.0408     1.1080     2.1454 C.3     
  19 Br19           4.5472    -0.8761    -0.0451 Br      
  20 H20            3.7236     4.0474    -0.0103 H       
  21 H21            1.2882     3.8735     0.0099 H       
  22 H22            7.0299     3.3182    -0.0447 H       
  23 H23            5.5939     3.9031    -0.9187 H       
  24 H24            5.6098     3.8935     0.8612 H       
  25 H25           -1.0007     3.0667    -0.4906 H       
  26 H26           -2.0254     1.6113    -0.4926 H       
  27 H27           -0.7800     2.8489     2.0026 H       
  28 H28           -2.4994     4.3241     0.9945 H       
  29 H29           -3.6400     2.9586     0.9418 H       
  30 H30           -2.3640     4.1157     3.4617 H       
  31 H31           -4.0434     4.3788     2.9340 H       
  32 H32           -3.9165     2.5787     4.6346 H       
  33 H33           -4.4676     1.9393     3.0675 H       
  34 H34           -1.6076     1.8297     4.1283 H       
  35 H35           -2.7482     0.4642     4.0756 H       
  36 H36           -2.8836     0.6726     1.6085 H       
  37 H37           -1.2042     0.4095     2.1361 H       
@<TRIPOS>BOND
   1    1    2 1
   2    1    5 1
   3    1   12 1
   4    2    3 2
   5    3    4 1
   6    4    5 ar
   7    4    6 ar
   8    5    9 ar
   9    6    7 ar
  10    6   19 1
  11    7    8 ar
  12    7   10 1
  13    8    9 ar
  14    8   20 1
  15    9   21 1
  16   10   11 1
  17   11   22 1
  18   11   23 1
  19   11   24 1
  20   12   13 1
  21   12   25 1
  22   12   26 1
  23   13   14 1
  24   13   18 1
  25   13   27 1
  26   14   15 1
  27   14   28 1
  28   14   29 1
  29   15   16 1
  30   15   30 1
  31   15   31 1
  32   16   17 1
  33   16   32 1
  34   16   33 1
  35   17   18 1
  36   17   34 1
  37   17   35 1
  38   18   36 1
  39   18   37 1

#	End of record

