#	Name: ASD08150385
#	Creating user name:	WinNT
#	Creation time:	15. 06. 2019 21:15

#	Modifying user name:	WinNT
#	Modification time:	15. 06. 2019 21:15

#	Program:	/corina/corina34_cracker 3.40 0067  02.08.2006

@<TRIPOS>MOLECULE
ASD08150385
  53   54    0    0    0
SMALL
NO_CHARGES


@<TRIPOS>ATOM
   1 C1            -0.1747     1.4705    -0.5684 C.2     
   2 C2            -0.1527    -0.0034    -0.5719 C.ar    
   3 C3             0.4721    -0.7030     0.4727 C.ar    
   4 C4             0.4856    -2.0920     0.4579 C.ar    
   5 C5            -0.1126    -2.7782    -0.5793 C.ar    
   6 C6            -0.7296    -2.0906    -1.6120 C.ar    
   7 C7            -0.7583    -0.7129    -1.6119 C.ar    
   8 O8             0.7243     2.0934    -1.1001 O.2     
   9 N9            -1.1941     2.1278     0.0193 N.am    
  10 C10           -1.1618     3.5223     0.1193 C.ar    
  11 C11           -2.3375     4.2536     0.0197 C.ar    
  12 C12           -2.3015     5.6353     0.1198 C.ar    
  13 C13           -1.0909     6.2846     0.3192 C.ar    
  14 C14            0.0784     5.5551     0.4176 C.ar    
  15 C15            0.0460     4.1771     0.3241 C.ar    
  16 O16           -3.4506     6.3543     0.0223 O.3     
  17 Si17          -4.2003     6.6033     1.4492 Si      
  18 C18           -4.6415     4.9627     2.2136 C.3     
  19 C19           -3.0638     7.5360     2.5934 C.3     
  20 C20           -5.7521     7.5959     1.1705 C.3     
  21 C21           -6.6855     6.8299     0.2308 C.3     
  22 C22           -6.4554     7.8295     2.5090 C.3     
  23 C23           -5.3898     8.9433     0.5427 C.3     
  24 C24           -1.4368     0.0276    -2.7354 C.3     
  25 N25            1.0738    -0.0101     1.5152 N.pl3   
  26 H26            0.9650    -2.6353     1.2587 H       
  27 H27           -0.0994    -3.8581    -0.5863 H       
  28 H28           -1.1945    -2.6374    -2.4190 H       
  29 H29           -1.9502     1.6336     0.3729 H       
  30 H30           -3.2784     3.7468    -0.1358 H       
  31 H31           -1.0629     7.3614     0.3972 H       
  32 H32            1.0190     6.0629     0.5724 H       
  33 H33            0.9608     3.6089     0.4058 H       
  34 H34           -3.7336     4.3819     2.3767 H       
  35 H35           -5.1426     5.1291     3.1672 H       
  36 H36           -5.3065     4.4170     1.5442 H       
  37 H37           -2.8057     8.4959     2.1462 H       
  38 H38           -3.5649     7.7024     3.5470 H       
  39 H39           -2.1559     6.9553     2.7565 H       
  40 H40           -6.9436     5.8700     0.6780 H       
  41 H41           -7.5934     7.4106     0.0677 H       
  42 H42           -6.1844     6.6635    -0.7228 H       
  43 H43           -5.7904     8.3752     3.1784 H       
  44 H44           -7.3633     8.4102     2.3459 H       
  45 H45           -6.7135     6.8696     2.9562 H       
  46 H46           -4.8887     8.7768    -0.4109 H       
  47 H47           -6.2977     9.5240     0.3796 H       
  48 H48           -4.7248     9.4889     1.2121 H       
  49 H49           -0.7167     0.2203    -3.5306 H       
  50 H50           -2.2563    -0.5760    -3.1257 H       
  51 H51           -1.8283     0.9741    -2.3625 H       
  52 H52            1.0631     0.9598     1.5228 H       
  53 H53            1.5047    -0.4960     2.2356 H       
@<TRIPOS>BOND
   1    1    2 1
   2    1    8 2
   3    1    9 am
   4    2    3 ar
   5    2    7 ar
   6    3    4 ar
   7    3   25 1
   8    4    5 ar
   9    4   26 1
  10    5    6 ar
  11    5   27 1
  12    6    7 ar
  13    6   28 1
  14    7   24 1
  15    9   10 1
  16    9   29 1
  17   10   11 ar
  18   10   15 ar
  19   11   12 ar
  20   11   30 1
  21   12   13 ar
  22   12   16 1
  23   13   14 ar
  24   13   31 1
  25   14   15 ar
  26   14   32 1
  27   15   33 1
  28   16   17 1
  29   17   18 1
  30   17   19 1
  31   17   20 1
  32   18   34 1
  33   18   35 1
  34   18   36 1
  35   19   37 1
  36   19   38 1
  37   19   39 1
  38   20   21 1
  39   20   23 1
  40   20   22 1
  41   21   40 1
  42   21   41 1
  43   21   42 1
  44   22   43 1
  45   22   44 1
  46   22   45 1
  47   23   46 1
  48   23   47 1
  49   23   48 1
  50   24   49 1
  51   24   50 1
  52   24   51 1
  53   25   52 1
  54   25   53 1

#	End of record

