#	Name: ASD03240789
#	Creating user name:	WinNT
#	Creation time:	15. 06. 2019 20:35

#	Modifying user name:	WinNT
#	Modification time:	15. 06. 2019 20:35

#	Program:	/corina/corina34_cracker 3.40 0067  02.08.2006

@<TRIPOS>MOLECULE
ASD03240789
  76   82    0    0    0
SMALL
NO_CHARGES


@<TRIPOS>ATOM
   1 N1            -0.0171     1.3440    -0.0042 N.am    
   2 C2             0.0018    -0.0036    -0.0036 C.2     
   3 O3             1.0631    -0.5968    -0.0148 O.2     
   4 N4            -1.1558    -0.6938     0.0094 N.am    
   5 C5            -1.1402    -2.0885    -0.1039 C.ar    
   6 C6            -2.0781    -2.8525     0.5781 C.ar    
   7 C7            -2.0603    -4.2288     0.4638 C.ar    
   8 C8            -1.1099    -4.8461    -0.3286 C.ar    
   9 C9            -0.1747    -4.0881    -1.0090 C.ar    
  10 C10           -0.1904    -2.7111    -0.9031 C.ar    
  11 N11            2.7591     4.4073     0.8089 N.3     
  12 C12            2.3078     4.2800    -0.5827 C.3     
  13 C13            1.0043     3.4793    -0.6264 C.3     
  14 C14            1.2412     2.0942    -0.0183 C.3     
  15 C15            1.7566     2.2559     1.4145 C.3     
  16 C16            3.0383     3.0920     1.3990 C.3     
  17 C17            3.9321     5.2865     0.9035 C.3     
  18 C18            4.2165     5.5904     2.3519 C.ar    
  19 C19            5.0620     4.7682     3.0752 C.ar    
  20 C20            5.3267     5.0414     4.4015 C.ar    
  21 C21            4.7398     6.1493     5.0129 C.ar    
  22 C22            3.8882     6.9746     4.2783 C.ar    
  23 C23            3.6356     6.6938     2.9512 C.ar    
  24 C24            5.8753     4.8731    10.7734 C.2     
  25 N25            5.9671     6.1260    11.2532 N.2     
  26 C26            5.8141     7.1753    10.4873 C.2     
  27 C27            5.5357     6.9822     9.0657 C.ar    
  28 C28            5.4401     5.6648     8.5683 C.ar    
  29 N29            5.6161     4.6188     9.4538 N.pl3   
  30 C30            5.3627     8.0641     8.1964 C.ar    
  31 C31            5.0999     7.7891     6.8582 C.ar    
  32 C32            5.0193     6.4480     6.4361 C.ar    
  33 N33            5.1893     5.4487     7.2891 N.ar    
  34 N34            5.5849     3.2296     9.2825 N.2     
  35 C35            5.8134     2.6559    10.4394 C.2     
  36 C36            5.9957     3.6410    11.4018 C.2     
  37 C37            4.9068     8.8940     5.8887 C.ar    
  38 C38            4.0198     9.9302     6.1764 C.ar    
  39 C39            3.8444    10.9563     5.2704 C.ar    
  40 C40            4.5464    10.9576     4.0784 C.ar    
  41 C41            5.4275     9.9317     3.7873 C.ar    
  42 C42            5.6156     8.9036     4.6884 C.ar    
  43 C43            5.8645     1.1700    10.6858 C.3     
  44 H44           -0.8639     1.8172     0.0007 H       
  45 H45           -1.9998    -0.2237     0.0972 H       
  46 H46           -2.8204    -2.3711     1.1974 H       
  47 H47           -2.7892    -4.8236     0.9942 H       
  48 H48           -1.0979    -5.9225    -0.4160 H       
  49 H49            0.5663    -4.5732    -1.6271 H       
  50 H50            0.5375    -2.1194    -1.4382 H       
  51 H51            2.1390     5.2718    -1.0020 H       
  52 H52            3.0705     3.7642    -1.1661 H       
  53 H53            0.2372     4.0015    -0.0547 H       
  54 H54            0.6779     3.3716    -1.6608 H       
  55 H55            1.9792     1.5564    -0.6134 H       
  56 H56            1.0013     2.7588     2.0184 H       
  57 H57            1.9677     1.2740     1.8382 H       
  58 H58            3.7976     2.5818     0.8063 H       
  59 H59            3.4001     3.2210     2.4191 H       
  60 H60            4.7952     4.7898     0.4602 H       
  61 H61            3.7337     6.2158     0.3695 H       
  62 H62            5.5155     3.9105     2.6008 H       
  63 H63            5.9866     4.3986     4.9652 H       
  64 H64            3.4306     7.8336     4.7463 H       
  65 H65            2.9796     7.3342     2.3803 H       
  66 H66            5.8928     8.1704    10.8996 H       
  67 H67            5.4305     9.0813     8.5530 H       
  68 H68            6.1968     3.4778    12.4503 H       
  69 H69            3.4708     9.9299     7.1064 H       
  70 H70            3.1576    11.7597     5.4922 H       
  71 H71            4.4057    11.7625     3.3721 H       
  72 H72            5.9726     9.9377     2.8549 H       
  73 H73            6.3072     8.1055     4.4621 H       
  74 H74            6.8852     0.8136    10.5473 H       
  75 H75            5.5414     0.9595    11.7053 H       
  76 H76            5.2039     0.6623     9.9831 H       
@<TRIPOS>BOND
   1    1    2 am
   2    1   14 1
   3    1   44 1
   4    2    3 2
   5    2    4 am
   6    4    5 1
   7    4   45 1
   8    5    6 ar
   9    5   10 ar
  10    6    7 ar
  11    6   46 1
  12    7    8 ar
  13    7   47 1
  14    8    9 ar
  15    8   48 1
  16    9   10 ar
  17    9   49 1
  18   10   50 1
  19   11   12 1
  20   11   16 1
  21   11   17 1
  22   12   13 1
  23   12   51 1
  24   12   52 1
  25   13   14 1
  26   13   53 1
  27   13   54 1
  28   14   15 1
  29   14   55 1
  30   15   16 1
  31   15   56 1
  32   15   57 1
  33   16   58 1
  34   16   59 1
  35   17   18 1
  36   17   60 1
  37   17   61 1
  38   18   19 ar
  39   18   23 ar
  40   19   20 ar
  41   19   62 1
  42   20   21 ar
  43   20   63 1
  44   21   22 ar
  45   21   32 1
  46   22   23 ar
  47   22   64 1
  48   23   65 1
  49   24   25 1
  50   24   29 1
  51   24   36 2
  52   25   26 2
  53   26   27 1
  54   26   66 1
  55   27   28 ar
  56   27   30 ar
  57   28   29 1
  58   28   33 ar
  59   29   34 1
  60   30   31 ar
  61   30   67 1
  62   31   32 ar
  63   31   37 1
  64   32   33 ar
  65   34   35 2
  66   35   36 1
  67   35   43 1
  68   36   68 1
  69   37   38 ar
  70   37   42 ar
  71   38   39 ar
  72   38   69 1
  73   39   40 ar
  74   39   70 1
  75   40   41 ar
  76   40   71 1
  77   41   42 ar
  78   41   72 1
  79   42   73 1
  80   43   74 1
  81   43   75 1
  82   43   76 1

#	End of record

