#	Name: ASD05490155
#	Creating user name:	WinNT
#	Creation time:	15. 06. 2019 21:01

#	Modifying user name:	WinNT
#	Modification time:	15. 06. 2019 21:01

#	Program:	/corina/corina34_cracker 3.40 0067  02.08.2006

@<TRIPOS>MOLECULE
ASD05490155
  76   79    0    0    0
SMALL
NO_CHARGES


@<TRIPOS>ATOM
   1 N1             0.0548     1.2499     0.1916 N.ar    
   2 C2             1.1595     1.9791     0.1608 C.ar    
   3 C3             2.4046     1.3773     0.0798 C.ar    
   4 C4             2.4855    -0.0127     0.0307 C.ar    
   5 C5             1.3031    -0.7471     0.0652 C.ar    
   6 C6             0.0924    -0.0747     0.1468 C.ar    
   7 O7             1.0710     3.3322     0.2086 O.3     
   8 N8            -1.0945    -0.7977     0.1819 N.pl3   
   9 N9             3.7227    -0.6540    -0.0516 N.am    
  10 C10            4.2479    -1.0679    -1.3551 C.3     
  11 C11            5.0084     0.0753    -1.9763 C.ar    
  12 C12            6.3730     0.1904    -1.7869 C.ar    
  13 C13            4.3464     1.0193    -2.7488 C.ar    
  14 N14            7.0491     1.1851    -2.3251 N.ar    
  15 C15            6.4535     2.1105    -3.0656 C.ar    
  16 C16            5.0814     2.0534    -3.3018 C.ar    
  17 C17           -0.2403     3.8940     0.2911 C.3     
  18 C18           -0.1395     5.4201     0.3351 C.3     
  19 C19           -1.5435     6.0216     0.4235 C.3     
  20 C20           -1.4427     7.5476     0.4675 C.3     
  21 C21            7.2554     3.2127    -3.6510 C.ar    
  22 C22            8.6292     3.2753    -3.4238 C.ar    
  23 C23            6.6391     4.1859    -4.4349 C.ar    
  24 C24            7.3904     5.2089    -4.9775 C.ar    
  25 C25            8.7523     5.2690    -4.7444 C.ar    
  26 C26            9.3703     4.3025    -3.9713 C.ar    
  27 C27           10.4325     6.4736    -2.5723 C.3     
  28 C28           11.3374     7.4848    -1.8443 C.3     
  29 C29           12.5723     6.6708    -1.3944 C.3     
  30 C30           12.5565     5.4569    -2.3571 C.3     
  31 N31           11.1088     5.1599    -2.5060 N.3     
  32 C32           10.8547     4.3750    -3.7214 C.3     
  33 C33            4.4341    -0.8923     1.0681 C.2     
  34 O34            5.5109    -1.4504     0.9964 O.2     
  35 O35            3.9514    -0.5118     2.2660 O.3     
  36 C36            4.0638    -0.2985     4.6893 C.3     
  37 C37            4.7713    -0.8008     3.4290 C.3     
  38 N38            1.3373    -2.2262     0.0151 N.pl3   
  39 O39            1.4850    -2.8670     1.0403 O.2     
  40 O40            1.2179    -2.8023    -1.0514 O.2     
  41 H41            3.3016     1.9782     0.0547 H       
  42 H42           -1.0732    -1.7669     0.1494 H       
  43 H43           -1.9440    -0.3329     0.2389 H       
  44 H44            4.9154    -1.9196    -1.2240 H       
  45 H45            3.4212    -1.3510    -2.0066 H       
  46 H46            6.8917    -0.5446    -1.1894 H       
  47 H47            3.2816     0.9484    -2.9149 H       
  48 H48            4.5978     2.8074    -3.9052 H       
  49 H49           -0.8200     3.5933    -0.5816 H       
  50 H50           -0.7327     3.5362     1.1953 H       
  51 H51            0.4402     5.7208     1.2078 H       
  52 H52            0.3529     5.7779    -0.5691 H       
  53 H53           -2.1232     5.7208    -0.4492 H       
  54 H54           -2.0359     5.6637     1.3277 H       
  55 H55           -2.4429     7.9762     0.5304 H       
  56 H56           -0.8630     7.8484     1.3402 H       
  57 H57           -0.9503     7.9055    -0.4367 H       
  58 H58            9.1126     2.5214    -2.8201 H       
  59 H59            5.5757     4.1398    -4.6178 H       
  60 H60            6.9138     5.9637    -5.5855 H       
  61 H61            9.3362     6.0712    -5.1710 H       
  62 H62            9.4636     6.4179    -2.0761 H       
  63 H63           10.3033     6.7726    -3.6125 H       
  64 H64           11.6372     8.2822    -2.5243 H       
  65 H65           10.8214     7.8991    -0.9782 H       
  66 H66           13.4852     7.2525    -1.5222 H       
  67 H67           12.4632     6.3443    -0.3602 H       
  68 H68           12.9956     5.7227    -3.3187 H       
  69 H69           13.0798     4.6088    -1.9154 H       
  70 H70           11.2511     3.3678    -3.5929 H       
  71 H71           11.3433     4.8522    -4.5709 H       
  72 H72            4.6793    -0.5154     5.5623 H       
  73 H73            3.9070     0.7774     4.6135 H       
  74 H74            3.1012    -0.7999     4.7898 H       
  75 H75            4.9281    -1.8767     3.5047 H       
  76 H76            5.7339    -0.2994     3.3285 H       
@<TRIPOS>BOND
   1    1    2 ar
   2    1    6 ar
   3    2    3 ar
   4    2    7 1
   5    3    4 ar
   6    3   41 1
   7    4    5 ar
   8    4    9 1
   9    5    6 ar
  10    5   38 1
  11    6    8 1
  12    7   17 1
  13    8   42 1
  14    8   43 1
  15    9   10 1
  16    9   33 am
  17   10   11 1
  18   10   44 1
  19   10   45 1
  20   11   12 ar
  21   11   13 ar
  22   12   14 ar
  23   12   46 1
  24   13   16 ar
  25   13   47 1
  26   14   15 ar
  27   15   16 ar
  28   15   21 1
  29   16   48 1
  30   17   18 1
  31   17   49 1
  32   17   50 1
  33   18   19 1
  34   18   51 1
  35   18   52 1
  36   19   20 1
  37   19   53 1
  38   19   54 1
  39   20   55 1
  40   20   56 1
  41   20   57 1
  42   21   22 ar
  43   21   23 ar
  44   22   26 ar
  45   22   58 1
  46   23   24 ar
  47   23   59 1
  48   24   25 ar
  49   24   60 1
  50   25   26 ar
  51   25   61 1
  52   26   32 1
  53   27   28 1
  54   27   31 1
  55   27   62 1
  56   27   63 1
  57   28   29 1
  58   28   64 1
  59   28   65 1
  60   29   30 1
  61   29   66 1
  62   29   67 1
  63   30   31 1
  64   30   68 1
  65   30   69 1
  66   31   32 1
  67   32   70 1
  68   32   71 1
  69   33   34 2
  70   33   35 1
  71   35   37 1
  72   36   37 1
  73   36   72 1
  74   36   73 1
  75   36   74 1
  76   37   75 1
  77   37   76 1
  78   38   39 2
  79   38   40 2

#	End of record

