#	Name: ASD05720024
#	Creating user name:	WinNT
#	Creation time:	15. 06. 2019 21:01

#	Modifying user name:	WinNT
#	Modification time:	15. 06. 2019 21:01

#	Program:	/corina/corina34_cracker 3.40 0067  02.08.2006

@<TRIPOS>MOLECULE
ASD05720024
  57   60    0    0    0
SMALL
NO_CHARGES


@<TRIPOS>ATOM
   1 N1             2.1598     2.0641     0.2709 N.am    
   2 C2             1.6155     0.7231     0.0093 C.3     
   3 C3             2.6761     0.1647     0.9681 C.3     
   4 C4             3.4523     1.4238     0.5580 C.3     
   5 C5             1.6848     3.3252     0.2506 C.2     
   6 O6             0.5246     3.5327    -0.0447 O.2     
   7 O7             2.4959     4.3551     0.5576 O.3     
   8 C8             1.9155     1.2172     3.0961 C.2     
   9 N9             1.5781     0.9339     4.3610 N.am    
  10 C10            1.6965    -0.5154     4.5797 C.3     
  11 C11            2.1672    -1.0573     3.2160 C.3     
  12 N12            2.2640     0.1443     2.3738 N.am    
  13 O13            1.9018     2.3453     2.6431 O.2     
  14 C14            0.3399    -1.1143     4.9563 C.3     
  15 C15           -0.0988    -0.5682     6.3165 C.3     
  16 C16           -0.6966    -0.7359     3.8964 C.3     
  17 C17            0.6183     2.3678     7.4987 C.2     
  18 N18            1.0022     1.4852     6.5656 N.2     
  19 C19            1.1795     1.8619     5.3148 C.2     
  20 C20            0.9658     3.2058     4.9434 C.2     
  21 C21            0.5786     4.0998     5.8805 C.2     
  22 N22            0.4021     3.6815     7.1703 N.pl3   
  23 N23            0.0150     4.3523     8.3362 N.2     
  24 C24           -0.0062     3.4953     9.3319 C.2     
  25 C25            0.3582     2.2432     8.8573 C.2     
  26 Br26           0.4810     0.6552     9.8765 Br      
  27 C27            1.9165     5.6858     0.5151 C.3     
  28 C28            0.7544     5.7680     1.5069 C.3     
  29 C29            2.9816     6.7180     0.8908 C.3     
  30 C30            1.4031     5.9736    -0.8971 C.3     
  31 H31            0.5944     0.5917     0.3674 H       
  32 H32            1.7466     0.3950    -1.0218 H       
  33 H33            3.1312    -0.7686     0.6366 H       
  34 H34            4.0727     1.2823    -0.3270 H       
  35 H35            3.9931     1.8882     1.3826 H       
  36 H36            2.4366    -0.7267     5.3515 H       
  37 H37            3.1411    -1.5376     3.3107 H       
  38 H38            1.4345    -1.7530     2.8072 H       
  39 H39            0.4244    -2.1997     5.0106 H       
  40 H40           -0.3911     0.4766     6.2115 H       
  41 H41           -0.9457    -1.1473     6.6845 H       
  42 H42            0.7281    -0.6449     7.0226 H       
  43 H43           -1.6631    -1.1626     4.1647 H       
  44 H44           -0.7811     0.3495     3.8421 H       
  45 H45           -0.3841    -1.1249     2.9274 H       
  46 H46            1.1105     3.5178     3.9197 H       
  47 H47            0.4108     5.1328     5.6136 H       
  48 H48           -0.2678     3.7272    10.3537 H       
  49 H49            1.1202     5.5629     2.5130 H       
  50 H50            0.3195     6.7669     1.4750 H       
  51 H51           -0.0044     5.0326     1.2392 H       
  52 H52            3.8095     6.6594     0.1842 H       
  53 H53            2.5467     7.7169     0.8589 H       
  54 H54            3.3474     6.5129     1.8969 H       
  55 H55            0.6443     5.2383    -1.1648 H       
  56 H56            0.9682     6.9726    -0.9290 H       
  57 H57            2.2310     5.9151    -1.6037 H       
@<TRIPOS>BOND
   1    1    2 1
   2    1    4 1
   3    1    5 am
   4    2    3 1
   5    2   31 1
   6    2   32 1
   7    3    4 1
   8    3   12 1
   9    3   33 1
  10    4   34 1
  11    4   35 1
  12    5    6 2
  13    5    7 1
  14    7   27 1
  15    8    9 am
  16    8   12 am
  17    8   13 2
  18    9   10 1
  19    9   19 1
  20   10   11 1
  21   10   14 1
  22   10   36 1
  23   11   12 1
  24   11   37 1
  25   11   38 1
  26   14   15 1
  27   14   16 1
  28   14   39 1
  29   15   40 1
  30   15   41 1
  31   15   42 1
  32   16   43 1
  33   16   44 1
  34   16   45 1
  35   17   18 1
  36   17   22 1
  37   17   25 2
  38   18   19 2
  39   19   20 1
  40   20   21 2
  41   20   46 1
  42   21   22 1
  43   21   47 1
  44   22   23 1
  45   23   24 2
  46   24   25 1
  47   24   48 1
  48   25   26 1
  49   27   28 1
  50   27   30 1
  51   27   29 1
  52   28   49 1
  53   28   50 1
  54   28   51 1
  55   29   52 1
  56   29   53 1
  57   29   54 1
  58   30   55 1
  59   30   56 1
  60   30   57 1

#	End of record

