#	Name: ASD06128001
#	Creating user name:	WinNT
#	Creation time:	15. 06. 2019 21:05

#	Modifying user name:	WinNT
#	Modification time:	15. 06. 2019 21:05

#	Program:	/corina/corina34_cracker 3.40 0067  02.08.2006

@<TRIPOS>MOLECULE
ASD06128001
  73   77    0    0    0
SMALL
NO_CHARGES


@<TRIPOS>ATOM
   1 P1            -0.0180     1.4758     0.0102 P.3     
   2 O2             0.0021    -0.0041     0.0020 O.2     
   3 O3             1.4924     2.0330    -0.0013 O.3     
   4 O4            -0.7967     2.0091    -1.2942 O.3     
   5 O5            -0.7716     1.9950     1.3348 O.3     
   6 C6            -0.4354     1.6326    -2.6245 C.3     
   7 O7            -1.1742     3.7449    -3.6030 O.3     
   8 C8            -1.3752     2.3148    -3.6206 C.3     
   9 C9            -1.0318     1.8857    -5.0644 C.3     
  10 C10           -1.2518     3.1671    -5.8992 C.3     
  11 C11           -1.7020     4.2188    -4.8611 C.3     
  12 O12           -2.2734     2.9589    -6.8764 O.3     
  13 O13           -1.9109     0.8470    -5.5005 O.3     
  14 N14            0.2293     7.2313    -5.2200 N.2     
  15 C15            0.0379     6.0417    -4.7282 C.2     
  16 N16           -1.1395     5.5314    -5.1881 N.pl3   
  17 C17           -1.7010     6.4724    -6.0137 C.ar    
  18 N18           -2.8161     6.5442    -6.7330 N.ar    
  19 C19           -3.0861     7.6168    -7.4470 C.ar    
  20 N20           -2.2800     8.6618    -7.4888 N.ar    
  21 C21           -1.1421     8.6813    -6.8023 C.ar    
  22 C22           -0.8102     7.5592    -6.0245 C.ar    
  23 N23           -0.3034     9.7810    -6.8528 N.pl3   
  24 P24           -0.7058     1.5880     2.8911 P.3     
  25 O25           -0.5959     0.1170     3.0121 O.2     
  26 O26            0.5781     2.2799     3.5729 O.3     
  27 O27           -2.0434     2.0892     3.6339 O.3     
  28 C28           -2.3338     1.7889     5.0005 C.3     
  29 O29           -4.7523     1.7811     4.6601 O.3     
  30 C30           -3.6760     2.4140     5.3859 C.3     
  31 C31           -3.9890     2.1408     6.8737 C.3     
  32 C32           -5.5160     1.9060     6.8992 C.3     
  33 C33           -5.9448     2.0651     5.4237 C.3     
  34 O34           -6.1597     2.8858     7.7162 O.3     
  35 O35           -3.6431     3.2728     7.6743 O.3     
  36 C36           -8.2326     1.5545     4.7023 C.2     
  37 C37           -9.2990     0.7348     4.7343 C.2     
  38 C38           -9.1781    -0.6861     5.2068 C.3     
  39 C39           -7.7414    -1.1225     5.2301 C.2     
  40 C40           -6.7535    -0.2569     5.1782 C.2     
  41 N41           -7.0022     1.1063     5.0936 N.pl3   
  42 C42          -10.5596     1.2208     4.3152 C.2     
  43 O43          -10.6715     2.3708     3.9304 O.2     
  44 N44          -11.6368     0.4112     4.3419 N.am    
  45 H45            1.5557     2.9980     0.0033 H       
  46 H46            0.5909     1.9412    -2.8234 H       
  47 H47           -0.5166     0.5508    -2.7307 H       
  48 H48           -2.4131     2.0746    -3.3901 H       
  49 H49            0.0066     1.5610    -5.1296 H       
  50 H50           -0.3220     3.4759    -6.3772 H       
  51 H51           -2.7900     4.2706    -4.8208 H       
  52 H52           -2.0683     2.2653    -7.5183 H       
  53 H53           -1.7400     0.5393    -6.4012 H       
  54 H54            0.7126     5.5335    -4.0552 H       
  55 H55           -4.0010     7.6428    -8.0203 H       
  56 H56           -0.5435    10.5496    -7.3937 H       
  57 H57            0.5244     9.7832    -6.3472 H       
  58 H58            0.5732     3.2460     3.5306 H       
  59 H59           -2.3853     0.7081     5.1320 H       
  60 H60           -1.5476     2.1953     5.6368 H       
  61 H61           -3.6660     3.4864     5.1910 H       
  62 H62           -3.4602     1.2522     7.2184 H       
  63 H63           -5.7420     0.9013     7.2564 H       
  64 H64           -6.2828     3.0840     5.2345 H       
  65 H65           -5.8813     2.8703     8.6421 H       
  66 H66           -3.8190     3.1558     8.6179 H       
  67 H67           -8.3488     2.5725     4.3606 H       
  68 H68           -9.5932    -0.7663     6.2114 H       
  69 H69           -9.7391    -1.3360     4.5352 H       
  70 H70           -7.5136    -2.1764     5.2915 H       
  71 H71           -5.7336    -0.6114     5.2018 H       
  72 H72          -11.5476    -0.5047     4.6484 H       
  73 H73          -12.5012     0.7445     4.0545 H       
@<TRIPOS>BOND
   1    1    2 2
   2    1    3 1
   3    1    4 1
   4    1    5 1
   5    3   45 1
   6    4    6 1
   7    5   24 1
   8    6    8 1
   9    6   46 1
  10    6   47 1
  11    7    8 1
  12    7   11 1
  13    8    9 1
  14    8   48 1
  15    9   10 1
  16    9   13 1
  17    9   49 1
  18   10   11 1
  19   10   12 1
  20   10   50 1
  21   11   16 1
  22   11   51 1
  23   12   52 1
  24   13   53 1
  25   14   15 2
  26   14   22 1
  27   15   16 1
  28   15   54 1
  29   16   17 1
  30   17   18 ar
  31   17   22 ar
  32   18   19 ar
  33   19   20 ar
  34   19   55 1
  35   20   21 ar
  36   21   22 ar
  37   21   23 1
  38   23   56 1
  39   23   57 1
  40   24   25 2
  41   24   26 1
  42   24   27 1
  43   26   58 1
  44   27   28 1
  45   28   30 1
  46   28   59 1
  47   28   60 1
  48   29   30 1
  49   29   33 1
  50   30   31 1
  51   30   61 1
  52   31   32 1
  53   31   35 1
  54   31   62 1
  55   32   33 1
  56   32   34 1
  57   32   63 1
  58   33   41 1
  59   33   64 1
  60   34   65 1
  61   35   66 1
  62   36   37 2
  63   36   41 1
  64   36   67 1
  65   37   38 1
  66   37   42 1
  67   38   39 1
  68   38   68 1
  69   38   69 1
  70   39   40 2
  71   39   70 1
  72   40   41 1
  73   40   71 1
  74   42   43 2
  75   42   44 am
  76   44   72 1
  77   44   73 1

#	End of record

