#	Name: ASD00844882
#	Creating user name:	WinNT
#	Creation time:	15. 06. 2019 18:51

#	Modifying user name:	WinNT
#	Modification time:	15. 06. 2019 18:51

#	Program:	/corina/corina34_cracker 3.40 0067  02.08.2006

@<TRIPOS>MOLECULE
ASD00844882
 102  107    0    0    0
SMALL
NO_CHARGES


@<TRIPOS>ATOM
   1 F1             5.6839    -1.9722    -2.1693 F       
   2 C2             0.6288     1.3405    -0.7069 C.ar    
   3 C3             0.9209    -0.0007    -0.9063 C.ar    
   4 C4             0.8377    -0.8916     0.1542 C.ar    
   5 C5             0.4642    -0.4411     1.4053 C.ar    
   6 C6             0.1730     0.8965     1.6014 C.ar    
   7 C7             0.2557     1.7862     0.5465 C.ar    
   8 C8             1.1539    -2.3495    -0.0590 C.3     
   9 C9             0.8687    -3.1432     1.1979 C.2     
  10 C10            0.3502    -2.9041    -1.2369 C.3     
  11 C11           -1.1161    -2.6357    -1.0153 C.2     
  12 N12           -2.0244    -3.0777    -1.9075 N.am    
  13 O13           -1.4787    -2.0220    -0.0341 O.2     
  14 C14           -3.4432    -2.7214    -1.7702 C.3     
  15 C15           -4.2776    -4.0061    -1.7829 C.3     
  16 C16           -3.9504    -4.8097    -3.0436 C.3     
  17 C17           -2.4695    -5.1957    -3.0346 C.3     
  18 C18           -1.6138    -3.9199    -3.0392 C.3     
  19 N19           -4.7731    -6.0263    -3.0757 N.3     
  20 C20           -4.5728    -6.7646    -4.3305 C.3     
  21 C21           -5.3839    -8.0619    -4.2911 C.3     
  22 N22           -6.8045    -7.7424    -4.0924 N.3     
  23 C23           -7.0049    -7.0041    -2.8377 C.3     
  24 C24           -6.1937    -5.7069    -2.8771 C.3     
  25 C25           -7.6272    -8.9590    -4.1245 C.3     
  26 O26           -0.2073    -3.2642     1.7443 O.2     
  27 N27            2.0305    -3.6888     1.5948 N.am    
  28 C28            2.6360    -2.5419    -0.2882 C.ar    
  29 C29            3.0883    -3.3562     0.7451 C.ar    
  30 C30            3.4974    -2.0798    -1.2587 C.ar    
  31 C31            4.8374    -2.4236    -1.2180 C.ar    
  32 C32            5.3101    -3.2414    -0.1865 C.ar    
  33 C33            4.4326    -3.7061     0.7926 C.ar    
  34 C34            1.9201    -6.3104     2.4251 C.ar    
  35 C35            0.6742    -6.6968     1.9521 C.ar    
  36 C36            2.9510    -7.2285     2.4899 C.ar    
  37 C37            2.7442    -8.5327     2.0838 C.ar    
  38 C38            1.4997    -8.9241     1.6099 C.ar    
  39 C39            0.4640    -8.0052     1.5443 C.ar    
  40 O40            1.2967   -10.2073     1.2110 O.3     
  41 O41           -0.3392    -5.7936     1.8889 O.3     
  42 C42            2.4085   -11.1000     1.3066 C.3     
  43 C43           -1.5947    -6.2611     1.3916 C.3     
  44 C44           -2.6044    -5.1115     1.3947 C.3     
  45 C45           -9.0496    -8.6250    -3.6706 C.3     
  46 C46           -9.9064    -9.8921    -3.7040 C.3     
  47 S47            2.1901    -4.6461     2.9366 S.o2    
  48 O48            3.5534    -4.5630     3.3289 O.2     
  49 O49            1.1114    -4.3113     3.7989 O.2     
  50 O50            1.2877    -0.4416    -2.1384 O.3     
  51 C51            1.2542     0.5096    -3.2043 C.3     
  52 C52            1.7707    -0.1441    -4.4876 C.3     
  53 F53            3.0525    -0.6586    -4.2657 F       
  54 F54            0.9100    -1.1817    -4.8614 F       
  55 C55            6.6950    -3.6022    -0.1364 C.1     
  56 N56            7.7936    -3.8885    -0.0966 N.1     
  57 H57            0.6972     2.0367    -1.5298 H       
  58 H58            0.3993    -1.1341     2.2311 H       
  59 H59           -0.1195     1.2466     2.5803 H       
  60 H60            0.0277     2.8303     0.7022 H       
  61 H61            0.6733    -2.4188    -2.1579 H       
  62 H62            0.5150    -3.9787    -1.3153 H       
  63 H63           -3.5982    -2.1943    -0.8288 H       
  64 H64           -3.7419    -2.0835    -2.6021 H       
  65 H65           -4.0424    -4.6015    -0.9007 H       
  66 H66           -5.3375    -3.7516    -1.7786 H       
  67 H67           -4.1626    -4.2047    -3.9251 H       
  68 H68           -2.2513    -5.7798    -2.1406 H       
  69 H69           -2.2425    -5.7878    -3.9211 H       
  70 H70           -1.7645    -3.3822    -3.9753 H       
  71 H71           -0.5619    -4.1851    -2.9330 H       
  72 H72           -4.9053    -6.1531    -5.1693 H       
  73 H73           -3.5152    -7.0005    -4.4487 H       
  74 H74           -5.2597    -8.5971    -5.2325 H       
  75 H75           -5.0330    -8.6854    -3.4688 H       
  76 H76           -8.0625    -6.7683    -2.7194 H       
  77 H77           -6.6723    -7.6156    -1.9989 H       
  78 H78           -6.3179    -5.1716    -1.9357 H       
  79 H79           -6.5447    -5.0834    -3.6993 H       
  80 H80           -7.6532    -9.3534    -5.1404 H       
  81 H81           -7.1983    -9.7054    -3.4559 H       
  82 H82            3.1266    -1.4486    -2.0527 H       
  83 H83            4.7979    -4.3377     1.5889 H       
  84 H84            3.9201    -6.9259     2.8584 H       
  85 H85            3.5516    -9.2482     2.1348 H       
  86 H86           -0.5051    -8.3080     1.1762 H       
  87 H87            2.1115   -12.0888     0.9573 H       
  88 H88            3.2273   -10.7278     0.6908 H       
  89 H89            2.7347   -11.1641     2.3447 H       
  90 H90           -1.4677    -6.6304     0.3740 H       
  91 H91           -1.9601    -7.0672     2.0278 H       
  92 H92           -3.5621    -5.4681     1.0154 H       
  93 H93           -2.7314    -4.7422     2.4123 H       
  94 H94           -2.2391    -4.3053     0.7586 H       
  95 H95           -9.0236    -8.2307    -2.6547 H       
  96 H96           -9.4785    -7.8786    -4.3392 H       
  97 H97          -10.9198    -9.6542    -3.3806 H       
  98 H98           -9.9324   -10.2865    -4.7198 H       
  99 H99           -9.4775   -10.6385    -3.0354 H       
 100 H100           0.2297     0.8491    -3.3563 H       
 101 H101           1.8854     1.3615    -2.9511 H       
 102 H102           1.8104     0.5995    -5.2836 H       
@<TRIPOS>BOND
   1    1   31 1
   2    2    3 ar
   3    2    7 ar
   4    2   57 1
   5    3    4 ar
   6    3   50 1
   7    4    5 ar
   8    4    8 1
   9    5    6 ar
  10    5   58 1
  11    6    7 ar
  12    6   59 1
  13    7   60 1
  14    8    9 1
  15    8   10 1
  16    8   28 1
  17    9   26 2
  18    9   27 am
  19   10   11 1
  20   10   61 1
  21   10   62 1
  22   11   12 am
  23   11   13 2
  24   12   14 1
  25   12   18 1
  26   14   15 1
  27   14   63 1
  28   14   64 1
  29   15   16 1
  30   15   65 1
  31   15   66 1
  32   16   17 1
  33   16   19 1
  34   16   67 1
  35   17   18 1
  36   17   68 1
  37   17   69 1
  38   18   70 1
  39   18   71 1
  40   19   20 1
  41   19   24 1
  42   20   21 1
  43   20   72 1
  44   20   73 1
  45   21   22 1
  46   21   74 1
  47   21   75 1
  48   22   23 1
  49   22   25 1
  50   23   24 1
  51   23   76 1
  52   23   77 1
  53   24   78 1
  54   24   79 1
  55   25   45 1
  56   25   80 1
  57   25   81 1
  58   27   47 am
  59   27   29 1
  60   28   29 ar
  61   28   30 ar
  62   29   33 ar
  63   30   31 ar
  64   30   82 1
  65   31   32 ar
  66   32   33 ar
  67   32   55 1
  68   33   83 1
  69   34   35 ar
  70   34   36 ar
  71   34   47 1
  72   35   41 1
  73   35   39 ar
  74   36   37 ar
  75   36   84 1
  76   37   38 ar
  77   37   85 1
  78   38   39 ar
  79   38   40 1
  80   39   86 1
  81   40   42 1
  82   41   43 1
  83   42   87 1
  84   42   88 1
  85   42   89 1
  86   43   44 1
  87   43   90 1
  88   43   91 1
  89   44   92 1
  90   44   93 1
  91   44   94 1
  92   45   46 1
  93   45   95 1
  94   45   96 1
  95   46   97 1
  96   46   98 1
  97   46   99 1
  98   47   48 2
  99   47   49 2
 100   50   51 1
 101   51   52 1
 102   51  100 1
 103   51  101 1
 104   52   53 1
 105   52   54 1
 106   52  102 1
 107   55   56 3

#	End of record

