#	Name: ASD01918623
#	Creating user name:	WinNT
#	Creation time:	15. 06. 2019 20:11

#	Modifying user name:	WinNT
#	Modification time:	15. 06. 2019 20:11

#	Program:	/corina/corina34_cracker 3.40 0067  02.08.2006

@<TRIPOS>MOLECULE
ASD01918623
  66   69    0    0    0
SMALL
NO_CHARGES


@<TRIPOS>ATOM
   1 C1            -0.0705     1.2284     0.4037 C.2     
   2 N2            -0.0123    -0.0182    -0.1052 N.am    
   3 O3             0.9373     1.7598     0.8262 O.2     
   4 O4            -1.2443     1.8871     0.4388 O.3     
   5 C5             1.3571    -2.0050     0.1984 C.ar    
   6 C6             1.2177    -0.6709    -0.2153 C.ar    
   7 C7             2.3240    -0.0104    -0.7369 C.ar    
   8 C8             3.5239    -0.6996    -0.8270 C.ar    
   9 C9             3.5888    -2.0141    -0.3998 C.ar    
  10 N10            2.5294    -2.6226     0.0919 N.ar    
  11 C11            4.8935    -2.7618    -0.4984 C.3     
  12 C12            2.2215     1.4219    -1.1943 C.3     
  13 C13            0.2318    -2.7025     0.7441 C.1     
  14 C14           -0.6907    -3.2744     1.1915 C.1     
  15 C15           -1.8160    -3.9719     1.7372 C.ar    
  16 C16           -1.6851    -5.3001     2.1513 C.ar    
  17 C17           -2.7751    -5.9662     2.6766 C.ar    
  18 C18           -3.9957    -5.3194     2.7924 C.ar    
  19 C19           -4.1306    -4.0048     2.3840 C.ar    
  20 C20           -3.0486    -3.3257     1.8633 C.ar    
  21 F21           -2.6516    -7.2503     3.0778 F       
  22 C22           -1.2597     3.1709     1.1170 C.3     
  23 C23           -4.9898     3.5604     0.5730 C.2     
  24 C24           -3.6850     3.0280     0.5521 C.2     
  25 C25           -2.6638     3.7183     1.1244 C.2     
  26 C26           -2.9647     5.0077     1.7486 C.ar    
  27 C27           -4.2911     5.4801     1.7323 C.ar    
  28 O28           -5.2596     4.7437     1.1466 O.3     
  29 C29           -4.5869     6.6993     2.3203 C.ar    
  30 C30           -3.5763     7.4397     2.9172 C.ar    
  31 C31           -2.2639     6.9657     2.9298 C.ar    
  32 C32           -1.9572     5.7669     2.3553 C.ar    
  33 O33           -5.8948     2.9336     0.0518 O.2     
  34 N34           -3.8738     8.6644     3.5072 N.pl3   
  35 C35           -2.8111     9.4505     4.1389 C.3     
  36 C36           -2.1882    10.3900     3.1044 C.3     
  37 C37           -5.2496     9.1675     3.4968 C.3     
  38 C38           -5.9816     8.6768     4.7475 C.3     
  39 H39           -0.8246    -0.4622    -0.3950 H       
  40 H40            4.4013    -0.2141    -1.2281 H       
  41 H41            5.4623    -2.6229     0.4210 H       
  42 H42            4.6939    -3.8232    -0.6454 H       
  43 H43            5.4682    -2.3800    -1.3423 H       
  44 H44            2.5738     2.0824    -0.4021 H       
  45 H45            2.8341     1.5636    -2.0847 H       
  46 H46            1.1826     1.6555    -1.4271 H       
  47 H47           -0.7344    -5.8045     2.0605 H       
  48 H48           -4.8454    -5.8446     3.2031 H       
  49 H49           -5.0846    -3.5072     2.4771 H       
  50 H50           -3.1552    -2.2978     1.5493 H       
  51 H51           -0.9138     3.0440     2.1429 H       
  52 H52           -0.6017     3.8655     0.5950 H       
  53 H53           -3.4973     2.0732     0.0836 H       
  54 H54           -5.6004     7.0723     2.3139 H       
  55 H55           -1.4862     7.5512     3.3975 H       
  56 H56           -0.9398     5.4048     2.3683 H       
  57 H57           -3.2301    10.0370     4.9566 H       
  58 H58           -2.0453     8.7797     4.5282 H       
  59 H59           -1.3975    10.9750     3.5744 H       
  60 H60           -1.7692     9.8036     2.2867 H       
  61 H61           -2.9540    11.0609     2.7151 H       
  62 H62           -5.2379    10.2574     3.4868 H       
  63 H63           -5.7636     8.8015     2.6079 H       
  64 H64           -7.0053     9.0512     4.7397 H       
  65 H65           -5.9934     7.5869     4.7575 H       
  66 H66           -5.4677     9.0428     5.6363 H       
@<TRIPOS>BOND
   1    1    2 am
   2    1    3 2
   3    1    4 1
   4    2    6 1
   5    2   39 1
   6    4   22 1
   7    5    6 ar
   8    5   10 ar
   9    5   13 1
  10    6    7 ar
  11    7    8 ar
  12    7   12 1
  13    8    9 ar
  14    8   40 1
  15    9   10 ar
  16    9   11 1
  17   11   41 1
  18   11   42 1
  19   11   43 1
  20   12   44 1
  21   12   45 1
  22   12   46 1
  23   13   14 3
  24   14   15 1
  25   15   16 ar
  26   15   20 ar
  27   16   17 ar
  28   16   47 1
  29   17   18 ar
  30   17   21 1
  31   18   19 ar
  32   18   48 1
  33   19   20 ar
  34   19   49 1
  35   20   50 1
  36   22   25 1
  37   22   51 1
  38   22   52 1
  39   23   24 1
  40   23   28 1
  41   23   33 2
  42   24   25 2
  43   24   53 1
  44   25   26 1
  45   26   27 ar
  46   26   32 ar
  47   27   28 1
  48   27   29 ar
  49   29   30 ar
  50   29   54 1
  51   30   31 ar
  52   30   34 1
  53   31   32 ar
  54   31   55 1
  55   32   56 1
  56   34   35 1
  57   34   37 1
  58   35   36 1
  59   35   57 1
  60   35   58 1
  61   36   59 1
  62   36   60 1
  63   36   61 1
  64   37   38 1
  65   37   62 1
  66   37   63 1
  67   38   64 1
  68   38   65 1
  69   38   66 1

#	End of record

