#	Name: ASD01883879
#	Creating user name:	WinNT
#	Creation time:	15. 06. 2019 19:47

#	Modifying user name:	WinNT
#	Modification time:	15. 06. 2019 19:47

#	Program:	/corina/corina34_cracker 3.40 0067  02.08.2006

@<TRIPOS>MOLECULE
ASD01883879
  56   59    0    0    0
SMALL
NO_CHARGES


@<TRIPOS>ATOM
   1 C1             0.1598     1.3222     0.5314 C.ar    
   2 C2             0.2728    -0.0317     0.6594 C.ar    
   3 C3             1.5396    -0.6291     0.7053 C.ar    
   4 C4             2.6916     0.1737     0.6189 C.ar    
   5 C5             2.5609     1.5452     0.4894 C.ar    
   6 C6             1.2982     2.1194     0.4456 C.ar    
   7 C7             1.6637    -2.0823     0.8431 C.2     
   8 O8             2.7555    -2.6071     0.7753 O.2     
   9 C9             0.4351    -2.9253     1.0692 C.3     
  10 O10            3.9228    -0.3931     0.6626 O.3     
  11 C11            3.7884     2.4145     0.3964 C.3     
  12 C12            4.1919     2.5720    -1.0710 C.3     
  13 C13            5.4381     3.4545    -1.1654 C.3     
  14 O14            1.1723     3.4642     0.3181 O.3     
  15 C15           -0.1556     3.9907     0.2790 C.3     
  16 C16           -0.0976     5.4897     0.1353 C.ar    
  17 C17           -0.0019     7.6663     1.1330 C.ar    
  18 C18           -0.0551     6.2904     1.2615 C.ar    
  19 C19           -0.0811     6.0624    -1.1219 C.ar    
  20 C20           -0.0272     7.4423    -1.2536 C.ar    
  21 C21            0.0099     8.2440    -0.1215 C.ar    
  22 O22           -0.0105     8.0081    -2.4891 O.3     
  23 C23           -1.1218     7.8906    -3.2586 C.ar    
  24 C24           -3.3178     7.2007    -3.4608 C.ar    
  25 N25           -2.2120     7.3372    -2.7530 N.ar    
  26 C26           -1.1040     8.3573    -4.5650 C.ar    
  27 C27           -2.2540     8.2299    -5.3436 C.ar    
  28 C28           -3.3809     7.6335    -4.7681 C.ar    
  29 C29           -2.2818     8.7152    -6.7464 C.2     
  30 N30           -3.3004     8.6535    -7.5808 N.2     
  31 N31           -2.9278     9.1782    -8.6973 N.pl3   
  32 N32           -1.7058     9.5703    -8.5969 N.2     
  33 N33           -1.2777     9.3065    -7.4090 N.2     
  34 H34           -0.8186     1.7778     0.4920 H       
  35 H35           -0.6148    -0.6433     0.7257 H       
  36 H36           -0.4316    -2.2771     1.1982 H       
  37 H37            0.2776    -3.5759     0.2090 H       
  38 H38            0.5709    -3.5327     1.9641 H       
  39 H39            4.2725    -0.6415    -0.2041 H       
  40 H40            3.5723     3.3949     0.8210 H       
  41 H41            4.6048     1.9507     0.9500 H       
  42 H42            4.4079     1.5916    -1.4956 H       
  43 H43            3.3755     3.0358    -1.6246 H       
  44 H44            5.2221     4.4349    -0.7407 H       
  45 H45            6.2546     2.9907    -0.6118 H       
  46 H46            5.7256     3.5667    -2.2108 H       
  47 H47           -0.6905     3.5647    -0.5698 H       
  48 H48           -0.6755     3.7341     1.2020 H       
  49 H49            0.0305     8.2896     2.0144 H       
  50 H50           -0.0640     5.8406     2.2433 H       
  51 H51           -0.1098     5.4362    -2.0015 H       
  52 H52            0.0516     9.3186    -0.2213 H       
  53 H53           -4.1855     6.7428    -3.0093 H       
  54 H54           -0.2134     8.8124    -4.9726 H       
  55 H55           -4.2900     7.5173    -5.3393 H       
  56 H56           -3.4814     9.2642    -9.4892 H       
@<TRIPOS>BOND
   1    1    2 ar
   2    1    6 ar
   3    1   34 1
   4    2    3 ar
   5    2   35 1
   6    3    4 ar
   7    3    7 1
   8    4    5 ar
   9    4   10 1
  10    5    6 ar
  11    5   11 1
  12    6   14 1
  13    7    8 2
  14    7    9 1
  15    9   36 1
  16    9   37 1
  17    9   38 1
  18   10   39 1
  19   11   12 1
  20   11   40 1
  21   11   41 1
  22   12   13 1
  23   12   42 1
  24   12   43 1
  25   13   44 1
  26   13   45 1
  27   13   46 1
  28   14   15 1
  29   15   16 1
  30   15   47 1
  31   15   48 1
  32   16   19 ar
  33   16   18 ar
  34   17   18 ar
  35   17   21 ar
  36   17   49 1
  37   18   50 1
  38   19   20 ar
  39   19   51 1
  40   20   21 ar
  41   20   22 1
  42   21   52 1
  43   22   23 1
  44   23   26 ar
  45   23   25 ar
  46   24   25 ar
  47   24   28 ar
  48   24   53 1
  49   26   27 ar
  50   26   54 1
  51   27   28 ar
  52   27   29 1
  53   28   55 1
  54   29   30 2
  55   29   33 1
  56   30   31 1
  57   31   32 1
  58   31   56 1
  59   32   33 2

#	End of record

