#	Name: ASD01140577
#	Creating user name:	WinNT
#	Creation time:	15. 06. 2019 19:01

#	Modifying user name:	WinNT
#	Modification time:	15. 06. 2019 19:01

#	Program:	/corina/corina34_cracker 3.40 0067  02.08.2006

@<TRIPOS>MOLECULE
ASD01140577
  41   44    0    0    0
SMALL
NO_CHARGES


@<TRIPOS>ATOM
   1 C1             0.1056     1.3274     0.1114 C.ar    
   2 C2             0.2027    -0.0588     0.1973 C.ar    
   3 C3             1.4316    -0.6716     0.2931 C.ar    
   4 C4             2.5948     0.1025     0.3044 C.ar    
   5 C5             2.5086     1.4857     0.2070 C.ar    
   6 C6             1.2609     2.1131     0.0976 C.ar    
   7 N7            -1.1712     1.8945     0.0740 N.pl3   
   8 C8             1.2394     3.5721    -0.0587 C.2     
   9 N9             0.4341     4.4127     0.4900 N.2     
  10 C10           -0.6154     3.9822     1.4210 C.3     
  11 C11            2.2684     4.1462    -0.9549 C.ar    
  12 C12            3.2614     4.9789    -0.4389 C.ar    
  13 C13            4.2175     5.5109    -1.2790 C.ar    
  14 C14            4.1942     5.2213    -2.6320 C.ar    
  15 C15            3.2137     4.3969    -3.1523 C.ar    
  16 C16            2.2528     3.8517    -2.3209 C.ar    
  17 N17           -3.2858     2.1706    -0.3107 N.2     
  18 C18           -2.2721     1.3863    -0.5439 C.2     
  19 C19           -1.5384     3.0541     0.6742 C.2     
  20 C20           -2.8707     3.2187     0.4503 C.2     
  21 C21           -3.7071     4.3259     0.9403 C.2     
  22 O22           -3.2135     5.2078     1.6155 O.2     
  23 O23           -5.0208     4.3621     0.6402 O.3     
  24 F24            1.2984     3.0413    -2.8285 F       
  25 C25            3.8749    -0.5295     0.4168 C.1     
  26 C26            4.9244    -1.0476     0.5089 C.1     
  27 C27            0.0127     3.2459     2.6060 C.3     
  28 H28           -0.6950    -0.6592     0.1889 H       
  29 H29            1.4965    -1.7475     0.3597 H       
  30 H30            3.4095     2.0813     0.2164 H       
  31 H31           -1.1713     4.8493     1.7776 H       
  32 H32            3.2814     5.2070     0.6165 H       
  33 H33            4.9864     6.1557    -0.8796 H       
  34 H34            4.9451     5.6415    -3.2846 H       
  35 H35            3.2010     4.1747    -4.2092 H       
  36 H36           -2.3007     0.4806    -1.1316 H       
  37 H37           -5.5293     5.1090     0.9845 H       
  38 H38            5.8630    -1.5110     0.5913 H       
  39 H39            0.7024     3.9126     3.1238 H       
  40 H40           -0.7713     2.9288     3.2937 H       
  41 H41            0.5546     2.3719     2.2448 H       
@<TRIPOS>BOND
   1    1    2 ar
   2    1    6 ar
   3    1    7 1
   4    2    3 ar
   5    2   28 1
   6    3    4 ar
   7    3   29 1
   8    4    5 ar
   9    4   25 1
  10    5    6 ar
  11    5   30 1
  12    6    8 1
  13    7   19 1
  14    7   18 1
  15    8    9 2
  16    8   11 1
  17    9   10 1
  18   10   27 1
  19   10   19 1
  20   10   31 1
  21   11   12 ar
  22   11   16 ar
  23   12   13 ar
  24   12   32 1
  25   13   14 ar
  26   13   33 1
  27   14   15 ar
  28   14   34 1
  29   15   16 ar
  30   15   35 1
  31   16   24 1
  32   17   18 2
  33   17   20 1
  34   18   36 1
  35   19   20 2
  36   20   21 1
  37   21   22 2
  38   21   23 1
  39   23   37 1
  40   25   26 3
  41   26   38 1
  42   27   39 1
  43   27   40 1
  44   27   41 1

#	End of record

