#	Name: ASD02560466
#	Creating user name:	WinNT
#	Creation time:	15. 06. 2019 20:25

#	Modifying user name:	WinNT
#	Modification time:	15. 06. 2019 20:25

#	Program:	/corina/corina34_cracker 3.40 0067  02.08.2006

@<TRIPOS>MOLECULE
ASD02560466
  49   52    0    0    0
SMALL
NO_CHARGES


@<TRIPOS>ATOM
   1 C1             0.0136    -2.1916    -3.4292 C.2     
   2 C2             0.6593    -3.2511    -2.7672 C.2     
   3 C3             1.7227    -3.0120    -1.9738 C.2     
   4 N4             2.1892    -1.7372    -1.8009 N.pl3   
   5 C5             1.5780    -0.6808    -2.4362 C.2     
   6 C6             0.4650    -0.9192    -3.2684 C.2     
   7 C7             3.2249    -1.2205    -1.0711 C.2     
   8 C8             3.2247     0.1213    -1.2730 C.2     
   9 N9             2.2203     0.4273    -2.1021 N.2     
  10 C10            4.1933     1.1025    -0.6648 C.3     
  11 N11            4.1168    -1.9408    -0.2669 N.3     
  12 C12            5.4718    -1.9196    -0.8340 C.3     
  13 C13            5.1128     1.6545    -1.7560 C.3     
  14 C14            6.5308    -2.0677     0.2866 C.3     
  15 C15            3.4170     2.2535    -0.0216 C.3     
  16 C16            4.4004     3.2497     0.5959 C.3     
  17 C17            5.3199     3.8017    -0.4953 C.3     
  18 C18            6.0962     2.6508    -1.1385 C.3     
  19 C19            5.6994    -3.1510    -1.7348 C.3     
  20 C20            7.1535    -3.5998    -1.5067 C.3     
  21 C21            7.7587    -2.6254    -0.4752 C.3     
  22 C22            2.4031    -4.1583    -1.2710 C.3     
  23 H23           -0.8354    -2.3885    -4.0671 H       
  24 H24            0.3010    -4.2620    -2.8948 H       
  25 H25           -0.0239    -0.0993    -3.7733 H       
  26 H26            4.7919     0.5991     0.0944 H       
  27 H27            4.1152    -1.5897     0.6790 H       
  28 H28            5.6346    -1.0002    -1.3964 H       
  29 H29            5.6659     0.8346    -2.2142 H       
  30 H30            4.5142     2.1580    -2.5151 H       
  31 H31            6.7596    -1.0997     0.7322 H       
  32 H32            6.1938    -2.7737     1.0457 H       
  33 H33            2.8184     2.7569    -0.7808 H       
  34 H34            2.7620     1.8602     0.7558 H       
  35 H35            3.8474     4.0696     1.0541 H       
  36 H36            4.9991     2.7462     1.3550 H       
  37 H37            4.7213     4.3051    -1.2545 H       
  38 H38            6.0205     4.5114    -0.0554 H       
  39 H39            6.6948     2.1473    -0.3793 H       
  40 H40            6.7513     3.0440    -1.9159 H       
  41 H41            5.0136    -3.9505    -1.4546 H       
  42 H42            5.5516    -2.8811    -2.7805 H       
  43 H43            7.1733    -4.6171    -1.1158 H       
  44 H44            7.7114    -3.5477    -2.4416 H       
  45 H45            8.2931    -1.8200    -0.9790 H       
  46 H46            8.4223    -3.1563     0.2075 H       
  47 H47            1.8420    -5.0763    -1.4458 H       
  48 H48            3.4157    -4.2721    -1.6579 H       
  49 H49            2.4438    -3.9556    -0.2007 H       
@<TRIPOS>BOND
   1    1    2 1
   2    1    6 2
   3    1   23 1
   4    2    3 2
   5    2   24 1
   6    3    4 1
   7    3   22 1
   8    4    5 1
   9    4    7 1
  10    5    6 1
  11    5    9 2
  12    6   25 1
  13    7    8 2
  14    7   11 1
  15    8    9 1
  16    8   10 1
  17   10   15 1
  18   10   13 1
  19   10   26 1
  20   11   12 1
  21   11   27 1
  22   12   19 1
  23   12   14 1
  24   12   28 1
  25   13   18 1
  26   13   29 1
  27   13   30 1
  28   14   21 1
  29   14   31 1
  30   14   32 1
  31   15   16 1
  32   15   33 1
  33   15   34 1
  34   16   17 1
  35   16   35 1
  36   16   36 1
  37   17   18 1
  38   17   37 1
  39   17   38 1
  40   18   39 1
  41   18   40 1
  42   19   20 1
  43   19   41 1
  44   19   42 1
  45   20   21 1
  46   20   43 1
  47   20   44 1
  48   21   45 1
  49   21   46 1
  50   22   47 1
  51   22   48 1
  52   22   49 1

#	End of record

