#	Name: ASD03430551
#	Creating user name:	WinNT
#	Creation time:	15. 06. 2019 20:41

#	Modifying user name:	WinNT
#	Modification time:	15. 06. 2019 20:41

#	Program:	/corina/corina34_cracker 3.40 0067  02.08.2006

@<TRIPOS>MOLECULE
ASD03430551
  45   49    0    0    0
SMALL
NO_CHARGES


@<TRIPOS>ATOM
   1 N1            -0.4553     1.4136     1.0164 N.am    
   2 C2            -0.9559     0.4567     1.8167 C.2     
   3 C3             0.1644    -0.0446     2.6779 C.2     
   4 C4             1.3390     0.7402     2.2663 C.ar    
   5 C5             2.6726     0.7503     2.6847 C.ar    
   6 C6             3.5703     1.6215     2.0987 C.ar    
   7 C7             3.1447     2.4858     1.0903 C.ar    
   8 C8             1.8181     2.4786     0.6730 C.ar    
   9 C9             0.9058     1.6118     1.2522 C.ar    
  10 O10            4.8654     1.6259     2.5207 O.3     
  11 O11            4.0188     3.3432     0.4995 O.3     
  12 C12            5.2443     3.5950     1.1948 C.3     
  13 C13            5.8211     2.2499     1.6563 C.3     
  14 O14           -2.1053     0.0691     1.8382 O.2     
  15 O15            0.1136    -0.9091     3.5288 O.2     
  16 C16           -1.2370     2.1497     0.0198 C.3     
  17 C17           -1.7406     1.1932    -1.0302 C.ar    
  18 C18           -2.7764     1.5669    -1.8659 C.ar    
  19 C19           -3.2385     0.6895    -2.8289 C.ar    
  20 C20           -2.6644    -0.5616    -2.9566 C.ar    
  21 C21           -1.6280    -0.9349    -2.1215 C.ar    
  22 C22           -1.1631    -0.0559    -1.1613 C.ar    
  23 C23           -2.4077     2.8182     0.6933 C.ar    
  24 C24           -2.3727     4.1754     0.9535 C.ar    
  25 C25           -3.4466     4.7886     1.5714 C.ar    
  26 C26           -4.5555     4.0446     1.9287 C.ar    
  27 C27           -4.5908     2.6876     1.6677 C.ar    
  28 C28           -3.5188     2.0752     1.0459 C.ar    
  29 H29            3.0004     0.0789     3.4645 H       
  30 H30            1.4972     3.1527    -0.1074 H       
  31 H31            5.9509     4.0882     0.5273 H       
  32 H32            5.0521     4.2288     2.0605 H       
  33 H33            6.7529     2.4155     2.1971 H       
  34 H34            6.0057     1.6127     0.7914 H       
  35 H35           -0.6075     2.9058    -0.4495 H       
  36 H36           -3.2249     2.5443    -1.7661 H       
  37 H37           -4.0482     0.9812    -3.4813 H       
  38 H38           -3.0259    -1.2473    -3.7086 H       
  39 H39           -1.1797    -1.9125    -2.2211 H       
  40 H40           -0.3509    -0.3462    -0.5114 H       
  41 H41           -1.5063     4.7566     0.6743 H       
  42 H42           -3.4190     5.8488     1.7753 H       
  43 H43           -5.3942     4.5235     2.4121 H       
  44 H44           -5.4570     2.1063     1.9472 H       
  45 H45           -3.5479     1.0157     0.8387 H       
@<TRIPOS>BOND
   1    1    2 am
   2    1    9 1
   3    1   16 1
   4    2    3 1
   5    2   14 2
   6    3    4 1
   7    3   15 2
   8    4    5 ar
   9    4    9 ar
  10    5    6 ar
  11    5   29 1
  12    6    7 ar
  13    6   10 1
  14    7    8 ar
  15    7   11 1
  16    8    9 ar
  17    8   30 1
  18   10   13 1
  19   11   12 1
  20   12   13 1
  21   12   31 1
  22   12   32 1
  23   13   33 1
  24   13   34 1
  25   16   17 1
  26   16   23 1
  27   16   35 1
  28   17   18 ar
  29   17   22 ar
  30   18   19 ar
  31   18   36 1
  32   19   20 ar
  33   19   37 1
  34   20   21 ar
  35   20   38 1
  36   21   22 ar
  37   21   39 1
  38   22   40 1
  39   23   24 ar
  40   23   28 ar
  41   24   25 ar
  42   24   41 1
  43   25   26 ar
  44   25   42 1
  45   26   27 ar
  46   26   43 1
  47   27   28 ar
  48   27   44 1
  49   28   45 1

#	End of record

