#	Name: ASD00841986
#	Creating user name:	WinNT
#	Creation time:	15. 06. 2019 18:43

#	Modifying user name:	WinNT
#	Modification time:	15. 06. 2019 18:43

#	Program:	/corina/corina34_cracker 3.40 0067  02.08.2006

@<TRIPOS>MOLECULE
ASD00841986
  86   91    0    0    0
SMALL
NO_CHARGES


@<TRIPOS>ATOM
   1 C1             0.9784     1.5500    -0.3264 C.ar    
   2 C2             1.2919     0.2252    -0.5922 C.ar    
   3 C3             1.2367    -0.7161     0.4257 C.ar    
   4 C4             0.8700    -0.3319     1.7008 C.ar    
   5 C5             0.5575     0.9894     1.9631 C.ar    
   6 C6             0.6121     1.9291     0.9507 C.ar    
   7 C7             1.5762    -2.1563     0.1403 C.3     
   8 C8             1.3225    -3.0135     1.3621 C.2     
   9 C9             0.7677    -2.6702    -1.0526 C.3     
  10 C10           -0.7014    -2.4572    -0.7930 C.2     
  11 N11           -1.6151    -2.9295    -1.6639 N.am    
  12 O12           -1.0615    -1.8606     0.1996 O.2     
  13 C13           -3.0459    -2.6367    -1.4899 C.3     
  14 C14           -3.5940    -2.0851    -2.8104 C.3     
  15 N15           -3.2794    -3.0223    -3.8970 N.3     
  16 C16           -1.8283    -3.1561    -4.0819 C.3     
  17 C17           -1.2072    -3.7465    -2.8170 C.3     
  18 C18           -3.9344    -2.6170    -5.1479 C.3     
  19 C19           -3.4860    -3.5415    -6.2831 C.3     
  20 C20           -4.2176    -3.1530    -7.5699 C.3     
  21 N21           -5.6670    -3.2681    -7.3644 N.3     
  22 C22           -6.1281    -2.3548    -6.3110 C.3     
  23 C23           -5.4536    -2.7195    -4.9866 C.3     
  24 H24           -6.1681    -3.1091    -8.2256 H       
  25 O25            0.2564    -3.1808     1.9155 O.2     
  26 N26            2.4994    -3.5547     1.7179 N.am    
  27 C27            3.0584    -2.3111    -0.1141 C.ar    
  28 C28            3.5375    -3.1654     0.8761 C.ar    
  29 C29            3.8980    -1.7919    -1.0668 C.ar    
  30 C30            5.2581    -2.1211    -1.0499 C.ar    
  31 C31            5.7468    -2.9793    -0.0574 C.ar    
  32 C32            4.8927    -3.4955     0.8935 C.ar    
  33 F33            7.0581    -3.3033    -0.0325 F       
  34 C34            2.4463    -6.2134     2.4271 C.ar    
  35 C35            1.2023    -6.6014     1.9518 C.ar    
  36 C36            3.4930    -7.1152     2.4363 C.ar    
  37 C37            3.3015    -8.4031     1.9718 C.ar    
  38 C38            2.0622    -8.7924     1.4975 C.ar    
  39 C39            1.0124    -7.8948     1.4866 C.ar    
  40 H40            1.9150    -9.7991     1.1352 H       
  41 O41            0.1710    -5.7164     1.9421 O.3     
  42 C42           -1.0815    -6.1852     1.4387 C.3     
  43 O43            1.6520    -0.1504    -1.8477 O.3     
  44 C44            2.1141     0.2714    -4.1820 C.3     
  45 C45            1.5784     0.8462    -2.8692 C.3     
  46 S46            2.6934    -4.5697     3.0119 S.o2    
  47 O47            4.0599    -4.4799     3.3910 O.2     
  48 O48            1.6202    -4.2949     3.9019 O.2     
  49 C49            6.1428    -1.5849    -2.0400 C.1     
  50 N50            6.8447    -1.1595    -2.8255 N.1     
  51 H51            1.0249     2.2853    -1.1161 H       
  52 H52            0.8269    -1.0642     2.4935 H       
  53 H53            0.2702     1.2876     2.9606 H       
  54 H54            0.3676     2.9605     1.1581 H       
  55 H55            1.0604    -2.1269    -1.9511 H       
  56 H56            0.9616    -3.7338    -1.1918 H       
  57 H57           -3.5774    -3.5511    -1.2264 H       
  58 H58           -3.1746    -1.8949    -0.7017 H       
  59 H59           -4.6748    -1.9661    -2.7342 H       
  60 H60           -3.1351    -1.1188    -3.0193 H       
  61 H61           -1.6285    -3.8138    -4.9279 H       
  62 H62           -1.3940    -2.1748    -4.2731 H       
  63 H63           -0.1208    -3.7410    -2.9056 H       
  64 H64           -1.5609    -4.7680    -2.6778 H       
  65 H65           -3.6609    -1.5890    -5.3857 H       
  66 H66           -2.4108    -3.4410    -6.4312 H       
  67 H67           -3.7237    -4.5740    -6.0270 H       
  68 H68           -3.9686    -2.1249    -7.8330 H       
  69 H69           -3.9112    -3.8185    -8.3770 H       
  70 H70           -5.8701    -1.3304    -6.5799 H       
  71 H71           -7.2094    -2.4406    -6.2036 H       
  72 H72           -5.7222    -3.7390    -4.7100 H       
  73 H73           -5.7841    -2.0316    -4.2083 H       
  74 H74            3.5103    -1.1311    -1.8280 H       
  75 H75            5.2749    -4.1572     1.6566 H       
  76 H76            4.4618    -6.8136     2.8062 H       
  77 H77            4.1211    -9.1063     1.9792 H       
  78 H78            0.0446    -8.1995     1.1167 H       
  79 H79           -1.4233    -7.0267     2.0413 H       
  80 H80           -1.8163    -5.3815     1.4870 H       
  81 H81           -0.9603    -6.5050     0.4037 H       
  82 H82            2.1397     1.0558    -4.9384 H       
  83 H83            3.1211    -0.1152    -4.0253 H       
  84 H84            1.4631    -0.5359    -4.5176 H       
  85 H85            0.5411     1.1530    -3.0034 H       
  86 H86            2.1778     1.7090    -2.5789 H       
@<TRIPOS>BOND
   1    1    2 ar
   2    1    6 ar
   3    1   51 1
   4    2    3 ar
   5    2   43 1
   6    3    4 ar
   7    3    7 1
   8    4    5 ar
   9    4   52 1
  10    5    6 ar
  11    5   53 1
  12    6   54 1
  13    7    8 1
  14    7    9 1
  15    7   27 1
  16    8   25 2
  17    8   26 am
  18    9   10 1
  19    9   55 1
  20    9   56 1
  21   10   11 am
  22   10   12 2
  23   11   13 1
  24   11   17 1
  25   13   14 1
  26   13   57 1
  27   13   58 1
  28   14   15 1
  29   14   59 1
  30   14   60 1
  31   15   16 1
  32   15   18 1
  33   16   17 1
  34   16   61 1
  35   16   62 1
  36   17   63 1
  37   17   64 1
  38   18   19 1
  39   18   23 1
  40   18   65 1
  41   19   20 1
  42   19   66 1
  43   19   67 1
  44   20   21 1
  45   20   68 1
  46   20   69 1
  47   21   22 1
  48   21   24 1
  49   22   23 1
  50   22   70 1
  51   22   71 1
  52   23   72 1
  53   23   73 1
  54   26   46 am
  55   26   28 1
  56   27   28 ar
  57   27   29 ar
  58   28   32 ar
  59   29   30 ar
  60   29   74 1
  61   30   31 ar
  62   30   49 1
  63   31   32 ar
  64   31   33 1
  65   32   75 1
  66   34   35 ar
  67   34   36 ar
  68   34   46 1
  69   35   41 1
  70   35   39 ar
  71   36   37 ar
  72   36   76 1
  73   37   38 ar
  74   37   77 1
  75   38   39 ar
  76   38   40 1
  77   39   78 1
  78   41   42 1
  79   42   79 1
  80   42   80 1
  81   42   81 1
  82   43   45 1
  83   44   45 1
  84   44   82 1
  85   44   83 1
  86   44   84 1
  87   45   85 1
  88   45   86 1
  89   46   47 2
  90   46   48 2
  91   49   50 3

#	End of record

