#	Name: ASD03740077
#	Creating user name:	WinNT
#	Creation time:	15. 06. 2019 20:46

#	Modifying user name:	WinNT
#	Modification time:	15. 06. 2019 20:46

#	Program:	/corina/corina34_cracker 3.40 0067  02.08.2006

@<TRIPOS>MOLECULE
ASD03740077
  53   56    0    0    0
SMALL
NO_CHARGES


@<TRIPOS>ATOM
   1 C1             0.0762     1.3341    -0.7767 C.ar    
   2 C2             0.1094    -0.0531    -0.8431 C.ar    
   3 C3             1.2979    -0.7265    -0.8177 C.ar    
   4 C4             2.4937    -0.0188    -0.7247 C.ar    
   5 C5             2.4616     1.3875    -0.6579 C.ar    
   6 C6             1.2328     2.0538    -0.6850 C.ar    
   7 N7             3.8130    -0.3873    -0.6781 N.pl3   
   8 N8             4.6072     0.7600    -0.5834 N.2     
   9 C9             3.8541     1.8260    -0.5684 C.2     
  10 O10            4.2862     3.1121    -0.4851 O.3     
  11 C11            4.3119    -1.7641    -0.7200 C.3     
  12 C12            4.5520    -2.1681    -2.1518 C.ar    
  13 C13            5.6980     3.3183    -0.4059 C.3     
  14 C14            5.9904     4.8176    -0.3191 C.3     
  15 C15            7.5020     5.0384    -0.2343 C.3     
  16 C16            5.7864    -1.9481    -2.7340 C.ar    
  17 C17            6.0073    -2.3184    -4.0472 C.ar    
  18 C18            4.9927    -2.9093    -4.7790 C.ar    
  19 C19            3.7575    -3.1291    -4.1958 C.ar    
  20 C20            3.5396    -2.7635    -2.8808 C.ar    
  21 N21            7.7827     6.4779    -0.1510 N.3     
  22 C22            9.1635     6.7215     0.3050 C.3     
  23 C23            7.5987     7.1305    -1.4648 C.3     
  24 C24            8.6604     8.2581    -1.4985 C.3     
  25 C25            9.8542     7.5863    -0.7703 C.3     
  26 Cl26           5.2692    -3.3741    -6.4286 Cl      
  27 C27            9.8925     5.4111     0.4552 C.2     
  28 O28            9.8789     4.6056    -0.4453 O.2     
  29 O29           10.5569     5.1388     1.5893 O.3     
  30 H30           -0.8732     1.8483    -0.8023 H       
  31 H31           -0.8155    -0.6060    -0.9152 H       
  32 H32            1.3100    -1.8052    -0.8692 H       
  33 H33            1.1987     3.1321    -0.6346 H       
  34 H34            5.2463    -1.8291    -0.1625 H       
  35 H35            3.5749    -2.4313    -0.2729 H       
  36 H36            6.0888     2.8200     0.4813 H       
  37 H37            6.1759     2.9058    -1.2945 H       
  38 H38            5.5996     5.3159    -1.2063 H       
  39 H39            5.5125     5.2301     0.5695 H       
  40 H40            7.8928     4.5401     0.6529 H       
  41 H41            7.9798     4.6259    -1.1229 H       
  42 H42            6.5783    -1.4866    -2.1627 H       
  43 H43            6.9716    -2.1462    -4.5020 H       
  44 H44            2.9651    -3.5903    -4.7666 H       
  45 H45            2.5754    -2.9351    -2.4255 H       
  46 H46            9.1514     7.2503     1.2581 H       
  47 H47            7.7761     6.4181    -2.2705 H       
  48 H48            6.5961     7.5509    -1.5427 H       
  49 H49            8.9237     8.5159    -2.5243 H       
  50 H50            8.3146     9.1363    -0.9533 H       
  51 H51           10.4954     8.3368    -0.3080 H       
  52 H52           10.4241     6.9625    -1.4590 H       
  53 H53           11.0092     4.2856     1.6390 H       
@<TRIPOS>BOND
   1    1    2 ar
   2    1    6 ar
   3    1   30 1
   4    2    3 ar
   5    2   31 1
   6    3    4 ar
   7    3   32 1
   8    4    5 ar
   9    4    7 1
  10    5    6 ar
  11    5    9 1
  12    6   33 1
  13    7    8 1
  14    7   11 1
  15    8    9 2
  16    9   10 1
  17   10   13 1
  18   11   12 1
  19   11   34 1
  20   11   35 1
  21   12   16 ar
  22   12   20 ar
  23   13   14 1
  24   13   36 1
  25   13   37 1
  26   14   15 1
  27   14   38 1
  28   14   39 1
  29   15   21 1
  30   15   40 1
  31   15   41 1
  32   16   17 ar
  33   16   42 1
  34   17   18 ar
  35   17   43 1
  36   18   19 ar
  37   18   26 1
  38   19   20 ar
  39   19   44 1
  40   20   45 1
  41   21   22 1
  42   21   23 1
  43   22   27 1
  44   22   25 1
  45   22   46 1
  46   23   24 1
  47   23   47 1
  48   23   48 1
  49   24   25 1
  50   24   49 1
  51   24   50 1
  52   25   51 1
  53   25   52 1
  54   27   28 2
  55   27   29 1
  56   29   53 1

#	End of record

