#	Name: ASD02030601
#	Creating user name:	WinNT
#	Creation time:	15. 06. 2019 20:15

#	Modifying user name:	WinNT
#	Modification time:	15. 06. 2019 20:15

#	Program:	/corina/corina34_cracker 3.40 0067  02.08.2006

@<TRIPOS>MOLECULE
ASD02030601
  67   70    0    0    0
SMALL
NO_CHARGES


@<TRIPOS>ATOM
   1 C1            -0.2429     1.5082     0.0643 C.ar    
   2 C2            -0.1695     0.1325     0.0150 C.ar    
   3 C3             1.0709    -0.4895     0.0201 C.ar    
   4 C4             2.2221     0.2764     0.0803 C.ar    
   5 C5             2.1456     1.6621     0.1364 C.ar    
   6 C6             0.9130     2.2761     0.1192 C.ar    
   7 C7             0.7592     3.7763     0.1439 C.3     
   8 C8             3.4388     2.4286     0.2292 C.3     
   9 C9             3.2431     3.8802    -0.2053 C.3     
  10 N10            2.0453     4.3995     0.4736 N.am    
  11 C11            0.2950     4.2631    -1.2303 C.3     
  12 O12            1.2030     3.7994    -2.2316 O.3     
  13 C13            0.9331     4.1470    -3.5183 C.ar    
  14 C14            2.1273     5.4081     1.3638 C.2     
  15 O15            3.2129     5.8593     1.6729 O.2     
  16 C16            0.8968     5.9658     1.9646 C.ar    
  17 C17            0.3836     4.8541    -6.1377 C.ar    
  18 C18           -0.4534     5.2760    -5.1153 C.ar    
  19 C19           -0.1793     4.9229    -3.8083 C.ar    
  20 C20            1.7735     3.7303    -4.5400 C.ar    
  21 C21            1.4994     4.0834    -5.8470 C.ar    
  22 C22            0.9010     6.4065     3.2889 C.ar    
  23 C23           -0.2722     6.0590     1.2080 C.ar    
  24 C24           -1.4174     6.5807     1.7739 C.ar    
  25 C25           -1.4092     7.0111     3.0883 C.ar    
  26 C26           -0.2513     6.9266     3.8435 C.ar    
  27 Cl27          -0.2492     7.4750     5.4906 Cl      
  28 O28            1.1550    -1.8449    -0.0333 O.3     
  29 C29           -0.0741    -2.5730     0.0025 C.3     
  30 O30            0.1135     5.2014    -7.4244 O.3     
  31 C31            1.0178     4.7321    -8.4265 C.3     
  32 C32           -0.4985    -2.9278    -1.4240 C.3     
  33 C33            0.1174    -3.8572     0.8119 C.3     
  34 C34            0.4197    -3.5014     2.2689 C.3     
  35 C35           -0.8105    -1.6449    -2.1972 C.3     
  36 H36           -1.2078     1.9934     0.0556 H       
  37 H37           -1.0727    -0.4581    -0.0269 H       
  38 H38            3.1877    -0.2073     0.0842 H       
  39 H39            0.0191     4.0527     0.8949 H       
  40 H40            3.7948     2.4076     1.2592 H       
  41 H41            4.1812     1.9584    -0.4156 H       
  42 H42            4.1139     4.4708     0.0794 H       
  43 H43            3.1027     3.9261    -1.2852 H       
  44 H44           -0.7022     3.8741    -1.4358 H       
  45 H45            0.2690     5.3528    -1.2400 H       
  46 H46           -1.3221     5.8765    -5.3416 H       
  47 H47           -0.8314     5.2508    -3.0123 H       
  48 H48            2.6424     3.1302    -4.3137 H       
  49 H49            2.1511     3.7549    -6.6431 H       
  50 H50            1.8035     6.3405     3.8785 H       
  51 H51           -0.2804     5.7237     0.1814 H       
  52 H52           -2.3224     6.6535     1.1889 H       
  53 H53           -2.3082     7.4190     3.5262 H       
  54 H54           -0.8456    -1.9608     0.4695 H       
  55 H55            0.6873     5.0792    -9.4054 H       
  56 H56            2.0171     5.1168    -8.2229 H       
  57 H57            1.0387     3.6424    -8.4154 H       
  58 H58            0.3100    -3.4640    -1.9209 H       
  59 H59           -1.3872    -3.5582    -1.3925 H       
  60 H60           -0.7928    -4.4552     0.7653 H       
  61 H61            0.9485    -4.4276     0.3972 H       
  62 H62            0.5561    -4.4163     2.8456 H       
  63 H63            1.3299    -2.9035     2.3156 H       
  64 H64           -0.4114    -2.9311     2.6837 H       
  65 H65           -1.6190    -1.1087    -1.7003 H       
  66 H66            0.0781    -1.0145    -2.2287 H       
  67 H67           -1.1129    -1.8976    -3.2134 H       
@<TRIPOS>BOND
   1    1    2 ar
   2    1    6 ar
   3    1   36 1
   4    2    3 ar
   5    2   37 1
   6    3    4 ar
   7    3   28 1
   8    4    5 ar
   9    4   38 1
  10    5    6 ar
  11    5    8 1
  12    6    7 1
  13    7   10 1
  14    7   11 1
  15    7   39 1
  16    8    9 1
  17    8   40 1
  18    8   41 1
  19    9   10 1
  20    9   42 1
  21    9   43 1
  22   10   14 am
  23   11   12 1
  24   11   44 1
  25   11   45 1
  26   12   13 1
  27   13   20 ar
  28   13   19 ar
  29   14   15 2
  30   14   16 1
  31   16   23 ar
  32   16   22 ar
  33   17   18 ar
  34   17   21 ar
  35   17   30 1
  36   18   19 ar
  37   18   46 1
  38   19   47 1
  39   20   21 ar
  40   20   48 1
  41   21   49 1
  42   22   26 ar
  43   22   50 1
  44   23   24 ar
  45   23   51 1
  46   24   25 ar
  47   24   52 1
  48   25   26 ar
  49   25   53 1
  50   26   27 1
  51   28   29 1
  52   29   32 1
  53   29   33 1
  54   29   54 1
  55   30   31 1
  56   31   55 1
  57   31   56 1
  58   31   57 1
  59   32   35 1
  60   32   58 1
  61   32   59 1
  62   33   34 1
  63   33   60 1
  64   33   61 1
  65   34   62 1
  66   34   63 1
  67   34   64 1
  68   35   65 1
  69   35   66 1
  70   35   67 1

#	End of record

