#	Name: ASD06710056
#	Creating user name:	WinNT
#	Creation time:	15. 06. 2019 21:08

#	Modifying user name:	WinNT
#	Modification time:	15. 06. 2019 21:08

#	Program:	/corina/corina34_cracker 3.40 0067  02.08.2006

@<TRIPOS>MOLECULE
ASD06710056
  41   41    0    0    0
SMALL
NO_CHARGES


@<TRIPOS>ATOM
   1 C1             1.2273    -0.6150     0.5242 C.2     
   2 C2            -0.0650    -0.0453    -0.0016 C.3     
   3 C3            -0.0261     1.4811     0.0950 C.3     
   4 O4             2.1265    -0.8777    -0.2389 O.2     
   5 O5             1.3814    -0.8255     1.8409 O.3     
   6 C6            -0.2476    -0.4594    -1.4631 C.3     
   7 N7            -1.1837    -0.5566     0.7943 N.pl3   
   8 C8            -1.4185    -1.9342     0.8672 C.ar    
   9 C9            -2.5602    -2.4120     1.4969 C.ar    
  10 C10           -2.7911    -3.7718     1.5684 C.ar    
  11 C11           -1.8827    -4.6601     1.0119 C.ar    
  12 C12           -0.7419    -4.1837     0.3832 C.ar    
  13 C13           -0.5127    -2.8240     0.3049 C.ar    
  14 O14           -2.1107    -5.9990     1.0832 O.3     
  15 C15           -1.1337    -6.8559     0.4890 C.3     
  16 C16           -1.5588    -8.3148     0.6674 C.3     
  17 N17           -2.7979    -8.5590    -0.0830 N.3     
  18 C18           -2.5706    -8.4356    -1.5291 C.3     
  19 C19           -3.3651    -9.8724     0.2505 C.3     
  20 H20            0.8555     1.8558    -0.4251 H       
  21 H21           -0.9229     1.8972    -0.3639 H       
  22 H22            0.0169     1.7779     1.1430 H       
  23 H23            2.2279    -1.1925     2.1307 H       
  24 H24           -0.1761    -1.5439    -1.5451 H       
  25 H25           -1.2265    -0.1323    -1.8138 H       
  26 H26            0.5295     0.0031    -2.0716 H       
  27 H27           -1.7616     0.0598     1.2707 H       
  28 H28           -3.2672    -1.7205     1.9308 H       
  29 H29           -3.6790    -4.1436     2.0581 H       
  30 H30           -0.0350    -4.8761    -0.0496 H       
  31 H31            0.3731    -2.4531    -0.1892 H       
  32 H32           -1.0499    -6.6293    -0.5739 H       
  33 H33           -0.1693    -6.6969     0.9715 H       
  34 H34           -0.7725    -8.9707     0.2937 H       
  35 H35           -1.7287    -8.5170     1.7249 H       
  36 H36           -1.8227    -9.1639    -1.8428 H       
  37 H37           -3.5039    -8.6212    -2.0607 H       
  38 H38           -2.2166    -7.4301    -1.7567 H       
  39 H39           -3.5887    -9.9115     1.3166 H       
  40 H40           -4.2816   -10.0276    -0.3188 H       
  41 H41           -2.6460   -10.6527     0.0013 H       
@<TRIPOS>BOND
   1    1    2 1
   2    1    4 2
   3    1    5 1
   4    2    3 1
   5    2    6 1
   6    2    7 1
   7    3   20 1
   8    3   21 1
   9    3   22 1
  10    5   23 1
  11    6   24 1
  12    6   25 1
  13    6   26 1
  14    7    8 1
  15    7   27 1
  16    8    9 ar
  17    8   13 ar
  18    9   10 ar
  19    9   28 1
  20   10   11 ar
  21   10   29 1
  22   11   12 ar
  23   11   14 1
  24   12   13 ar
  25   12   30 1
  26   13   31 1
  27   14   15 1
  28   15   16 1
  29   15   32 1
  30   15   33 1
  31   16   17 1
  32   16   34 1
  33   16   35 1
  34   17   18 1
  35   17   19 1
  36   18   36 1
  37   18   37 1
  38   18   38 1
  39   19   39 1
  40   19   40 1
  41   19   41 1

#	End of record

