#	Name: ASD05730076
#	Creating user name:	WinNT
#	Creation time:	15. 06. 2019 21:02

#	Modifying user name:	WinNT
#	Modification time:	15. 06. 2019 21:02

#	Program:	/corina/corina34_cracker 3.40 0067  02.08.2006

@<TRIPOS>MOLECULE
ASD05730076
  94   99    0    0    0
SMALL
NO_CHARGES


@<TRIPOS>ATOM
   1 C1            -0.0665     1.5018     0.0204 C.3     
   2 C2            -0.0333    -0.0047     0.0094 C.ar    
   3 C3            -0.5148    -0.7133     1.0950 C.ar    
   4 C4            -0.4858    -2.0941     1.0882 C.ar    
   5 C5             0.0273    -2.7710    -0.0109 C.ar    
   6 C6             0.5097    -2.0562    -1.0998 C.ar    
   7 C7             0.4734    -0.6756    -1.0885 C.ar    
   8 N8             0.0586    -4.1686    -0.0209 N.pl3   
   9 C9             0.2874    -4.8629     1.1515 C.ar    
  10 N10            0.2007    -6.1842     1.1376 N.ar    
  11 C11            0.4139    -6.8861     2.2449 C.ar    
  12 C12            0.7341    -6.1959     3.4341 C.ar    
  13 C13            0.8138    -4.7956     3.3967 C.ar    
  14 N14            0.5915    -4.1807     2.2502 N.ar    
  15 N15            0.3257    -8.2553     2.2397 N.am    
  16 C16            0.5421    -8.9620     3.3657 C.2     
  17 C17            0.8762    -8.2771     4.6162 C.2     
  18 C18            0.9677    -6.9110     4.6307 C.2     
  19 C19           -0.0076    -8.9557     0.9969 C.3     
  20 C20            1.1315    -9.9087     0.6275 C.3     
  21 O21            0.4590   -10.1771     3.3439 O.2     
  22 C22            1.1141    -9.0554     5.8543 C.ar    
  23 O23            1.0815     2.0098    -0.6647 O.3     
  24 C24            0.0413    -9.6205     6.5428 C.ar    
  25 C25            2.6276    -9.9562     7.4861 C.ar    
  26 C26            1.5585   -10.5098     8.1681 C.ar    
  27 C27            0.2691   -10.3443     7.6955 C.ar    
  28 C28            2.4125    -9.2305     6.3327 C.ar    
  29 C29            3.5780    -8.6287     5.5908 C.3     
  30 S30            1.8414   -11.4353     9.6405 S.o     
  31 O31            3.1864   -11.8690     9.4921 O.2     
  32 C32            1.7532   -10.1724    10.9397 C.3     
  33 C33            1.9822   -10.8268    12.3035 C.3     
  34 N34            1.9108    -9.8040    13.3556 N.3     
  35 C35            0.5550    -9.2480    13.4581 C.3     
  36 C36           -1.3336     1.9904    -0.6865 C.3     
  37 N37           -1.3227     3.4595    -0.7408 N.3     
  38 C38           -0.1304     3.9457    -1.4502 C.3     
  39 C39            1.1246     3.4376    -0.7357 C.3     
  40 C40           -2.5509     3.9724    -1.3624 C.3     
  41 C41           -1.2992    -9.7530     1.1917 C.3     
  42 C42           -1.6632   -10.4562    -0.1198 C.3     
  43 N43           -0.5162   -11.2631    -0.5579 N.am    
  44 C44            0.7950   -10.6136    -0.6904 C.3     
  45 S45           -0.6977   -12.8741    -0.8956 S.o2    
  46 C46           -1.1110   -12.9228    -2.6612 C.3     
  47 O47            0.5917   -13.4269    -0.6698 O.2     
  48 O48           -1.8134   -13.2730    -0.1111 O.2     
  49 C49            2.3570   -10.3447    14.6466 C.3     
  50 H50           -0.0638     1.8585     1.0504 H       
  51 H51           -0.9136    -0.1864     1.9492 H       
  52 H52           -0.8614    -2.6469     1.9365 H       
  53 H53            0.9093    -2.5795    -1.9559 H       
  54 H54            0.8483    -0.1192    -1.9348 H       
  55 H55           -0.0804    -4.6509    -0.8509 H       
  56 H56            1.0562    -4.2331     4.2862 H       
  57 H57            1.2133    -6.3877     5.5430 H       
  58 H58           -0.1469    -8.2289     0.1966 H       
  59 H59            2.0560    -9.3431     0.5118 H       
  60 H60            1.2548   -10.6511     1.4160 H       
  61 H61           -0.9659    -9.4917     6.1749 H       
  62 H62            3.6322   -10.0885     7.8601 H       
  63 H63           -0.5610   -10.7822     8.2298 H       
  64 H64            3.7698    -7.6244     5.9687 H       
  65 H65            4.4625    -9.2480     5.7399 H       
  66 H66            3.3448    -8.5783     4.5272 H       
  67 H67            2.5201    -9.4177    10.7654 H       
  68 H68            0.7701    -9.7019    10.9229 H       
  69 H69            1.2153   -11.5815    12.4778 H       
  70 H70            2.9654   -11.2972    12.3203 H       
  71 H71           -0.1478   -10.0459    13.6980 H       
  72 H72            0.5302    -8.4934    14.2442 H       
  73 H73            0.2765    -8.7921    12.5080 H       
  74 H74           -1.3630     1.5890    -1.6994 H       
  75 H75           -2.2111     1.6531    -0.1349 H       
  76 H76           -0.1406     3.5756    -2.4754 H       
  77 H77           -0.1297     5.0357    -1.4562 H       
  78 H78            1.1623     3.8511     0.2721 H       
  79 H79            2.0101     3.7479    -1.2904 H       
  80 H80           -3.4145     3.6506    -0.7804 H       
  81 H81           -2.5167     5.0616    -1.3899 H       
  82 H82           -2.6328     3.5858    -2.3782 H       
  83 H83           -1.1530   -10.4969     1.9748 H       
  84 H84           -2.1047    -9.0766     1.4775 H       
  85 H85           -2.5256   -11.1034     0.0397 H       
  86 H86           -1.8982    -9.7117    -0.8805 H       
  87 H87            0.7606    -9.8820    -1.4976 H       
  88 H88            1.5546   -11.3646    -0.9073 H       
  89 H89           -0.3006   -12.4752    -3.2365 H       
  90 H90           -1.2498   -13.9578    -2.9735 H       
  91 H91           -2.0310   -12.3645    -2.8345 H       
  92 H92            3.3886   -10.6860    14.5605 H       
  93 H93            2.2941    -9.5668    15.4075 H       
  94 H94            1.7196   -11.1823    14.9296 H       
@<TRIPOS>BOND
   1    1    2 1
   2    1   36 1
   3    1   23 1
   4    1   50 1
   5    2    3 ar
   6    2    7 ar
   7    3    4 ar
   8    3   51 1
   9    4    5 ar
  10    4   52 1
  11    5    6 ar
  12    5    8 1
  13    6    7 ar
  14    6   53 1
  15    7   54 1
  16    8    9 1
  17    8   55 1
  18    9   10 ar
  19    9   14 ar
  20   10   11 ar
  21   11   12 ar
  22   11   15 1
  23   12   13 ar
  24   12   18 1
  25   13   14 ar
  26   13   56 1
  27   15   16 am
  28   15   19 1
  29   16   17 1
  30   16   21 2
  31   17   18 2
  32   17   22 1
  33   18   57 1
  34   19   20 1
  35   19   41 1
  36   19   58 1
  37   20   44 1
  38   20   59 1
  39   20   60 1
  40   22   28 ar
  41   22   24 ar
  42   23   39 1
  43   24   27 ar
  44   24   61 1
  45   25   26 ar
  46   25   28 ar
  47   25   62 1
  48   26   27 ar
  49   26   30 1
  50   27   63 1
  51   28   29 1
  52   29   64 1
  53   29   65 1
  54   29   66 1
  55   30   31 2
  56   30   32 1
  57   32   33 1
  58   32   67 1
  59   32   68 1
  60   33   34 1
  61   33   69 1
  62   33   70 1
  63   34   35 1
  64   34   49 1
  65   35   71 1
  66   35   72 1
  67   35   73 1
  68   36   37 1
  69   36   74 1
  70   36   75 1
  71   37   38 1
  72   37   40 1
  73   38   39 1
  74   38   76 1
  75   38   77 1
  76   39   78 1
  77   39   79 1
  78   40   80 1
  79   40   81 1
  80   40   82 1
  81   41   42 1
  82   41   83 1
  83   41   84 1
  84   42   43 1
  85   42   85 1
  86   42   86 1
  87   43   44 1
  88   43   45 am
  89   44   87 1
  90   44   88 1
  91   45   46 1
  92   45   47 2
  93   45   48 2
  94   46   89 1
  95   46   90 1
  96   46   91 1
  97   49   92 1
  98   49   93 1
  99   49   94 1

#	End of record

