#	Name: ASD00843583
#	Creating user name:	WinNT
#	Creation time:	15. 06. 2019 18:47

#	Modifying user name:	WinNT
#	Modification time:	15. 06. 2019 18:47

#	Program:	/corina/corina34_cracker 3.40 0067  02.08.2006

@<TRIPOS>MOLECULE
ASD00843583
  83   88    0    0    0
SMALL
NO_CHARGES


@<TRIPOS>ATOM
   1 F1             5.7384    -2.5321    -1.8761 F       
   2 N2             0.9964     1.0774    -0.1903 N.ar    
   3 C3             1.1498    -0.2012    -0.4915 C.ar    
   4 C4             0.9696    -1.1826     0.4750 C.ar    
   5 C5             0.6265    -0.8056     1.7615 C.ar    
   6 C6             0.4749     0.5466     2.0370 C.ar    
   7 C7             0.6696     1.4676     1.0272 C.ar    
   8 C8             1.1450    -2.6383     0.1271 C.3     
   9 C9             0.7578    -3.5142     1.2995 C.2     
  10 C10            0.3147    -2.9968    -1.1070 C.3     
  11 C11           -1.1243    -2.6157    -0.8724 C.2     
  12 N12           -2.0645    -2.9414    -1.7814 N.am    
  13 O13           -1.4363    -2.0158     0.1345 O.2     
  14 C14           -3.4537    -2.4833    -1.6280 C.3     
  15 C15           -3.8955    -1.8214    -2.9375 C.3     
  16 N16           -3.6672    -2.7497    -4.0530 N.3     
  17 C17           -2.2383    -3.0521    -4.2106 C.3     
  18 C18           -1.7273    -3.7593    -2.9564 C.3     
  19 C19           -4.2345    -2.2224    -5.3012 C.3     
  20 C20           -3.8706    -3.1526    -6.4617 C.3     
  21 C21           -4.5150    -2.6313    -7.7482 C.3     
  22 N22           -5.9728    -2.5768    -7.5797 N.3     
  23 C23           -6.3485    -1.6531    -6.5017 C.3     
  24 C24           -5.7588    -2.1452    -5.1780 C.3     
  25 C25           -6.6351    -2.2128    -8.8394 C.3     
  26 O26           -0.3356    -3.5784     1.8206 O.2     
  27 N27            1.8527    -4.2076     1.6542 N.am    
  28 C28            2.6048    -2.9556    -0.1029 C.ar    
  29 C29            2.9539    -3.9032     0.8512 C.ar    
  30 C30            3.5297    -2.4961    -1.0134 C.ar    
  31 C31            4.8277    -2.9799    -0.9843 C.ar    
  32 C32            5.1885    -3.9259    -0.0367 C.ar    
  33 C33            4.2599    -4.3868     0.8767 C.ar    
  34 F34            6.4536    -4.3991    -0.0066 F       
  35 C35            1.4698    -6.8713     2.2306 C.ar    
  36 C36            2.4604    -7.7034     1.7436 C.ar    
  37 C37            0.1485    -7.2764     2.1970 C.ar    
  38 C38           -0.1821    -8.5136     1.6766 C.ar    
  39 C39            0.8085    -9.3456     1.1894 C.ar    
  40 C40            2.1298    -8.9405     1.2228 C.ar    
  41 H41            0.5502   -10.3123     0.7828 H       
  42 H42            3.4927    -7.3869     1.7698 H       
  43 S43            1.8919    -5.2973     2.9005 S.o2    
  44 O44            3.2490    -5.3873     3.3123 O.2     
  45 O45            0.8350    -4.9390     3.7801 O.2     
  46 O46            1.4859    -0.5578    -1.7567 O.3     
  47 C47            1.6096     0.4941    -2.7161 C.3     
  48 C48            2.0922    -0.0844    -4.0477 C.3     
  49 F49            3.2934    -0.7734    -3.8488 F       
  50 F50            1.1278    -0.9641    -4.5509 F       
  51 H51            0.4795    -1.5464     2.5335 H       
  52 H52            0.2073     0.8746     3.0306 H       
  53 H53            0.5533     2.5207     1.2364 H       
  54 H54            0.6975    -2.4556    -1.9723 H       
  55 H55            0.3812    -4.0692    -1.2907 H       
  56 H56           -4.0985    -3.3353    -1.4126 H       
  57 H57           -3.5131    -1.7605    -0.8142 H       
  58 H58           -4.9557    -1.5747    -2.8808 H       
  59 H59           -3.3179    -0.9110    -3.0979 H       
  60 H60           -2.0967    -3.6979    -5.0772 H       
  61 H61           -1.6838    -2.1246    -4.3532 H       
  62 H62           -0.6462    -3.8828    -3.0205 H       
  63 H63           -2.2053    -4.7346    -2.8656 H       
  64 H64           -3.8327    -1.2273    -5.4922 H       
  65 H65           -2.7876    -3.1782    -6.5817 H       
  66 H66           -4.2380    -4.1572    -6.2519 H       
  67 H67           -4.1368    -1.6323    -7.9649 H       
  68 H68           -4.2696    -3.2994    -8.5738 H       
  69 H69           -5.9617    -0.6587    -6.7242 H       
  70 H70           -7.4347    -1.6107    -6.4219 H       
  71 H71           -6.1558    -3.1339    -4.9479 H       
  72 H72           -6.0248    -1.4511    -4.3807 H       
  73 H73           -6.3989    -2.9552    -9.6018 H       
  74 H74           -7.7138    -2.1796    -8.6864 H       
  75 H75           -6.2839    -1.2336    -9.1648 H       
  76 H76            3.2438    -1.7595    -1.7497 H       
  77 H77            4.5475    -5.1234     1.6124 H       
  78 H78           -0.6254    -6.6264     2.5777 H       
  79 H79           -1.2142    -8.8304     1.6511 H       
  80 H80            2.9037    -9.5907     0.8425 H       
  81 H81            0.6404     0.9724    -2.8577 H       
  82 H82            2.3291     1.2301    -2.3575 H       
  83 H83            2.2516     0.7258    -4.7593 H       
@<TRIPOS>BOND
   1    1   31 1
   2    2    3 ar
   3    2    7 ar
   4    3    4 ar
   5    3   46 1
   6    4    5 ar
   7    4    8 1
   8    5    6 ar
   9    5   51 1
  10    6    7 ar
  11    6   52 1
  12    7   53 1
  13    8    9 1
  14    8   10 1
  15    8   28 1
  16    9   26 2
  17    9   27 am
  18   10   11 1
  19   10   54 1
  20   10   55 1
  21   11   12 am
  22   11   13 2
  23   12   14 1
  24   12   18 1
  25   14   15 1
  26   14   56 1
  27   14   57 1
  28   15   16 1
  29   15   58 1
  30   15   59 1
  31   16   17 1
  32   16   19 1
  33   17   18 1
  34   17   60 1
  35   17   61 1
  36   18   62 1
  37   18   63 1
  38   19   20 1
  39   19   24 1
  40   19   64 1
  41   20   21 1
  42   20   65 1
  43   20   66 1
  44   21   22 1
  45   21   67 1
  46   21   68 1
  47   22   23 1
  48   22   25 1
  49   23   24 1
  50   23   69 1
  51   23   70 1
  52   24   71 1
  53   24   72 1
  54   25   73 1
  55   25   74 1
  56   25   75 1
  57   27   43 am
  58   27   29 1
  59   28   29 ar
  60   28   30 ar
  61   29   33 ar
  62   30   31 ar
  63   30   76 1
  64   31   32 ar
  65   32   33 ar
  66   32   34 1
  67   33   77 1
  68   35   36 ar
  69   35   37 ar
  70   35   43 1
  71   36   42 1
  72   36   40 ar
  73   37   38 ar
  74   37   78 1
  75   38   39 ar
  76   38   79 1
  77   39   40 ar
  78   39   41 1
  79   40   80 1
  80   43   44 2
  81   43   45 2
  82   46   47 1
  83   47   48 1
  84   47   81 1
  85   47   82 1
  86   48   49 1
  87   48   50 1
  88   48   83 1

#	End of record

