#	Name: ASD00520004
#	Creating user name:	WinNT
#	Creation time:	15. 06. 2019 18:36

#	Modifying user name:	WinNT
#	Modification time:	15. 06. 2019 18:36

#	Program:	/corina/corina34_cracker 3.40 0067  02.08.2006

@<TRIPOS>MOLECULE
ASD00520004
  36   39    0    0    0
SMALL
NO_CHARGES


@<TRIPOS>ATOM
   1 C1            -0.0128     1.3650    -0.0971 C.ar    
   2 C2             0.0058    -0.0034    -0.1065 C.ar    
   3 C3             1.2481    -0.6740    -0.0135 C.ar    
   4 N4             2.3898     0.0284     0.0824 N.ar    
   5 C5             2.3834     1.3428     0.0923 C.ar    
   6 C6             1.1940     2.0515     0.0038 C.ar    
   7 C7             1.2878    -2.0619    -0.0208 C.2     
   8 N8             0.2592    -2.7544     0.0775 N.3     
   9 Cu9            0.7428    -4.2739     0.4192 Du      
  10 N10            2.2577    -4.2636    -0.0473 N.pl3   
  11 C11            2.5681    -2.8203    -0.1537 C.3     
  12 C12            3.1378    -5.2606    -0.3786 C.2     
  13 C13            3.9899    -4.9550    -1.3897 C.2     
  14 C14            3.8854    -3.6449    -2.0431 C.2     
  15 C15            3.2292    -2.6281    -1.4959 C.2     
  16 N16           -0.4240    -2.3627     1.1926 N.am    
  17 C17           -0.2089    -2.8871     2.3924 C.2     
  18 S18            0.6757    -4.1820     2.3383 S.o     
  19 S19           -0.8480    -2.2034     3.8852 S.3     
  20 C20           -0.2252    -3.3403     5.1542 C.3     
  21 Br21          -0.3656    -5.7222    -0.4016 Br      
  22 H22           -0.9466     1.9026    -0.1712 H       
  23 H23           -0.9145    -0.5633    -0.1834 H       
  24 H24            3.3177     1.8789     0.1705 H       
  25 H25            1.2044     3.1314     0.0132 H       
  26 H26           -0.3032    -2.7155    -0.7594 H       
  27 H27            3.2498    -2.5283     0.6451 H       
  28 H28            3.1523    -6.2154     0.1261 H       
  29 H29            4.7363    -5.6671    -1.7094 H       
  30 H30            4.3555    -3.5029    -3.0050 H       
  31 H31            3.1736    -1.6755    -2.0017 H       
  32 H32           -1.0969    -1.6697     1.1039 H       
  33 H33           -0.1946    -5.1565     2.6577 H       
  34 H34            0.8645    -3.3495     5.1305 H       
  35 H35           -0.5645    -3.0101     6.1360 H       
  36 H36           -0.6014    -4.3445     4.9586 H       
@<TRIPOS>BOND
   1    1    2 ar
   2    1    6 ar
   3    1   22 1
   4    2    3 ar
   5    2   23 1
   6    3    4 ar
   7    3    7 1
   8    4    5 ar
   9    5    6 ar
  10    5   24 1
  11    6   25 1
  12    7    8 2
  13    7   11 1
  14    8    9 1
  15    8   16 1
  16    8   26 1
  17    9   10 1
  18    9   21 1
  19    9   18 1
  20   10   11 1
  21   10   12 1
  22   11   15 1
  23   11   27 1
  24   12   13 2
  25   12   28 1
  26   13   14 1
  27   13   29 1
  28   14   15 2
  29   14   30 1
  30   15   31 1
  31   16   17 am
  32   16   32 1
  33   17   18 2
  34   17   19 1
  35   18   33 1
  36   19   20 1
  37   20   34 1
  38   20   35 1
  39   20   36 1

#	End of record

