#	Name: ASD01148641
#	Creating user name:	WinNT
#	Creation time:	15. 06. 2019 19:02

#	Modifying user name:	WinNT
#	Modification time:	15. 06. 2019 19:02

#	Program:	/corina/corina34_cracker 3.40 0067  02.08.2006

@<TRIPOS>MOLECULE
ASD01148641
  55   58    0    0    0
SMALL
NO_CHARGES


@<TRIPOS>ATOM
   1 C1            -0.0169     1.4355    -0.0251 C.ar    
   2 C2             0.0192     0.0536    -0.0358 C.ar    
   3 C3            -1.1593    -0.6687    -0.0207 C.ar    
   4 C4            -2.3740    -0.0092     0.0055 C.ar    
   5 C5            -2.4101     1.3726     0.0171 C.ar    
   6 C6            -1.2315     2.0949     0.0064 C.ar    
   7 C7            -3.7342     2.0916     0.0451 C.3     
   8 O8            -4.7238     1.3227     0.7585 O.3     
   9 C9            -3.6498     3.3741     0.9067 C.3     
  10 C10           -4.1236     2.8912     2.2643 C.2     
  11 N11           -4.7055     1.7481     2.1068 N.2     
  12 C12           -3.9497     3.6024     3.5424 C.ar    
  13 C13           -4.4574     3.0206     4.7825 C.ar    
  14 C14           -3.2974     4.8271     3.5772 C.ar    
  15 C15           -3.1202     5.5168     4.7636 C.ar    
  16 C16           -3.5870     5.0138     5.9700 C.ar    
  17 C17           -4.2762     3.7261     5.9957 C.ar    
  18 C18           -3.3834     5.7715     7.2183 C.2     
  19 O19           -3.8851     5.3814     8.2550 O.2     
  20 N20           -2.6413     6.8965     7.2103 N.am    
  21 C21           -4.7634     3.1800     7.1899 C.ar    
  22 C22           -5.1162     1.7846     4.7956 C.ar    
  23 C23           -4.2092     2.4140    -1.3731 C.3     
  24 F24           -4.3419     1.2270    -2.1016 F       
  25 F25           -5.4458     3.0655    -1.3139 F       
  26 F26           -3.2742     3.2442    -2.0006 F       
  27 C27           -2.4389     7.6493     8.4506 C.3     
  28 C28           -5.5738     1.2781     5.9757 C.ar    
  29 C29           -5.4004     1.9748     7.1686 C.ar    
  30 C30            1.2678     2.2229    -0.0416 C.3     
  31 F31            2.3544     1.3421    -0.0668 F       
  32 F32            1.3012     3.0372    -1.1788 F       
  33 F33            1.3406     3.0206     1.1054 F       
  34 C34           -1.5663     8.8738     8.1675 C.3     
  35 F35           -2.2001     9.6901     7.2246 F       
  36 F36           -1.3731     9.5927     9.3520 F       
  37 F37           -0.3278     8.4580     7.6670 F       
  38 C38           -1.1200    -2.1751    -0.0333 C.3     
  39 F39            0.2105    -2.6067    -0.0602 F       
  40 F40           -1.7468    -2.6676     1.1163 F       
  41 F41           -1.7871    -2.6496    -1.1678 F       
  42 H42            0.9681    -0.4616    -0.0563 H       
  43 H43           -3.2947    -0.5736     0.0165 H       
  44 H44           -1.2597     3.1745     0.0154 H       
  45 H45           -2.6232     3.7365     0.9615 H       
  46 H46           -4.3134     4.1461     0.5173 H       
  47 H47           -2.9197     5.2507     2.6584 H       
  48 H48           -2.6071     6.4670     4.7506 H       
  49 H49           -2.2410     7.2076     6.3833 H       
  50 H50           -4.6349     3.7102     8.1220 H       
  51 H51           -5.2612     1.2364     3.8765 H       
  52 H52           -3.4039     7.9732     8.8406 H       
  53 H53           -1.9452     7.0133     9.1853 H       
  54 H54           -6.0817     0.3250     5.9848 H       
  55 H55           -5.7757     1.5546     8.0900 H       
@<TRIPOS>BOND
   1    1    2 ar
   2    1   30 1
   3    1    6 ar
   4    2    3 ar
   5    2   42 1
   6    3    4 ar
   7    3   38 1
   8    4    5 ar
   9    4   43 1
  10    5    6 ar
  11    5    7 1
  12    6   44 1
  13    7    8 1
  14    7    9 1
  15    7   23 1
  16    8   11 1
  17    9   10 1
  18    9   45 1
  19    9   46 1
  20   10   11 2
  21   10   12 1
  22   12   13 ar
  23   12   14 ar
  24   13   22 ar
  25   13   17 ar
  26   14   15 ar
  27   14   47 1
  28   15   16 ar
  29   15   48 1
  30   16   17 ar
  31   16   18 1
  32   17   21 ar
  33   18   19 2
  34   18   20 am
  35   20   27 1
  36   20   49 1
  37   21   29 ar
  38   21   50 1
  39   22   28 ar
  40   22   51 1
  41   23   24 1
  42   23   25 1
  43   23   26 1
  44   27   34 1
  45   27   52 1
  46   27   53 1
  47   28   29 ar
  48   28   54 1
  49   29   55 1
  50   30   31 1
  51   30   32 1
  52   30   33 1
  53   34   35 1
  54   34   36 1
  55   34   37 1
  56   38   39 1
  57   38   40 1
  58   38   41 1

#	End of record

