#	Name: ASD04880715
#	Creating user name:	WinNT
#	Creation time:	15. 06. 2019 20:53

#	Modifying user name:	WinNT
#	Modification time:	15. 06. 2019 20:53

#	Program:	/corina/corina34_cracker 3.40 0067  02.08.2006

@<TRIPOS>MOLECULE
ASD04880715
  86   91    0    0    0
SMALL
NO_CHARGES


@<TRIPOS>ATOM
   1 C1             0.6058     0.8000     2.2333 C.ar    
   2 C2             0.7504    -0.5595     2.0363 C.ar    
   3 C3             1.3576    -1.0324     0.8877 C.ar    
   4 C4             1.8222    -0.1468    -0.0676 C.ar    
   5 C5             1.6804     1.2135     0.1227 C.ar    
   6 C6             1.0708     1.6922     1.2757 C.ar    
   7 N7             0.9258     3.0675     1.4715 N.3     
   8 C8             0.0381     3.6531     0.4572 C.3     
   9 C9            -0.1577     5.1420     0.7529 C.3     
  10 N10            1.1491     5.8141     0.7563 N.3     
  11 C11            2.0368     5.2285     1.7706 C.3     
  12 C12            2.2326     3.7397     1.4748 C.3     
  13 C13            1.0046     7.1853     0.9514 C.ar    
  14 C14            1.4846     7.7752     2.1151 C.ar    
  15 C15            1.3442     9.1310     2.3121 C.ar    
  16 C16            0.7181     9.9182     1.3416 C.ar    
  17 C17            0.2345     9.3275     0.1707 C.ar    
  18 C18            0.3822     7.9674    -0.0254 C.ar    
  19 C19           -0.0613     1.3145     3.4828 C.3     
  20 N20           -0.0963     7.3723    -1.2002 N.am    
  21 C21           -1.2125     7.8455    -1.7889 C.2     
  22 C22           -1.7746     7.1563    -2.9644 C.2     
  23 C23           -2.8886     7.5179    -3.6577 C.2     
  24 O24           -3.0413     6.6233    -4.6472 O.3     
  25 C25           -2.0437     5.7318    -4.5641 C.2     
  26 N26           -1.2741     6.0423    -3.5643 N.2     
  27 O27           -1.7561     8.8413    -1.3503 O.2     
  28 C28            0.5673    11.3704     1.5530 C.2     
  29 C29            1.8656     9.7663     3.5752 C.3     
  30 O30            1.0467    11.8941     2.5401 O.2     
  31 N31           -0.1018    12.1167     0.6519 N.am    
  32 C32           -0.2515    13.5588     0.8619 C.3     
  33 C33           -1.0455    14.1633    -0.2979 C.3     
  34 C34           -1.2018    15.6694    -0.0787 C.3     
  35 N35           -1.9621    16.2482    -1.1892 N.am    
  36 C36           -3.4236    16.3803    -1.2123 C.3     
  37 C37           -3.7927    16.6170    -2.6936 C.3     
  38 C38           -2.4891    17.2369    -3.2481 C.3     
  39 C39           -1.4102    16.7318    -2.3155 C.2     
  40 O40           -0.2208    16.7572    -2.5508 O.2     
  41 C41           -1.8427     4.5587    -5.4885 C.3     
  42 C42           -2.9614     3.5175    -5.5621 C.3     
  43 C43           -2.7319     4.4778    -6.7309 C.3     
  44 C44            0.7036    10.0121     4.5397 C.3     
  45 H45            0.3891    -1.2537     2.7805 H       
  46 H46            1.4697    -2.0959     0.7364 H       
  47 H47            2.2966    -0.5195    -0.9633 H       
  48 H48            2.0437     1.9046    -0.6235 H       
  49 H49            0.4853     3.5342    -0.5297 H       
  50 H50           -0.9270     3.1473     0.4829 H       
  51 H51           -0.7924     5.5848    -0.0146 H       
  52 H52           -0.6298     5.2600     1.7283 H       
  53 H53            3.0019     5.7344     1.7449 H       
  54 H54            1.5896     5.3475     2.7575 H       
  55 H55            2.8673     3.2968     2.2424 H       
  56 H56            2.7047     3.6217     0.4995 H       
  57 H57            1.9685     7.1689     2.8666 H       
  58 H58           -0.2497     9.9333    -0.5810 H       
  59 H59            0.6737     1.3840     4.2848 H       
  60 H60           -0.4829     2.3009     3.2898 H       
  61 H61           -0.8571     0.6305     3.7777 H       
  62 H62            0.3757     6.6197    -1.5897 H       
  63 H63           -3.5283     8.3632    -3.4509 H       
  64 H64            2.5918     9.1017     4.0432 H       
  65 H65            2.3443    10.7153     3.3338 H       
  66 H66           -0.4843    11.6989    -0.1355 H       
  67 H67           -0.7822    13.7367     1.7972 H       
  68 H68            0.7334    14.0233     0.9090 H       
  69 H69           -0.5148    13.9855    -1.2333 H       
  70 H70           -2.0305    13.6988    -0.3451 H       
  71 H71           -1.7326    15.8473     0.8566 H       
  72 H72           -0.2169    16.1339    -0.0316 H       
  73 H73           -3.8908    15.4651    -0.8488 H       
  74 H74           -3.7351    17.2304    -0.6054 H       
  75 H75           -4.0207    15.6759    -3.1940 H       
  76 H76           -4.6248    17.3155    -2.7814 H       
  77 H77           -2.3073    16.8948    -4.2669 H       
  78 H78           -2.5393    18.3252    -3.2133 H       
  79 H79           -0.8166     4.2023    -5.5794 H       
  80 H80           -2.6713     2.4762    -5.7019 H       
  81 H81           -3.8428     3.6811    -4.9420 H       
  82 H82           -3.4623     5.2731    -6.8798 H       
  83 H83           -2.2908     4.0682    -7.6397 H       
  84 H84            1.0807    10.4716     5.4533 H       
  85 H85           -0.0226    10.6767     4.0717 H       
  86 H86            0.2248     9.0631     4.7811 H       
@<TRIPOS>BOND
   1    1    2 ar
   2    1    6 ar
   3    1   19 1
   4    2    3 ar
   5    2   45 1
   6    3    4 ar
   7    3   46 1
   8    4    5 ar
   9    4   47 1
  10    5    6 ar
  11    5   48 1
  12    6    7 1
  13    7    8 1
  14    7   12 1
  15    8    9 1
  16    8   49 1
  17    8   50 1
  18    9   10 1
  19    9   51 1
  20    9   52 1
  21   10   11 1
  22   10   13 1
  23   11   12 1
  24   11   53 1
  25   11   54 1
  26   12   55 1
  27   12   56 1
  28   13   14 ar
  29   13   18 ar
  30   14   15 ar
  31   14   57 1
  32   15   16 ar
  33   15   29 1
  34   16   17 ar
  35   16   28 1
  36   17   18 ar
  37   17   58 1
  38   18   20 1
  39   19   59 1
  40   19   60 1
  41   19   61 1
  42   20   21 am
  43   20   62 1
  44   21   22 1
  45   21   27 2
  46   22   23 2
  47   22   26 1
  48   23   24 1
  49   23   63 1
  50   24   25 1
  51   25   26 2
  52   25   41 1
  53   28   30 2
  54   28   31 am
  55   29   44 1
  56   29   64 1
  57   29   65 1
  58   31   32 1
  59   31   66 1
  60   32   33 1
  61   32   67 1
  62   32   68 1
  63   33   34 1
  64   33   69 1
  65   33   70 1
  66   34   35 1
  67   34   71 1
  68   34   72 1
  69   35   36 1
  70   35   39 am
  71   36   37 1
  72   36   73 1
  73   36   74 1
  74   37   38 1
  75   37   75 1
  76   37   76 1
  77   38   39 1
  78   38   77 1
  79   38   78 1
  80   39   40 2
  81   41   42 1
  82   41   43 1
  83   41   79 1
  84   42   43 1
  85   42   80 1
  86   42   81 1
  87   43   82 1
  88   43   83 1
  89   44   84 1
  90   44   85 1
  91   44   86 1

#	End of record

