#	Name: ASD01420052
#	Creating user name:	WinNT
#	Creation time:	15. 06. 2019 19:20

#	Modifying user name:	WinNT
#	Modification time:	15. 06. 2019 19:20

#	Program:	/corina/corina34_cracker 3.40 0067  02.08.2006

@<TRIPOS>MOLECULE
ASD01420052
  73   75    0    0    0
SMALL
NO_CHARGES


@<TRIPOS>ATOM
   1 C1            -0.0144     1.2120     0.0087 C.2     
   2 O2             0.1295     0.0133     0.1552 O.2     
   3 C3             1.0483     3.4383    -0.4768 C.3     
   4 N4             1.0607     2.0008    -0.1874 N.am    
   5 C5             2.4667     1.5859    -0.1516 C.3     
   6 C6             3.3113     2.8044    -0.4260 C.ar    
   7 C7             4.6843     2.9633    -0.5053 C.ar    
   8 C8             5.2236     4.2064    -0.7742 C.ar    
   9 C9             4.3911     5.2936    -0.9651 C.ar    
  10 C10            3.0210     5.1355    -0.8866 C.ar    
  11 C11            2.4800     3.8901    -0.6166 C.ar    
  12 C12            6.7184     4.3774    -0.8590 C.3     
  13 N13            7.1585     4.1592    -2.2435 N.3     
  14 C14            8.5655     4.5465    -2.4161 C.3     
  15 C15            9.0070     4.2304    -3.8471 C.3     
  16 N16            8.1452     4.9522    -4.7936 N.3     
  17 C17            6.7381     4.5649    -4.6209 C.3     
  18 C18            6.2966     4.8810    -3.1900 C.3     
  19 C19            8.5852     4.7340    -6.1780 C.3     
  20 C20           -1.3642     1.8010     0.0395 C.ar    
  21 C21           -2.2645     1.4465     1.0559 C.ar    
  22 C22           -3.5307     2.0050     1.0777 C.ar    
  23 C23           -3.9067     2.9113     0.0970 C.ar    
  24 C24           -3.0151     3.2637    -0.9114 C.ar    
  25 C25           -1.7517     2.7198    -0.9405 C.ar    
  26 C26           -3.4329     4.2492    -1.9722 C.3     
  27 C27           -2.5004     5.4617    -1.9376 C.3     
  28 C28           -3.3523     3.5831    -3.3473 C.3     
  29 O29           -5.1494     3.4562     0.1211 O.3     
  30 O30           -1.8953     0.5593     2.0135 O.3     
  31 H31            0.5100     3.6233    -1.4063 H       
  32 H32            0.5695     3.9758     0.3417 H       
  33 H33            2.7080     1.1830     0.8320 H       
  34 H34            2.6485     0.8305    -0.9161 H       
  35 H35            5.3349     2.1141    -0.3562 H       
  36 H36            4.8117     6.2659    -1.1750 H       
  37 H37            2.3709     5.9850    -1.0353 H       
  38 H38            6.9870     5.3867    -0.5472 H       
  39 H39            7.2047     3.6536    -0.2049 H       
  40 H40            8.6741     5.6149    -2.2297 H       
  41 H41            9.1849     3.9896    -1.7131 H       
  42 H42           10.0418     4.5436    -3.9859 H       
  43 H43            8.9242     3.1582    -4.0247 H       
  44 H44            6.1187     5.1219    -5.3240 H       
  45 H45            6.6295     3.4965    -4.8074 H       
  46 H46            5.2618     4.5679    -3.0511 H       
  47 H47            6.3794     5.9532    -3.0123 H       
  48 H48            8.5434     3.6696    -6.4091 H       
  49 H49            7.9303     5.2793    -6.8576 H       
  50 H50            9.6084     5.0913    -6.2946 H       
  51 H51           -4.2265     1.7348     1.8582 H       
  52 H52           -1.0610     2.9993    -1.7224 H       
  53 H53           -4.4567     4.5727    -1.7846 H       
  54 H54           -2.8026     6.1745    -2.7048 H       
  55 H55           -2.5578     5.9363    -0.9580 H       
  56 H56           -1.4766     5.1382    -2.1251 H       
  57 H57           -4.0166     2.7192    -3.3720 H       
  58 H58           -3.6545     4.2959    -4.1146 H       
  59 H59           -2.3285     3.2596    -3.5348 H       
  60 H60           -5.2087     4.2784     0.6267 H       
  61 H61           -1.4865     0.9659     2.7898 H       
  62 C62           16.6392    14.3879     8.6363 C.2     
  63 C63           16.6596    12.8810     8.6280 C.3     
  64 O64           18.0069    12.4236     8.4952 O.3     
  65 C65           16.0695    12.3558     9.9382 C.3     
  66 O66           17.6772    15.0062     8.6297 O.2     
  67 O67           15.4677    15.0431     8.6454 O.3     
  68 H68           16.0672    12.5142     7.7898 H       
  69 H69           18.5926    12.7130     9.2082 H       
  70 H70           15.0418    12.7046    10.0395 H       
  71 H71           16.0843    11.2659     9.9322 H       
  72 H72           16.6620    12.7226    10.7764 H       
  73 H73           15.5052    16.0094     8.6505 H       
@<TRIPOS>BOND
   1    1    2 2
   2    1    4 am
   3    1   20 1
   4    3    4 1
   5    3   11 1
   6    3   31 1
   7    3   32 1
   8    4    5 1
   9    5    6 1
  10    5   33 1
  11    5   34 1
  12    6    7 ar
  13    6   11 ar
  14    7    8 ar
  15    7   35 1
  16    8    9 ar
  17    8   12 1
  18    9   10 ar
  19    9   36 1
  20   10   11 ar
  21   10   37 1
  22   12   13 1
  23   12   38 1
  24   12   39 1
  25   13   14 1
  26   13   18 1
  27   14   15 1
  28   14   40 1
  29   14   41 1
  30   15   16 1
  31   15   42 1
  32   15   43 1
  33   16   17 1
  34   16   19 1
  35   17   18 1
  36   17   44 1
  37   17   45 1
  38   18   46 1
  39   18   47 1
  40   19   48 1
  41   19   49 1
  42   19   50 1
  43   20   21 ar
  44   20   25 ar
  45   21   22 ar
  46   21   30 1
  47   22   23 ar
  48   22   51 1
  49   23   24 ar
  50   23   29 1
  51   24   25 ar
  52   24   26 1
  53   25   52 1
  54   26   27 1
  55   26   28 1
  56   26   53 1
  57   27   54 1
  58   27   55 1
  59   27   56 1
  60   28   57 1
  61   28   58 1
  62   28   59 1
  63   29   60 1
  64   30   61 1
  65   62   63 1
  66   62   66 2
  67   62   67 1
  68   63   64 1
  69   63   65 1
  70   63   68 1
  71   64   69 1
  72   65   70 1
  73   65   71 1
  74   65   72 1
  75   67   73 1

#	End of record

