#	Name: ASD05490028
#	Creating user name:	WinNT
#	Creation time:	15. 06. 2019 21:00

#	Modifying user name:	WinNT
#	Modification time:	15. 06. 2019 21:00

#	Program:	/corina/corina34_cracker 3.40 0067  02.08.2006

@<TRIPOS>MOLECULE
ASD05490028
  69   73    0    0    0
SMALL
NO_CHARGES


@<TRIPOS>ATOM
   1 O1            -0.0173     1.4248     0.0099 O.3     
   2 N2             2.7241     5.3595     0.0030 N.pl3   
   3 N3             2.2883     1.3280    -0.0127 N.ar    
   4 C4             3.4877     1.9005    -0.0215 C.ar    
   5 C5             1.1818     2.0565     0.0018 C.ar    
   6 N6             1.2068     3.3779     0.0082 N.ar    
   7 C7             2.3634     4.0326     0.0003 C.ar    
   8 C8             3.5624     3.3026    -0.0151 C.ar    
   9 N9             4.6391     1.1308    -0.0361 N.pl3   
  10 C10            4.0899     5.4129    -0.0163 C.2     
  11 N11            4.5806     4.2015    -0.0210 N.2     
  12 C12            1.8119     6.5058     0.0175 C.3     
  13 C13            1.5133     6.8921     1.4432 C.ar    
  14 N14            1.0376     5.9860     2.2752 N.ar    
  15 C15            0.7606     6.2725     3.5310 C.ar    
  16 C16            0.9642     7.5584     4.0264 C.ar    
  17 C17            1.4674     8.5412     3.1695 C.ar    
  18 C18            1.7477     8.1898     1.8604 C.ar    
  19 C19            0.0021    -0.0041     0.0020 C.3     
  20 C20           -1.4333    -0.5336     0.0129 C.3     
  21 C21           -1.4126    -2.0635     0.0045 C.3     
  22 C22           -2.8479    -2.5931     0.0153 C.3     
  23 C23            0.6514     7.8797     5.4410 C.ar    
  24 C24            0.1496     6.8934     6.2876 C.ar    
  25 C25            0.8638     9.1675     5.9289 C.ar    
  26 C26            0.5716     9.4607     7.2456 C.ar    
  27 C27            0.0691     8.4789     8.0803 C.ar    
  28 C28           -0.1391     7.1976     7.6025 C.ar    
  29 C29           -0.2471     8.8048     9.5173 C.3     
  30 N30           -1.6394     9.2616     9.6208 N.3     
  31 C31           -2.0591     9.3625    11.0306 C.3     
  32 C32           -2.5353    10.8118    11.2633 C.3     
  33 C33           -2.8930    11.2960     9.8335 C.3     
  34 C34           -1.8120    10.5840     8.9825 C.3     
  35 O35            4.8243     6.5500    -0.0203 O.3     
  36 C36            6.2458     6.4042    -0.0300 C.3     
  37 H37            4.5753     0.1629    -0.0401 H       
  38 H38            5.5091     1.5596    -0.0425 H       
  39 H39            2.2770     7.3467    -0.4969 H       
  40 H40            0.8842     6.2383    -0.4884 H       
  41 H41            0.3720     5.5035     4.1821 H       
  42 H42            1.6368     9.5483     3.5208 H       
  43 H43            2.1380     8.9229     1.1700 H       
  44 H44            0.5123    -0.3556    -0.8948 H       
  45 H45            0.5293    -0.3651     0.8851 H       
  46 H46           -1.9435    -0.1821     0.9097 H       
  47 H47           -1.9605    -0.1726    -0.8702 H       
  48 H48           -0.9024    -2.4150    -0.8923 H       
  49 H49           -0.8854    -2.4246     0.8875 H       
  50 H50           -3.3581    -2.2415     0.9121 H       
  51 H51           -3.3751    -2.2320    -0.8677 H       
  52 H52           -2.8332    -3.6829     0.0093 H       
  53 H53           -0.0133     5.8927     5.9155 H       
  54 H54            1.2567     9.9346     5.2782 H       
  55 H55            0.7358    10.4585     7.6248 H       
  56 H56           -0.5320     6.4349     8.2585 H       
  57 H57           -0.1105     7.9140    10.1304 H       
  58 H58            0.4206     9.5923     9.8666 H       
  59 H59           -2.8763     8.6679    11.2249 H       
  60 H60           -1.2165     9.1394    11.6851 H       
  61 H61           -3.4143    10.8299    11.9075 H       
  62 H62           -1.7338    11.4176    11.6861 H       
  63 H63           -3.8927    10.9679     9.5488 H       
  64 H64           -2.8017    12.3792     9.7538 H       
  65 H65           -0.8772    11.1439     9.0107 H       
  66 H66           -2.1546    10.4672     7.9543 H       
  67 H67            6.5488     5.8567    -0.9224 H       
  68 H68            6.7121     7.3894    -0.0323 H       
  69 H69            6.5608     5.8553     0.8575 H       
@<TRIPOS>BOND
   1    1   19 1
   2    1    5 1
   3    2   12 1
   4    2    7 1
   5    2   10 1
   6    3    4 ar
   7    3    5 ar
   8    4    9 1
   9    4    8 ar
  10    5    6 ar
  11    6    7 ar
  12    7    8 ar
  13    8   11 1
  14    9   37 1
  15    9   38 1
  16   10   11 2
  17   10   35 1
  18   12   13 1
  19   12   39 1
  20   12   40 1
  21   13   14 ar
  22   13   18 ar
  23   14   15 ar
  24   15   16 ar
  25   15   41 1
  26   16   17 ar
  27   16   23 1
  28   17   18 ar
  29   17   42 1
  30   18   43 1
  31   19   20 1
  32   19   44 1
  33   19   45 1
  34   20   21 1
  35   20   46 1
  36   20   47 1
  37   21   22 1
  38   21   48 1
  39   21   49 1
  40   22   50 1
  41   22   51 1
  42   22   52 1
  43   23   24 ar
  44   23   25 ar
  45   24   28 ar
  46   24   53 1
  47   25   26 ar
  48   25   54 1
  49   26   27 ar
  50   26   55 1
  51   27   28 ar
  52   27   29 1
  53   28   56 1
  54   29   30 1
  55   29   57 1
  56   29   58 1
  57   30   31 1
  58   30   34 1
  59   31   32 1
  60   31   59 1
  61   31   60 1
  62   32   33 1
  63   32   61 1
  64   32   62 1
  65   33   34 1
  66   33   63 1
  67   33   64 1
  68   34   65 1
  69   34   66 1
  70   35   36 1
  71   36   67 1
  72   36   68 1
  73   36   69 1

#	End of record

