#	Name: ASD01912746
#	Creating user name:	WinNT
#	Creation time:	15. 06. 2019 20:00

#	Modifying user name:	WinNT
#	Modification time:	15. 06. 2019 20:00

#	Program:	/corina/corina34_cracker 3.40 0067  02.08.2006

@<TRIPOS>MOLECULE
ASD01912746
  37   40    0    0    0
SMALL
NO_CHARGES


@<TRIPOS>ATOM
   1 C1            -0.0165     1.3669     0.0096 C.2     
   2 N2             0.0021    -0.0041     0.0020 N.pl3   
   3 C3            -1.2025    -0.6923     0.0098 C.2     
   4 C4            -2.3629    -0.0504     0.0239 C.2     
   5 N5            -2.4359     1.3311     0.0320 N.am    
   6 C6            -1.3019     2.0670     0.0309 C.2     
   7 C7             1.3014     1.7837    -0.0008 C.2     
   8 C8             2.0550     0.6110    -0.0143 C.2     
   9 N9             1.2244    -0.4045    -0.0118 N.2     
  10 O10           -1.3487     3.2837     0.0379 O.2     
  11 C11           -3.6754     1.9625     0.0468 C.ar    
  12 C12            3.5594     0.5249    -0.0295 C.3     
  13 O13            4.1120     1.8427    -0.0282 O.3     
  14 C14            5.4672     1.9435    -0.0410 C.ar    
  15 C15            6.0711     3.1925    -0.0405 C.ar    
  16 C16            7.4489     3.2922    -0.0536 C.ar    
  17 C17            8.2259     2.1486    -0.0672 C.ar    
  18 C18            7.6265     0.9027    -0.0682 C.ar    
  19 C19            6.2491     0.7975    -0.0489 C.ar    
  20 N20           -4.7753     1.2257     0.0530 N.ar    
  21 C21           -5.9699     1.7933     0.0674 C.ar    
  22 C22           -4.8874     3.9180     0.0746 C.ar    
  23 N23           -3.7260     3.2854     0.0599 N.ar    
  24 C24           -6.0606     3.1776     0.0762 C.ar    
  25 Cl25          -7.6074     3.9655     0.0946 Cl      
  26 H26           -1.1950    -1.7722     0.0039 H       
  27 H27           -3.2784    -0.6233     0.0288 H       
  28 H28            1.6684     2.7994     0.0008 H       
  29 H29            3.9015    -0.0135     0.8543 H       
  30 H30            3.8840    -0.0043    -0.9255 H       
  31 H31            5.4646     4.0860    -0.0302 H       
  32 H32            7.9195     4.2643    -0.0536 H       
  33 H33            9.3029     2.2287    -0.0775 H       
  34 H34            8.2356     0.0109    -0.0796 H       
  35 H35            5.7814    -0.1759    -0.0496 H       
  36 H36           -6.8635     1.1867     0.0720 H       
  37 H37           -4.9221     4.9974     0.0848 H       
@<TRIPOS>BOND
   1    1    2 1
   2    1    7 2
   3    1    6 1
   4    2    3 1
   5    2    9 1
   6    3    4 2
   7    3   26 1
   8    4    5 1
   9    4   27 1
  10    5    6 am
  11    5   11 1
  12    6   10 2
  13    7    8 1
  14    7   28 1
  15    8    9 2
  16    8   12 1
  17   11   20 ar
  18   11   23 ar
  19   12   13 1
  20   12   29 1
  21   12   30 1
  22   13   14 1
  23   14   15 ar
  24   14   19 ar
  25   15   16 ar
  26   15   31 1
  27   16   17 ar
  28   16   32 1
  29   17   18 ar
  30   17   33 1
  31   18   19 ar
  32   18   34 1
  33   19   35 1
  34   20   21 ar
  35   21   24 ar
  36   21   36 1
  37   22   23 ar
  38   22   24 ar
  39   22   37 1
  40   24   25 1

#	End of record

