#	Name: ASD06020150
#	Creating user name:	WinNT
#	Creation time:	15. 06. 2019 21:04

#	Modifying user name:	WinNT
#	Modification time:	15. 06. 2019 21:04

#	Program:	/corina/corina34_cracker 3.40 0067  02.08.2006

@<TRIPOS>MOLECULE
ASD06020150
  23   25    0    0    0
SMALL
NO_CHARGES


@<TRIPOS>ATOM
   1 C1            -0.0168     1.3877     0.0097 C.ar    
   2 C2             0.0021    -0.0041     0.0020 C.ar    
   3 C3             1.2308    -0.6793    -0.0134 C.ar    
   4 C4             2.4020     0.1163    -0.0207 C.ar    
   5 C5             2.2889     1.4722    -0.0126 C.ar    
   6 N6             1.1095     2.0712     0.0026 N.ar    
   7 S7            -1.2873    -1.2022     0.0074 S.3     
   8 C8            -0.0975    -2.4975    -0.0112 C.2     
   9 N9             1.0989    -2.0065    -0.0197 N.2     
  10 C10           -0.4188    -3.9397    -0.0156 C.ar    
  11 C11           -1.7504    -4.3622    -0.0052 C.ar    
  12 C12           -2.0435    -5.7111    -0.0098 C.ar    
  13 C13           -1.0219    -6.6453    -0.0248 C.ar    
  14 C14            0.2993    -6.2353    -0.0348 C.ar    
  15 C15            0.6080    -4.8879    -0.0361 C.ar    
  16 I16           -1.4789    -8.6898    -0.0318 I       
  17 F17            1.8985    -4.4885    -0.0514 F       
  18 Cl18          -3.0338    -3.1933     0.0142 Cl      
  19 Cl19          -1.5353     2.2289     0.0214 Cl      
  20 H20            3.3766    -0.3489    -0.0321 H       
  21 H21            3.1851     2.0749    -0.0181 H       
  22 H22           -3.0726    -6.0387    -0.0014 H       
  23 H23            1.0913    -6.9696    -0.0457 H       
@<TRIPOS>BOND
   1    1    2 ar
   2    1    6 ar
   3    1   19 1
   4    2    3 ar
   5    2    7 1
   6    3    4 ar
   7    3    9 1
   8    4    5 ar
   9    4   20 1
  10    5    6 ar
  11    5   21 1
  12    7    8 1
  13    8    9 2
  14    8   10 1
  15   10   11 ar
  16   10   15 ar
  17   11   12 ar
  18   11   18 1
  19   12   13 ar
  20   12   22 1
  21   13   14 ar
  22   13   16 1
  23   14   15 ar
  24   14   23 1
  25   15   17 1

#	End of record

