#	Name: ASD08150113
#	Creating user name:	WinNT
#	Creation time:	15. 06. 2019 21:15

#	Modifying user name:	WinNT
#	Modification time:	15. 06. 2019 21:15

#	Program:	/corina/corina34_cracker 3.40 0067  02.08.2006

@<TRIPOS>MOLECULE
ASD08150113
  54   57    0    0    0
SMALL
NO_CHARGES


@<TRIPOS>ATOM
   1 O1             0.7705     1.5591     1.6888 O.3     
   2 C2             1.1740     0.2838     1.6968 C.2     
   3 N3             1.3200    -0.2463     0.4748 N.am    
   4 C4             0.9798     0.7729    -0.5299 C.3     
   5 C5             0.6043     2.0074     0.3124 C.3     
   6 O6             1.3889    -0.3371     2.7188 O.2     
   7 C7             3.4172    -3.0895    -0.1076 C.ar    
   8 N8             2.5529    -4.0672    -0.3295 N.ar    
   9 C9             1.2402    -3.8374    -0.2978 C.ar    
  10 C10            0.7851    -2.5476    -0.0267 C.ar    
  11 C11            1.7267    -1.5477     0.2010 C.ar    
  12 N12            3.0199    -1.8530     0.1528 N.ar    
  13 C13           -1.4618    -6.9262    -0.9988 C.ar    
  14 N14           -0.1624    -7.1858    -1.0375 N.ar    
  15 C15            0.7260    -6.2327    -0.8206 C.ar    
  16 C16            0.2783    -4.9370    -0.5477 C.ar    
  17 C17           -1.1002    -4.7046    -0.5159 C.ar    
  18 N18           -1.9252    -5.7105    -0.7433 N.ar    
  19 N19            4.7725    -3.3679    -0.1431 N.3     
  20 C20            5.0179    -4.8105    -0.0024 C.3     
  21 C21            6.5215    -5.0795    -0.1067 C.3     
  22 O22            7.2077    -4.3141     0.8875 O.3     
  23 C23            6.9914    -2.9045     0.7797 C.3     
  24 C24            5.4926    -2.6135     0.8930 C.3     
  25 N25           -2.3587    -7.9504    -1.2371 N.pl3   
  26 C26            2.2011    -6.5380    -0.8663 C.3     
  27 F27            2.3905    -7.8650    -1.2666 F       
  28 F28            2.8264    -5.6818    -1.7790 F       
  29 F29            2.7557    -6.3505     0.4043 F       
  30 C30            2.1879     1.0758    -1.4185 C.3     
  31 C31           -0.8478     2.4129     0.0520 C.3     
  32 O32            2.5177    -0.0999    -2.2042 O.3     
  33 C33            3.6038    -0.0231    -2.9893 C.2     
  34 O34            3.8757    -0.9340    -3.7350 O.2     
  35 H35            0.1317     0.4483    -1.1326 H       
  36 H36            1.2782     2.8366     0.0966 H       
  37 H37           -0.2722    -2.3295     0.0055 H       
  38 H38           -1.4846    -3.7170    -0.3081 H       
  39 H39            4.6541    -5.1487     0.9679 H       
  40 H40            4.4963    -5.3475    -0.7947 H       
  41 H41            6.7134    -6.1404     0.0539 H       
  42 H42            6.8750    -4.7909    -1.0966 H       
  43 H43            7.5233    -2.3923     1.5815 H       
  44 H44            7.3586    -2.5526    -0.1844 H       
  45 H45            5.3175    -1.5466     0.7544 H       
  46 H46            5.1365    -2.9165     1.8776 H       
  47 H47           -2.0343    -8.8441    -1.4293 H       
  48 H48           -3.3124    -7.7755    -1.2121 H       
  49 H49            1.9494     1.9038    -2.0861 H       
  50 H50            3.0395     1.3463    -0.7942 H       
  51 H51           -1.1165     3.2420     0.7066 H       
  52 H52           -0.9583     2.7204    -0.9878 H       
  53 H53           -1.5031     1.5651     0.2519 H       
  54 H54            4.2345     0.8529    -2.9544 H       
@<TRIPOS>BOND
   1    1    2 1
   2    1    5 1
   3    2    3 am
   4    2    6 2
   5    3    4 1
   6    3   11 1
   7    4    5 1
   8    4   30 1
   9    4   35 1
  10    5   31 1
  11    5   36 1
  12    7    8 ar
  13    7   12 ar
  14    7   19 1
  15    8    9 ar
  16    9   10 ar
  17    9   16 1
  18   10   11 ar
  19   10   37 1
  20   11   12 ar
  21   13   14 ar
  22   13   18 ar
  23   13   25 1
  24   14   15 ar
  25   15   16 ar
  26   15   26 1
  27   16   17 ar
  28   17   18 ar
  29   17   38 1
  30   19   20 1
  31   19   24 1
  32   20   21 1
  33   20   39 1
  34   20   40 1
  35   21   22 1
  36   21   41 1
  37   21   42 1
  38   22   23 1
  39   23   24 1
  40   23   43 1
  41   23   44 1
  42   24   45 1
  43   24   46 1
  44   25   47 1
  45   25   48 1
  46   26   27 1
  47   26   28 1
  48   26   29 1
  49   30   32 1
  50   30   49 1
  51   30   50 1
  52   31   51 1
  53   31   52 1
  54   31   53 1
  55   32   33 1
  56   33   34 2
  57   33   54 1

#	End of record

