#	Name: ASD01410366
#	Creating user name:	WinNT
#	Creation time:	15. 06. 2019 19:17

#	Modifying user name:	WinNT
#	Modification time:	15. 06. 2019 19:17

#	Program:	/corina/corina34_cracker 3.40 0067  02.08.2006

@<TRIPOS>MOLECULE
ASD01410366
  58   61    0    0    0
SMALL
NO_CHARGES


@<TRIPOS>ATOM
   1 N1            -0.0166     1.3704     0.0096 N.pl3   
   2 C2             0.0021    -0.0041     0.0020 C.2     
   3 C3             1.2887    -0.4360    -0.0126 C.2     
   4 C4             2.1282     0.7037    -0.0145 C.ar    
   5 C5             3.5207     0.8713    -0.0268 C.ar    
   6 C6             4.0562     2.1223    -0.0248 C.ar    
   7 C7             3.2236     3.2517    -0.0103 C.ar    
   8 C8             1.8376     3.1029     0.0021 C.ar    
   9 C9             1.2836     1.8325    -0.0004 C.ar    
  10 C10            3.8170     4.6011    -0.0078 C.2     
  11 O11            3.0983     5.5808     0.0047 O.2     
  12 O12            5.1566     4.7481    -0.0193 O.3     
  13 C13           -1.1925    -0.8755     0.0092 C.ar    
  14 C14           -2.2533    -0.6034     0.8742 C.ar    
  15 C15           -3.3652    -1.4202     0.8756 C.ar    
  16 C16           -3.4298    -2.5073     0.0222 C.ar    
  17 C17           -2.3816    -2.7826    -0.8378 C.ar    
  18 C18           -1.2665    -1.9704    -0.8532 C.ar    
  19 C19           -1.2191     2.2071     0.0201 C.3     
  20 C20           -1.6244     2.4863     1.4445 C.2     
  21 O21           -0.9729     2.0312     2.3606 O.2     
  22 S22           -3.1562     3.5485     3.2654 S.o2    
  23 O23           -4.3329     4.3362     3.1470 O.2     
  24 O24           -3.1912     2.2666     3.8775 O.2     
  25 N25           -2.7108     3.2417     1.7002 N.am    
  26 C26           -1.7929     4.5381     3.9383 C.3     
  27 C27            1.7426    -1.8730    -0.0246 C.3     
  28 C28            2.5720    -2.1353    -1.2833 C.3     
  29 C29            3.0329    -3.5942    -1.2955 C.3     
  30 C30            3.8861    -3.8699    -0.0558 C.3     
  31 C31            3.0567    -3.6076     1.2028 C.3     
  32 C32            2.5959    -2.1487     1.2151 C.3     
  33 H33            4.1682     0.0070    -0.0376 H       
  34 H34            5.1290     2.2467    -0.0340 H       
  35 H35            1.1985     3.9734     0.0139 H       
  36 H36            5.4990     5.6524    -0.0171 H       
  37 H37           -2.2038     0.2445     1.5414 H       
  38 H38           -4.1868    -1.2107     1.5445 H       
  39 H39           -4.3021    -3.1440     0.0277 H       
  40 H40           -2.4382    -3.6327    -1.5015 H       
  41 H41           -0.4508    -2.1837    -1.5282 H       
  42 H42           -1.0115     3.1480    -0.4897 H       
  43 H43           -2.0282     1.6869    -0.4926 H       
  44 H44           -3.2319     3.6058     0.9675 H       
  45 H45           -2.0042     4.7884     4.9779 H       
  46 H46           -0.8669     3.9657     3.8834 H       
  47 H47           -1.6883     5.4548     3.3578 H       
  48 H48            0.8722    -2.5290    -0.0198 H       
  49 H49            1.9642    -1.9388    -2.1664 H       
  50 H50            3.4425    -1.4792    -1.2880 H       
  51 H51            2.1624    -4.2502    -1.2907 H       
  52 H52            3.6238    -3.7810    -2.1922 H       
  53 H53            4.2144    -4.9092    -0.0645 H       
  54 H54            4.7566    -3.2138    -0.0606 H       
  55 H55            2.1863    -4.2636     1.2076 H       
  56 H56            3.6646    -3.8040     2.0860 H       
  57 H57            3.4663    -1.4926     1.2103 H       
  58 H58            2.0050    -1.9618     2.1118 H       
@<TRIPOS>BOND
   1    1    2 1
   2    1    9 1
   3    1   19 1
   4    2    3 2
   5    2   13 1
   6    3    4 1
   7    3   27 1
   8    4    5 ar
   9    4    9 ar
  10    5    6 ar
  11    5   33 1
  12    6    7 ar
  13    6   34 1
  14    7    8 ar
  15    7   10 1
  16    8    9 ar
  17    8   35 1
  18   10   11 2
  19   10   12 1
  20   12   36 1
  21   13   14 ar
  22   13   18 ar
  23   14   15 ar
  24   14   37 1
  25   15   16 ar
  26   15   38 1
  27   16   17 ar
  28   16   39 1
  29   17   18 ar
  30   17   40 1
  31   18   41 1
  32   19   20 1
  33   19   42 1
  34   19   43 1
  35   20   21 2
  36   20   25 am
  37   22   23 2
  38   22   24 2
  39   22   25 am
  40   22   26 1
  41   25   44 1
  42   26   45 1
  43   26   46 1
  44   26   47 1
  45   27   28 1
  46   27   32 1
  47   27   48 1
  48   28   29 1
  49   28   49 1
  50   28   50 1
  51   29   30 1
  52   29   51 1
  53   29   52 1
  54   30   31 1
  55   30   53 1
  56   30   54 1
  57   31   32 1
  58   31   55 1
  59   31   56 1
  60   32   57 1
  61   32   58 1

#	End of record

