#	Name: ASD03091163
#	Creating user name:	WinNT
#	Creation time:	15. 06. 2019 20:30

#	Modifying user name:	WinNT
#	Modification time:	15. 06. 2019 20:30

#	Program:	/corina/corina34_cracker 3.40 0067  02.08.2006

@<TRIPOS>MOLECULE
ASD03091163
  21   22    0    0    0
SMALL
NO_CHARGES


@<TRIPOS>ATOM
   1 N1            -0.0155     1.2938     0.0092 N.2     
   2 C2             0.0021    -0.0041     0.0020 C.2     
   3 N3             1.1472    -0.7363    -0.0128 N.am    
   4 C4             2.3550    -0.1257    -0.0206 C.2     
   5 C5             2.3701     1.3447    -0.0129 C.ar    
   6 C6             3.5598     2.0696    -0.0194 C.ar    
   7 C7             3.5111     3.4515    -0.0112 C.ar    
   8 C8             2.2858     4.1143     0.0035 C.ar    
   9 C9             1.1110     3.4175     0.0106 C.ar    
  10 C10            1.1302     2.0211     0.0021 C.ar    
  11 O11            3.3886    -0.7686    -0.0331 O.2     
  12 O12            4.6663     4.1679    -0.0170 O.3     
  13 C13            1.0733    -2.1994    -0.0200 C.3     
  14 H14           -0.9417    -0.5292     0.0086 H       
  15 H15            4.5106     1.5574    -0.0305 H       
  16 H16            2.2646     5.1941     0.0098 H       
  17 H17            0.1689     3.9454     0.0224 H       
  18 H18            4.9930     4.3802    -0.9021 H       
  19 H19            0.0287    -2.5105    -0.0117 H       
  20 H20            1.5596    -2.5834    -0.9168 H       
  21 H21            1.5766    -2.5930     0.8631 H       
@<TRIPOS>BOND
   1    1    2 2
   2    1   10 1
   3    2    3 1
   4    2   14 1
   5    3    4 am
   6    3   13 1
   7    4    5 1
   8    4   11 2
   9    5    6 ar
  10    5   10 ar
  11    6    7 ar
  12    6   15 1
  13    7    8 ar
  14    7   12 1
  15    8    9 ar
  16    8   16 1
  17    9   10 ar
  18    9   17 1
  19   12   18 1
  20   13   19 1
  21   13   20 1
  22   13   21 1

#	End of record

