#	Name: ASD01884495
#	Creating user name:	WinNT
#	Creation time:	15. 06. 2019 19:48

#	Modifying user name:	WinNT
#	Modification time:	15. 06. 2019 19:48

#	Program:	/corina/corina34_cracker 3.40 0067  02.08.2006

@<TRIPOS>MOLECULE
ASD01884495
  39   42    0    0    0
SMALL
NO_CHARGES


@<TRIPOS>ATOM
   1 C1            -0.0164     1.3576     0.0095 C.2     
   2 C2             0.0021    -0.0041     0.0020 C.2     
   3 C3             1.2439    -0.6750    -0.0134 C.2     
   4 C4             2.4022     0.0464    -0.0206 C.2     
   5 N5             2.3700     1.4022    -0.0126 N.am    
   6 C6             1.1986     2.0652     0.0017 C.2     
   7 C7             3.6266     2.1552    -0.0201 C.3     
   8 O8             1.1912     3.2856     0.0087 O.2     
   9 C9             4.0442     2.4215    -1.4434 C.ar    
  10 C10            3.6203     3.5707    -2.0843 C.ar    
  11 C11            4.0030     3.8155    -3.3896 C.ar    
  12 C12            4.8104     2.9101    -4.0549 C.ar    
  13 C13            5.2343     1.7602    -3.4129 C.ar    
  14 C14            4.8556     1.5193    -2.1057 C.ar    
  15 Cl15           5.2910     3.2166    -5.6946 Cl      
  16 C16            1.2895    -2.1586    -0.0214 C.ar    
  17 C17            0.8136    -2.8720     1.0694 C.ar    
  18 C18            1.8070    -2.8353    -1.1308 C.ar    
  19 C19            1.8564    -4.1992    -1.1544 C.ar    
  20 C20            1.3895    -4.9358    -0.0694 C.ar    
  21 C21            0.8619    -4.2662     1.0502 C.ar    
  22 N22            1.3096    -6.2861     0.1915 N.pl3   
  23 C23            0.7595    -6.4898     1.4275 C.2     
  24 C24            0.4662    -5.3108     1.9983 C.2     
  25 H25           -0.9563     1.8895     0.0169 H       
  26 H26           -0.9217    -0.5635     0.0082 H       
  27 H27            3.3525    -0.4666    -0.0325 H       
  28 H28            3.4857     3.1024     0.5005 H       
  29 H29            4.4005     1.5756     0.4832 H       
  30 H30            2.9897     4.2772    -1.5650 H       
  31 H31            3.6715     4.7131    -3.8904 H       
  32 H32            5.8647     1.0531    -3.9317 H       
  33 H33            5.1865     0.6217    -1.6044 H       
  34 H34            0.4097    -2.3527     1.9259 H       
  35 H35            2.1711    -2.2727    -1.9777 H       
  36 H36            2.2586    -4.7084    -2.0177 H       
  37 H37            1.5997    -6.9881    -0.4117 H       
  38 H38            0.5845    -7.4564     1.8765 H       
  39 H39            0.0233    -5.1607     2.9718 H       
@<TRIPOS>BOND
   1    1    2 2
   2    1    6 1
   3    1   25 1
   4    2    3 1
   5    2   26 1
   6    3    4 2
   7    3   16 1
   8    4    5 1
   9    4   27 1
  10    5    6 am
  11    5    7 1
  12    6    8 2
  13    7    9 1
  14    7   28 1
  15    7   29 1
  16    9   10 ar
  17    9   14 ar
  18   10   11 ar
  19   10   30 1
  20   11   12 ar
  21   11   31 1
  22   12   13 ar
  23   12   15 1
  24   13   14 ar
  25   13   32 1
  26   14   33 1
  27   16   17 ar
  28   16   18 ar
  29   17   21 ar
  30   17   34 1
  31   18   19 ar
  32   18   35 1
  33   19   20 ar
  34   19   36 1
  35   20   21 ar
  36   20   22 1
  37   21   24 1
  38   22   23 1
  39   22   37 1
  40   23   24 2
  41   23   38 1
  42   24   39 1

#	End of record

