#	Name: ASD01810781
#	Creating user name:	WinNT
#	Creation time:	15. 06. 2019 19:25

#	Modifying user name:	WinNT
#	Modification time:	15. 06. 2019 19:25

#	Program:	/corina/corina34_cracker 3.40 0067  02.08.2006

@<TRIPOS>MOLECULE
ASD01810781
  57   61    0    0    0
SMALL
NO_CHARGES


@<TRIPOS>ATOM
   1 C1            -0.0059     1.3497     0.2031 C.ar    
   2 C2             0.0128    -0.0046     0.2014 C.ar    
   3 C3             1.2168    -0.7163     0.0842 C.ar    
   4 C4             2.4408    -0.0331    -0.0350 C.ar    
   5 C5             2.4279     1.4268    -0.0334 C.ar    
   6 C6             3.6068     2.1705    -0.1478 C.ar    
   7 C7             3.5489     3.5337    -0.1414 C.ar    
   8 C8             2.3304     4.1943    -0.0224 C.ar    
   9 C9             1.1635     3.4991     0.0909 C.ar    
  10 C10            1.1856     2.0959     0.0871 C.ar    
  11 C11           -1.3230     2.0719     0.3249 C.3     
  12 C12           -2.6460     1.5337    -1.7301 C.ar    
  13 C13           -1.8332     2.4212    -1.0494 C.ar    
  14 C14           -1.4881     3.6290    -1.6273 C.ar    
  15 C15           -1.9549     3.9518    -2.8868 C.ar    
  16 C16           -3.1147     1.8514    -2.9902 C.ar    
  17 C17           -2.7703     3.0628    -3.5720 C.ar    
  18 C18            1.2490    -2.1845     0.0807 C.2     
  19 N19            2.4578    -2.7815    -0.0374 N.am    
  20 C20            3.5859    -2.0363    -0.1472 C.2     
  21 N21            3.5809    -0.7352    -0.1469 N.2     
  22 O22            0.2273    -2.8396     0.1806 O.2     
  23 C23            2.5487    -4.2436    -0.0461 C.3     
  24 C24            3.1758    -4.7078    -1.3622 C.3     
  25 C25            4.5770    -4.1088    -1.4987 C.3     
  26 C26            5.4462    -4.5728    -0.3281 C.3     
  27 C27            4.8191    -4.1087     0.9880 C.3     
  28 C28            3.4178    -4.7076     1.1245 C.3     
  29 O29            2.3640    -4.2744    -2.4555 O.3     
  30 O30           -3.2308     3.3781    -4.8111 O.3     
  31 C31           -4.0655     2.4150    -5.4575 C.3     
  32 H32           -0.9165    -0.5472     0.2923 H       
  33 H33            4.5584     1.6682    -0.2404 H       
  34 H34            4.4600     4.1068    -0.2294 H       
  35 H35            2.3088     5.2741    -0.0193 H       
  36 H36            0.2253     4.0261     0.1825 H       
  37 H37           -2.0449     1.4285     0.8278 H       
  38 H38           -1.1845     2.9848     0.9040 H       
  39 H39           -2.9108     0.5892    -1.2782 H       
  40 H40           -0.8534     4.3208    -1.0935 H       
  41 H41           -1.6857     4.8956    -3.3374 H       
  42 H42           -3.7493     1.1577    -3.5216 H       
  43 H43            4.5329    -2.5471    -0.2394 H       
  44 H44            1.5504    -4.6703     0.0511 H       
  45 H45            3.2434    -5.7956    -1.3687 H       
  46 H46            5.0238    -4.4395    -2.4363 H       
  47 H47            4.5094    -3.0210    -1.4922 H       
  48 H48            5.5138    -5.6607    -0.3346 H       
  49 H49            6.4445    -4.1461    -0.4253 H       
  50 H50            5.4383    -4.4392     1.8220 H       
  51 H51            4.7515    -3.0208     0.9945 H       
  52 H52            2.9711    -4.3769     2.0621 H       
  53 H53            3.4855    -5.7955     1.1180 H       
  54 H54            2.7020    -4.5341    -3.3235 H       
  55 H55           -4.3627     2.7905    -6.4366 H       
  56 H56           -3.5166     1.4810    -5.5779 H       
  57 H57           -4.9538     2.2388    -4.8509 H       
@<TRIPOS>BOND
   1    1    2 ar
   2    1   10 ar
   3    1   11 1
   4    2    3 ar
   5    2   32 1
   6    3    4 ar
   7    3   18 1
   8    4    5 ar
   9    4   21 1
  10    5    6 ar
  11    5   10 ar
  12    6    7 ar
  13    6   33 1
  14    7    8 ar
  15    7   34 1
  16    8    9 ar
  17    8   35 1
  18    9   10 ar
  19    9   36 1
  20   11   13 1
  21   11   37 1
  22   11   38 1
  23   12   13 ar
  24   12   16 ar
  25   12   39 1
  26   13   14 ar
  27   14   15 ar
  28   14   40 1
  29   15   17 ar
  30   15   41 1
  31   16   17 ar
  32   16   42 1
  33   17   30 1
  34   18   19 am
  35   18   22 2
  36   19   20 1
  37   19   23 1
  38   20   21 2
  39   20   43 1
  40   23   24 1
  41   23   28 1
  42   23   44 1
  43   24   25 1
  44   24   29 1
  45   24   45 1
  46   25   26 1
  47   25   46 1
  48   25   47 1
  49   26   27 1
  50   26   48 1
  51   26   49 1
  52   27   28 1
  53   27   50 1
  54   27   51 1
  55   28   52 1
  56   28   53 1
  57   29   54 1
  58   30   31 1
  59   31   55 1
  60   31   56 1
  61   31   57 1

#	End of record

