#	Name: ASD01200218
#	Creating user name:	WinNT
#	Creation time:	15. 06. 2019 19:08

#	Modifying user name:	WinNT
#	Modification time:	15. 06. 2019 19:08

#	Program:	/corina/corina34_cracker 3.40 0067  02.08.2006

@<TRIPOS>MOLECULE
ASD01200218
  42   43    0    0    0
SMALL
NO_CHARGES


@<TRIPOS>ATOM
   1 C1             0.4630     1.0870     0.0063 C.ar    
   2 C2             0.3004    -0.2871     0.0048 C.ar    
   3 C3            -0.9699    -0.8329     0.0075 C.ar    
   4 C4            -2.0784    -0.0073     0.0117 C.ar    
   5 C5            -1.9193     1.3661     0.0127 C.ar    
   6 C6            -0.6493     1.9154     0.0158 C.ar    
   7 C7            -1.1461    -2.3295     0.0054 C.3     
   8 C8            -1.9184    -2.7539     1.2561 C.3     
   9 C9            -1.9139    -2.7432    -1.2236 C.2     
  10 N10           -2.0910    -4.0505    -1.4992 N.am    
  11 O11           -2.3722    -1.9000    -1.9644 O.2     
  12 C12           -1.0762    -2.4611     2.4994 C.3     
  13 C13           -2.6920    -4.4218    -2.6470 C.2     
  14 N14           -2.8692    -5.7292    -2.9226 N.am    
  15 O15           -3.0741    -3.5778    -3.4336 O.2     
  16 C16           -1.8926    -2.7548     3.7702 C.3     
  17 C17           -1.1329    -3.8570     4.5371 C.3     
  18 C18            0.3285    -3.7266     4.0409 C.3     
  19 C19            0.1511    -3.3950     2.5383 C.3     
  20 C20           -3.5224    -6.1328    -4.1703 C.3     
  21 F21            1.7039     1.6211     0.0041 F       
  22 F22           -0.4930     3.2574     0.0173 F       
  23 H23            1.1658    -0.9333     0.0012 H       
  24 H24           -3.0698    -0.4355     0.0138 H       
  25 H25           -2.7862     2.0101     0.0157 H       
  26 H26           -0.1679    -2.8105     0.0017 H       
  27 H27           -2.8540    -2.1974     1.3117 H       
  28 H28           -2.1330    -3.8214     1.2058 H       
  29 H29           -1.7861    -4.7242    -0.8715 H       
  30 H30           -0.7539    -1.4198     2.4950 H       
  31 H31           -2.5642    -6.4028    -2.2949 H       
  32 H32           -1.9658    -1.8563     4.3830 H       
  33 H33           -2.8888    -3.1060     3.5012 H       
  34 H34           -1.1881    -3.6814     5.6114 H       
  35 H35           -1.5338    -4.8398     4.2890 H       
  36 H36            0.8410    -2.9151     4.5576 H       
  37 H37            0.8650    -4.6668     4.1682 H       
  38 H38           -0.0424    -4.3032     1.9675 H       
  39 H39            1.0329    -2.8823     2.1540 H       
  40 H40           -4.5297    -5.7177    -4.2038 H       
  41 H41           -2.9476    -5.7605    -5.0183 H       
  42 H42           -3.5758    -7.2205    -4.2171 H       
@<TRIPOS>BOND
   1    1    2 ar
   2    1   21 1
   3    1    6 ar
   4    2    3 ar
   5    2   23 1
   6    3    4 ar
   7    3    7 1
   8    4    5 ar
   9    4   24 1
  10    5    6 ar
  11    5   25 1
  12    6   22 1
  13    7    8 1
  14    7    9 1
  15    7   26 1
  16    8   12 1
  17    8   27 1
  18    8   28 1
  19    9   10 am
  20    9   11 2
  21   10   13 am
  22   10   29 1
  23   12   16 1
  24   12   19 1
  25   12   30 1
  26   13   14 am
  27   13   15 2
  28   14   20 1
  29   14   31 1
  30   16   17 1
  31   16   32 1
  32   16   33 1
  33   17   18 1
  34   17   34 1
  35   17   35 1
  36   18   19 1
  37   18   36 1
  38   18   37 1
  39   19   38 1
  40   19   39 1
  41   20   40 1
  42   20   41 1
  43   20   42 1

#	End of record

