#	Name: ASD01813335
#	Creating user name:	WinNT
#	Creation time:	15. 06. 2019 19:30

#	Modifying user name:	WinNT
#	Modification time:	15. 06. 2019 19:30

#	Program:	/corina/corina34_cracker 3.40 0067  02.08.2006

@<TRIPOS>MOLECULE
ASD01813335
  63   67    0    0    0
SMALL
NO_CHARGES


@<TRIPOS>ATOM
   1 C1            -0.2604     1.0337     0.3804 C.2     
   2 C2            -0.2024    -0.3606     0.2518 C.2     
   3 C3             1.0116    -0.9824     0.2242 C.2     
   4 C4             2.1834    -0.2141     0.3252 C.2     
   5 N5             2.0972     1.1459     0.4503 N.am    
   6 C6             0.8784     1.7564     0.4764 C.2     
   7 C7             3.4322    -0.8508     0.2971 C.2     
   8 C8             4.5766    -0.1138     0.3949 C.2     
   9 C9             4.4843     1.2845     0.5229 C.2     
  10 C10            3.2138     1.8952     0.5484 C.2     
  11 O11            3.1245     3.1064     0.6587 O.2     
  12 C12            5.6973     2.0982     0.6301 C.2     
  13 O13            5.6020     3.4382     0.7526 O.3     
  14 O14            6.7907     1.5656     0.6087 O.2     
  15 C15            3.5107    -2.3494     0.1594 C.3     
  16 C16            3.6987    -2.7170    -1.3139 C.3     
  17 N17            3.7752    -4.1779    -1.4481 N.3     
  18 C18            3.5816    -4.5883    -2.8424 C.3     
  19 C19            3.7611    -6.0771    -2.9838 C.ar    
  20 C20            4.3970    -6.8280    -2.0186 C.ar    
  21 C21            4.9434    -6.2015    -0.7614 C.3     
  22 C22            5.0591    -4.6875    -0.9406 C.3     
  23 C23            3.2684    -6.6964    -4.1233 C.ar    
  24 C24            3.4133    -8.0580    -4.2956 C.ar    
  25 C25            4.0533    -8.8103    -3.3281 C.ar    
  26 C26            4.5437    -8.1958    -2.1936 C.ar    
  27 C27            2.1696    -4.2052    -3.2902 C.3     
  28 N28            1.1910    -4.7770    -2.3620 N.am    
  29 C29           -0.1180    -4.4875    -2.5001 C.2     
  30 C30           -1.1056    -5.0646    -1.5634 C.ar    
  31 O31           -0.4866    -3.7519    -3.3949 O.2     
  32 C32           -2.4620    -4.7667    -1.7038 C.ar    
  33 C33           -3.3784    -5.3085    -0.8263 C.ar    
  34 C34           -2.9555    -6.1454     0.1911 C.ar    
  35 C35           -1.6123    -6.4443     0.3360 C.ar    
  36 C36           -0.6863    -5.9141    -0.5384 C.ar    
  37 H37           -1.2178     1.5331     0.3985 H       
  38 H38           -1.1116    -0.9384     0.1755 H       
  39 H39            1.0713    -2.0562     0.1258 H       
  40 H40            0.8218     2.8303     0.5754 H       
  41 H41            5.5417    -0.5981     0.3747 H       
  42 H42            6.4301     3.9329     0.8201 H       
  43 H43            4.3554    -2.7236     0.7378 H       
  44 H44            2.5890    -2.7972     0.5309 H       
  45 H45            2.8540    -2.3428    -1.8923 H       
  46 H46            4.6204    -2.2692    -1.6853 H       
  47 H47            4.3094    -4.0768    -3.4724 H       
  48 H48            4.2735    -6.4173     0.0710 H       
  49 H49            5.9283    -6.6170    -0.5485 H       
  50 H50            5.8507    -4.4628    -1.6555 H       
  51 H51            5.2848    -4.2214     0.0185 H       
  52 H52            2.7683    -6.1097    -4.8796 H       
  53 H53            3.0272    -8.5350    -5.1843 H       
  54 H54            4.1689    -9.8761    -3.4596 H       
  55 H55            5.0438    -8.7835    -1.4379 H       
  56 H56            2.0727    -3.1195    -3.2970 H       
  57 H57            1.9888    -4.5924    -4.2929 H       
  58 H58            1.4852    -5.3640    -1.6480 H       
  59 H59           -2.7934    -4.1133    -2.4973 H       
  60 H60           -4.4282    -5.0786    -0.9335 H       
  61 H61           -3.6769    -6.5669     0.8754 H       
  62 H62           -1.2887    -7.0979     1.1325 H       
  63 H63            0.3618    -6.1485    -0.4245 H       
@<TRIPOS>BOND
   1    1    2 1
   2    1    6 2
   3    1   37 1
   4    2    3 2
   5    2   38 1
   6    3    4 1
   7    3   39 1
   8    4    5 1
   9    4    7 2
  10    5    6 1
  11    5   10 am
  12    6   40 1
  13    7    8 1
  14    7   15 1
  15    8    9 2
  16    8   41 1
  17    9   10 1
  18    9   12 1
  19   10   11 2
  20   12   13 1
  21   12   14 2
  22   13   42 1
  23   15   16 1
  24   15   43 1
  25   15   44 1
  26   16   17 1
  27   16   45 1
  28   16   46 1
  29   17   18 1
  30   17   22 1
  31   18   19 1
  32   18   27 1
  33   18   47 1
  34   19   20 ar
  35   19   23 ar
  36   20   21 1
  37   20   26 ar
  38   21   22 1
  39   21   48 1
  40   21   49 1
  41   22   50 1
  42   22   51 1
  43   23   24 ar
  44   23   52 1
  45   24   25 ar
  46   24   53 1
  47   25   26 ar
  48   25   54 1
  49   26   55 1
  50   27   28 1
  51   27   56 1
  52   27   57 1
  53   28   29 am
  54   28   58 1
  55   29   30 1
  56   29   31 2
  57   30   32 ar
  58   30   36 ar
  59   32   33 ar
  60   32   59 1
  61   33   34 ar
  62   33   60 1
  63   34   35 ar
  64   34   61 1
  65   35   36 ar
  66   35   62 1
  67   36   63 1

#	End of record

