#	Name: ASD05872015
#	Creating user name:	WinNT
#	Creation time:	15. 06. 2019 21:04

#	Modifying user name:	WinNT
#	Modification time:	15. 06. 2019 21:04

#	Program:	/corina/corina34_cracker 3.40 0067  02.08.2006

@<TRIPOS>MOLECULE
ASD05872015
  41   42    0    0    0
SMALL
NO_CHARGES


@<TRIPOS>ATOM
   1 C1             0.0080     1.3784    -0.1983 C.ar    
   2 C2            -0.0007    -0.0026     0.0003 C.ar    
   3 C3            -1.1622    -0.7232    -0.2016 C.ar    
   4 C4            -2.3201    -0.0644    -0.6034 C.ar    
   5 C5            -2.3141     1.3232    -0.8037 C.ar    
   6 C6            -1.1411     2.0376    -0.5918 C.ar    
   7 C7            -3.6995    -0.4997    -0.9044 C.2     
   8 C8            -4.3760     0.6307    -1.2476 C.2     
   9 O9            -3.5570     1.6868    -1.1849 O.3     
  10 C10           -5.8300     0.6843    -1.6403 C.3     
  11 C11            2.1890     4.1412     0.7299 C.3     
  12 C12            1.2088     3.9264    -1.5583 C.3     
  13 C13           -4.2305    -1.8681    -0.8460 C.2     
  14 O14           -4.7165    -2.2880     0.1862 O.2     
  15 O15           -4.1790    -2.6583    -1.9372 O.3     
  16 C16           -4.5764    -4.7397    -3.1373 C.3     
  17 C17           -4.7224    -3.9984    -1.8068 C.3     
  18 O18            1.1353    -0.6400     0.3927 O.3     
  19 S19            1.3011    -0.7364     1.9026 S.o2    
  20 O20            2.6875    -1.1006     2.1499 O.co2   
  21 O21            0.9758     0.5737     2.4447 O.co2   
  22 O22            0.3770    -1.7619     2.3614 O.co2   
  23 O23            1.1546     2.0818     0.0022 O.3     
  24 C24            1.0679     3.5049    -0.0942 C.3     
  25 H25           -1.1711    -1.7923    -0.0488 H       
  26 H26           -1.1254     3.1069    -0.7428 H       
  27 H27           -6.4409     0.8401    -0.7512 H       
  28 H28           -5.9877     1.5066    -2.3382 H       
  29 H29           -6.1128    -0.2549    -2.1156 H       
  30 H30            2.1228     5.2267     0.6563 H       
  31 H31            2.0886     3.8410     1.7729 H       
  32 H32            3.1543     3.8093     0.3475 H       
  33 H33            1.1427     5.0119    -1.6318 H       
  34 H34            2.1741     3.5945    -1.9406 H       
  35 H35            0.4101     3.4731    -2.1454 H       
  36 H36           -4.9843    -5.7457    -3.0394 H       
  37 H37           -5.1191    -4.2015    -3.9144 H       
  38 H38           -3.5217    -4.7998    -3.4058 H       
  39 H39           -4.1797    -4.5365    -1.0296 H       
  40 H40           -5.7771    -3.9383    -1.5382 H       
  41 H41            0.1026     3.8369     0.2881 H       
@<TRIPOS>BOND
   1    1    2 ar
   2    1   23 1
   3    1    6 ar
   4    2    3 ar
   5    2   18 1
   6    3    4 ar
   7    3   25 1
   8    4    5 ar
   9    4    7 1
  10    5    6 ar
  11    5    9 1
  12    6   26 1
  13    7    8 2
  14    7   13 1
  15    8    9 1
  16    8   10 1
  17   10   27 1
  18   10   28 1
  19   10   29 1
  20   11   24 1
  21   11   30 1
  22   11   31 1
  23   11   32 1
  24   12   24 1
  25   12   33 1
  26   12   34 1
  27   12   35 1
  28   13   14 2
  29   13   15 1
  30   15   17 1
  31   16   17 1
  32   16   36 1
  33   16   37 1
  34   16   38 1
  35   17   39 1
  36   17   40 1
  37   18   19 1
  38   19   20 ar
  39   19   21 ar
  40   19   22 ar
  41   23   24 1
  42   24   41 1

#	End of record

