#	Name: ASD01230350
#	Creating user name:	WinNT
#	Creation time:	15. 06. 2019 19:14

#	Modifying user name:	WinNT
#	Modification time:	15. 06. 2019 19:14

#	Program:	/corina/corina34_cracker 3.40 0067  02.08.2006

@<TRIPOS>MOLECULE
ASD01230350
  50   54    0    0    0
SMALL
NO_CHARGES


@<TRIPOS>ATOM
   1 S1            -1.6121     2.7494     1.5490 S.o2    
   2 N2            -1.3444     1.2713     0.8725 N.am    
   3 C3            -0.2197     0.8758     0.4252 C.2     
   4 N4             0.9374     1.6104     0.4804 N.pl3   
   5 C5             1.1184     2.6777     1.4579 C.3     
   6 C6            -0.0543     3.6560     1.3651 C.3     
   7 C7            -0.0890    -0.4985    -0.2112 C.3     
   8 C8             1.2872    -1.0488     0.1714 C.3     
   9 C9             2.4044    -0.1702    -0.3752 C.3     
  10 C10            1.9894     1.2915    -0.4906 C.3     
  11 C11           -1.1691    -1.4102     0.3113 C.ar    
  12 C12           -2.0791    -1.9744    -0.5637 C.ar    
  13 C13           -3.0704    -2.8101    -0.0872 C.ar    
  14 C14           -3.1523    -3.0837     1.2706 C.ar    
  15 C15           -2.2376    -2.5166     2.1465 C.ar    
  16 C16           -1.2450    -1.6857     1.6642 C.ar    
  17 O17           -4.1268    -3.9051     1.7419 O.3     
  18 O18           -5.2294    -7.5878    -1.2361 O.3     
  19 C19           -6.0764    -7.6330    -2.3969 C.3     
  20 C20           -7.2352    -6.6827    -2.0130 C.3     
  21 C21           -6.5694    -5.7698    -1.0012 C.ar    
  22 C22           -5.3888    -6.3898    -0.6095 C.ar    
  23 C23           -4.5679    -5.7515     0.3151 C.ar    
  24 C24           -4.9327    -4.5224     0.8387 C.ar    
  25 C25           -6.1184    -3.9189     0.4439 C.ar    
  26 C26           -6.9342    -4.5489    -0.4780 C.ar    
  27 O27           -2.6211     3.3270     0.7319 O.2     
  28 O28           -1.8606     2.4639     2.9187 O.2     
  29 H29            1.1570     2.2504     2.4599 H       
  30 H30            2.0495     3.2056     1.2515 H       
  31 H31           -0.0360     4.1544     0.3959 H       
  32 H32            0.0292     4.3996     2.1578 H       
  33 H33           -0.1662    -0.4139    -1.2952 H       
  34 H34            1.3653    -1.0912     1.2578 H       
  35 H35            1.3943    -2.0554    -0.2328 H       
  36 H36            3.2662    -0.2412     0.2885 H       
  37 H37            2.6899    -0.5351    -1.3618 H       
  38 H38            1.6177     1.4807    -1.4977 H       
  39 H39            2.8554     1.9265    -0.3032 H       
  40 H40           -2.0150    -1.7611    -1.6205 H       
  41 H41           -3.7814    -3.2499    -0.7710 H       
  42 H42           -2.2993    -2.7276     3.2038 H       
  43 H43           -0.5303    -1.2473     2.3449 H       
  44 H44           -5.5478    -7.2622    -3.2751 H       
  45 H45           -6.4462    -8.6443    -2.5658 H       
  46 H46           -7.5796    -6.1183    -2.8796 H       
  47 H47           -8.0574    -7.2349    -1.5578 H       
  48 H48           -3.6435    -6.2159     0.6252 H       
  49 H49           -6.4029    -2.9617     0.8551 H       
  50 H50           -7.8576    -4.0829    -0.7886 H       
@<TRIPOS>BOND
   1    1    2 am
   2    1    6 1
   3    1   27 2
   4    1   28 2
   5    2    3 2
   6    3    4 1
   7    3    7 1
   8    4    5 1
   9    4   10 1
  10    5    6 1
  11    5   29 1
  12    5   30 1
  13    6   31 1
  14    6   32 1
  15    7    8 1
  16    7   11 1
  17    7   33 1
  18    8    9 1
  19    8   34 1
  20    8   35 1
  21    9   10 1
  22    9   36 1
  23    9   37 1
  24   10   38 1
  25   10   39 1
  26   11   12 ar
  27   11   16 ar
  28   12   13 ar
  29   12   40 1
  30   13   14 ar
  31   13   41 1
  32   14   15 ar
  33   14   17 1
  34   15   16 ar
  35   15   42 1
  36   16   43 1
  37   17   24 1
  38   18   19 1
  39   18   22 1
  40   19   20 1
  41   19   44 1
  42   19   45 1
  43   20   21 1
  44   20   46 1
  45   20   47 1
  46   21   22 ar
  47   21   26 ar
  48   22   23 ar
  49   23   24 ar
  50   23   48 1
  51   24   25 ar
  52   25   26 ar
  53   25   49 1
  54   26   50 1

#	End of record

