#	Name: ASD03430880
#	Creating user name:	WinNT
#	Creation time:	15. 06. 2019 20:41

#	Modifying user name:	WinNT
#	Modification time:	15. 06. 2019 20:41

#	Program:	/corina/corina34_cracker 3.40 0067  02.08.2006

@<TRIPOS>MOLECULE
ASD03430880
  38   42    0    0    0
SMALL
NO_CHARGES


@<TRIPOS>ATOM
   1 C1            -0.0184     1.5033     0.0103 C.3     
   2 C2             0.0021    -0.0041     0.0020 C.2     
   3 N3             1.0072    -0.6564    -0.6222 N.am    
   4 C4             2.0321     0.0911    -1.2233 C.ar    
   5 C5             2.8968    -0.4936    -2.1328 C.ar    
   6 C6             3.8977     0.2578    -2.7133 C.ar    
   7 C7             4.0468     1.6059    -2.4000 C.ar    
   8 C8             3.1791     2.1885    -1.4798 C.ar    
   9 C9             2.1769     1.4386    -0.8953 C.ar    
  10 O10            1.3217     2.0022     0.0002 O.3     
  11 O11            5.0737     2.1658    -3.1015 O.3     
  12 C12            4.9835    -0.0757    -3.7006 C.3     
  13 C13            5.9364     1.1231    -3.5946 C.3     
  14 N14            5.5487    -2.1565    -4.4594 N.am    
  15 C15            5.6755    -1.3677    -3.3737 C.2     
  16 C16            4.4554    -0.2488    -5.0938 C.ar    
  17 C17            3.7374     0.5593    -5.9461 C.ar    
  18 C18            3.3903     0.1032    -7.2057 C.ar    
  19 C19            3.7658    -1.1659    -7.6057 C.ar    
  20 C20            4.4854    -1.9796    -6.7551 C.ar    
  21 C21            4.8377    -1.5296    -5.4855 C.ar    
  22 O22            6.2381    -1.6469    -2.3362 O.2     
  23 C23            1.0273    -2.1205    -0.6706 C.3     
  24 O24           -0.8796    -0.6284     0.5536 O.2     
  25 H25           -0.5464     1.8639    -0.8724 H       
  26 H26           -0.5294     1.8544     0.9068 H       
  27 H27            2.7876    -1.5373    -2.3879 H       
  28 H28            3.2903     3.2312    -1.2216 H       
  29 H29            6.3395     1.3847    -4.5729 H       
  30 H30            6.7392     0.9178    -2.8864 H       
  31 H31            5.9099    -3.0546    -4.5213 H       
  32 H32            3.4444     1.5500    -5.6313 H       
  33 H33            2.8271     0.7370    -7.8746 H       
  34 H34            3.4942    -1.5221    -8.5885 H       
  35 H35            4.7758    -2.9694    -7.0749 H       
  36 H36            0.1531    -2.5132    -0.1514 H       
  37 H37            1.0113    -2.4499    -1.7095 H       
  38 H38            1.9325    -2.4876    -0.1869 H       
@<TRIPOS>BOND
   1    1    2 1
   2    1   10 1
   3    1   25 1
   4    1   26 1
   5    2    3 am
   6    2   24 2
   7    3    4 1
   8    3   23 1
   9    4    5 ar
  10    4    9 ar
  11    5    6 ar
  12    5   27 1
  13    6    7 ar
  14    6   12 1
  15    7    8 ar
  16    7   11 1
  17    8    9 ar
  18    8   28 1
  19    9   10 1
  20   11   13 1
  21   12   13 1
  22   12   15 1
  23   12   16 1
  24   13   29 1
  25   13   30 1
  26   14   15 am
  27   14   21 1
  28   14   31 1
  29   15   22 2
  30   16   17 ar
  31   16   21 ar
  32   17   18 ar
  33   17   32 1
  34   18   19 ar
  35   18   33 1
  36   19   20 ar
  37   19   34 1
  38   20   21 ar
  39   20   35 1
  40   23   36 1
  41   23   37 1
  42   23   38 1

#	End of record

