#	Name: ASD03430879
#	Creating user name:	WinNT
#	Creation time:	15. 06. 2019 20:41

#	Modifying user name:	WinNT
#	Modification time:	15. 06. 2019 20:41

#	Program:	/corina/corina34_cracker 3.40 0067  02.08.2006

@<TRIPOS>MOLECULE
ASD03430879
  37   41    0    0    0
SMALL
NO_CHARGES


@<TRIPOS>ATOM
   1 C1            -0.0187     1.5297     0.0105 C.3     
   2 C2             0.0021    -0.0041     0.0020 C.3     
   3 C3             0.6164    -0.4692    -1.3205 C.3     
   4 C4             1.8912     0.2906    -1.5841 C.ar    
   5 C5             2.7913    -0.2146    -2.5084 C.ar    
   6 C6             3.9639     0.4541    -2.7787 C.ar    
   7 C7             4.2588     1.6522    -2.1319 C.ar    
   8 C8             3.3578     2.1511    -1.1999 C.ar    
   9 C9             2.1772     1.4735    -0.9244 C.ar    
  10 O10            1.3303     1.9982     0.0001 O.3     
  11 O11            5.4464     2.1653    -2.5606 O.3     
  12 C12            5.1242     0.1636    -3.6921 C.3     
  13 C13            6.2136     1.1243    -3.1948 C.3     
  14 N14            5.4906    -1.7635    -4.8660 N.am    
  15 C15            5.5675    -1.2692    -3.6143 C.2     
  16 C16            4.7886     0.3980    -5.1351 C.ar    
  17 C17            4.3286     1.4875    -5.8398 C.ar    
  18 C18            4.1102     1.3895    -7.2029 C.ar    
  19 C19            4.3550     0.1951    -7.8550 C.ar    
  20 C20            4.8151    -0.9001    -7.1531 C.ar    
  21 C21            5.0366    -0.8108    -5.7813 C.ar    
  22 O22            5.9252    -1.8647    -2.6200 O.2     
  23 H23           -0.5410     1.8947    -0.8740 H       
  24 H24           -0.5239     1.8851     0.9085 H       
  25 H25            0.6040    -0.3679     0.8347 H       
  26 H26           -1.0152    -0.3858     0.0890 H       
  27 H27            0.8350    -1.5356    -1.2636 H       
  28 H28           -0.0886    -0.2871    -2.1317 H       
  29 H29            2.5715    -1.1398    -3.0203 H       
  30 H30            3.5775     3.0745    -0.6846 H       
  31 H31            6.7895     1.5222    -4.0303 H       
  32 H32            6.8656     0.6304    -2.4743 H       
  33 H33            5.7238    -2.6746    -5.1036 H       
  34 H34            4.1385     2.4196    -5.3286 H       
  35 H35            3.7489     2.2439    -7.7560 H       
  36 H36            4.1850     0.1190    -8.9188 H       
  37 H37            5.0043    -1.8296    -7.6695 H       
@<TRIPOS>BOND
   1    1    2 1
   2    1   10 1
   3    1   23 1
   4    1   24 1
   5    2    3 1
   6    2   25 1
   7    2   26 1
   8    3    4 1
   9    3   27 1
  10    3   28 1
  11    4    5 ar
  12    4    9 ar
  13    5    6 ar
  14    5   29 1
  15    6    7 ar
  16    6   12 1
  17    7    8 ar
  18    7   11 1
  19    8    9 ar
  20    8   30 1
  21    9   10 1
  22   11   13 1
  23   12   13 1
  24   12   15 1
  25   12   16 1
  26   13   31 1
  27   13   32 1
  28   14   15 am
  29   14   21 1
  30   14   33 1
  31   15   22 2
  32   16   17 ar
  33   16   21 ar
  34   17   18 ar
  35   17   34 1
  36   18   19 ar
  37   18   35 1
  38   19   20 ar
  39   19   36 1
  40   20   21 ar
  41   20   37 1

#	End of record

