#	Name: ASD04590746
#	Creating user name:	WinNT
#	Creation time:	15. 06. 2019 20:51

#	Modifying user name:	WinNT
#	Modification time:	15. 06. 2019 20:51

#	Program:	/corina/corina34_cracker 3.40 0067  02.08.2006

@<TRIPOS>MOLECULE
ASD04590746
  59   64    0    0    0
SMALL
NO_CHARGES


@<TRIPOS>ATOM
   1 N1            -0.0731     1.2581    -0.3971 N.ar    
   2 C2            -0.0349    -0.0517    -0.1897 C.ar    
   3 N3             1.0977    -0.7353    -0.1914 N.ar    
   4 C4             2.2581    -0.1223    -0.4054 C.ar    
   5 C5             2.2513     1.2692    -0.6295 C.ar    
   6 C6             1.0355     1.9453    -0.6179 C.ar    
   7 N7             3.5566    -0.5645    -0.4625 N.pl3   
   8 C8             4.4159     0.4901    -0.7181 C.ar    
   9 C9             3.6510     1.6647    -0.8321 C.ar    
  10 C10            5.7936     0.5799    -0.8690 C.ar    
  11 N11            6.3668     1.7407    -1.1134 N.ar    
  12 C12            5.6771     2.8621    -1.2263 C.ar    
  13 C13            4.3050     2.8686    -1.0914 C.ar    
  14 C14            3.9740    -1.9568    -0.2789 C.3     
  15 N15           -1.2234    -0.7276     0.0373 N.pl3   
  16 C16           -2.4114    -0.0214     0.1539 C.ar    
  17 N17           -2.3869     1.3042     0.1498 N.ar    
  18 C18           -3.4895     2.0158     0.2580 C.ar    
  19 C19           -4.7294     1.3871     0.3818 C.ar    
  20 C20           -4.7846    -0.0150     0.3889 C.ar    
  21 C21           -3.6146    -0.7152     0.2679 C.ar    
  22 C22           -5.9644     2.1855     0.5039 C.2     
  23 C23           -8.2669     2.6860    -0.1762 C.3     
  24 N24           -7.0561     1.8518    -0.2126 N.am    
  25 C25            3.5561    -2.4526     1.1165 C.3     
  26 C26            2.6000    -3.6425     0.8934 C.3     
  27 C27            2.9684    -4.1665    -0.5169 C.3     
  28 C28            3.2571    -2.8626    -1.3014 C.3     
  29 C29           -8.6889     2.9946    -1.6167 C.3     
  30 N30           -8.8231     1.7372    -2.3643 N.3     
  31 C31           -7.5373     1.0331    -2.4579 C.3     
  32 C32           -7.0681     0.6441    -1.0520 C.3     
  33 O33           -5.9972     3.1443     1.2509 O.2     
  34 H34            0.9973     3.0114    -0.7867 H       
  35 H35            6.4004    -0.3096    -0.7851 H       
  36 H36            6.1961     3.7877    -1.4272 H       
  37 H37            3.7473     3.7886    -1.1855 H       
  38 H38            5.0542    -2.0411    -0.3972 H       
  39 H39           -1.2243    -1.6945     0.1145 H       
  40 H40           -3.4339     3.0943     0.2512 H       
  41 H41           -5.7292    -0.5301     0.4833 H       
  42 H42           -3.6229    -1.7951     0.2699 H       
  43 H43           -9.0670     2.1481     0.3324 H       
  44 H44           -8.0549     3.6164     0.3505 H       
  45 H45            4.4336    -2.7784     1.6752 H       
  46 H46            3.0428    -1.6574     1.6571 H       
  47 H47            2.7701    -4.4146     1.6437 H       
  48 H48            1.5628    -3.3081     0.9171 H       
  49 H49            3.8567    -4.7968    -0.4749 H       
  50 H50            2.1311    -4.7062    -0.9593 H       
  51 H51            2.3261    -2.4022    -1.6320 H       
  52 H52            3.9068    -3.0655    -2.1527 H       
  53 H53           -9.6448     3.5184    -1.6114 H       
  54 H54           -7.9332     3.6208    -2.0908 H       
  55 H55           -9.5300     1.1460    -1.9535 H       
  56 H56           -7.6579     0.1344    -3.0628 H       
  57 H57           -6.7976     1.6866    -2.9204 H       
  58 H58           -6.0634     0.2245    -1.1042 H       
  59 H59           -7.7529    -0.0901    -0.6275 H       
@<TRIPOS>BOND
   1    1    2 ar
   2    1    6 ar
   3    2    3 ar
   4    2   15 1
   5    3    4 ar
   6    4    5 ar
   7    4    7 1
   8    5    6 ar
   9    5    9 1
  10    6   34 1
  11    7    8 1
  12    7   14 1
  13    8    9 ar
  14    8   10 ar
  15    9   13 ar
  16   10   11 ar
  17   10   35 1
  18   11   12 ar
  19   12   13 ar
  20   12   36 1
  21   13   37 1
  22   14   25 1
  23   14   28 1
  24   14   38 1
  25   15   16 1
  26   15   39 1
  27   16   17 ar
  28   16   21 ar
  29   17   18 ar
  30   18   19 ar
  31   18   40 1
  32   19   20 ar
  33   19   22 1
  34   20   21 ar
  35   20   41 1
  36   21   42 1
  37   22   33 2
  38   22   24 am
  39   23   24 1
  40   23   29 1
  41   23   43 1
  42   23   44 1
  43   24   32 1
  44   25   26 1
  45   25   45 1
  46   25   46 1
  47   26   27 1
  48   26   47 1
  49   26   48 1
  50   27   28 1
  51   27   49 1
  52   27   50 1
  53   28   51 1
  54   28   52 1
  55   29   30 1
  56   29   53 1
  57   29   54 1
  58   30   31 1
  59   30   55 1
  60   31   32 1
  61   31   56 1
  62   31   57 1
  63   32   58 1
  64   32   59 1

#	End of record

