#	Name: ASD01911035
#	Creating user name:	WinNT
#	Creation time:	15. 06. 2019 19:57

#	Modifying user name:	WinNT
#	Modification time:	15. 06. 2019 19:57

#	Program:	/corina/corina34_cracker 3.40 0067  02.08.2006

@<TRIPOS>MOLECULE
ASD01911035
  54   57    0    0    0
SMALL
NO_CHARGES


@<TRIPOS>ATOM
   1 N1            -4.7519    -3.3308     1.0065 N.3     
   2 C2            -3.5025    -2.6298     1.3314 C.3     
   3 C3            -2.6796    -2.4402     0.0527 C.3     
   4 N4            -3.5232    -1.7743    -0.9513 N.am    
   5 C5            -4.8507    -2.3421    -1.2318 C.3     
   6 C6            -5.5881    -2.5356     0.0975 C.3     
   7 C7            -3.0915    -0.6728    -1.5969 C.2     
   8 C8            -3.8995    -0.0921    -2.6876 C.ar    
   9 C9            -4.0112     1.2961    -2.8123 C.ar    
  10 C10           -4.7639     1.8435    -3.8288 C.ar    
  11 C11           -5.4164     1.0217    -4.7361 C.ar    
  12 C12           -5.3120    -0.3742    -4.6207 C.ar    
  13 C13           -4.5468    -0.9279    -3.5970 C.ar    
  14 C14           -5.9853    -1.2249    -5.5553 C.1     
  15 O15           -2.0366    -0.1574    -1.2812 O.2     
  16 C16           -6.5374    -1.9223    -6.3216 C.1     
  17 C17           -7.2107    -2.7730    -7.2562 C.ar    
  18 C18           -7.1074    -4.1618    -7.1422 C.ar    
  19 C19           -7.7592    -4.9749    -8.0459 C.ar    
  20 C20           -8.5139    -4.4185    -9.0633 C.ar    
  21 C21           -8.6204    -3.0437    -9.1828 C.ar    
  22 C22           -7.9791    -2.2183    -8.2834 C.ar    
  23 C23           -5.4470    -3.6642     2.1559 C.ar    
  24 O24           -6.1557     1.5661    -5.7344 O.3     
  25 N25           -6.6024    -4.3041     2.0504 N.ar    
  26 C26           -7.2917    -4.6373     3.1290 C.ar    
  27 C27           -6.7916    -4.3090     4.3793 C.ar    
  28 C28           -5.5801    -3.6396     4.4534 C.ar    
  29 N29           -4.9387    -3.3406     3.3359 N.ar    
  30 C30           -6.2183     2.9926    -5.7914 C.3     
  31 N31           -7.6506    -6.4463    -7.9271 N.pl3   
  32 O32           -6.9864    -6.9377    -7.0323 O.2     
  33 O33           -8.2256    -7.1657    -8.7243 O.2     
  34 H34           -3.7335    -1.6560     1.7631 H       
  35 H35           -2.9305    -3.2193     2.0480 H       
  36 H36           -1.8078    -1.8219     0.2666 H       
  37 H37           -2.3595    -3.4116    -0.3241 H       
  38 H38           -5.4144    -1.6589    -1.8671 H       
  39 H39           -4.7393    -3.3040    -1.7321 H       
  40 H40           -6.5287    -3.0567    -0.0809 H       
  41 H41           -5.7901    -1.5630     0.5463 H       
  42 H42           -3.5061     1.9418    -2.1092 H       
  43 H43           -4.8463     2.9166    -3.9192 H       
  44 H44           -4.4621    -2.0004    -3.5029 H       
  45 H45           -6.5184    -4.5974    -6.3487 H       
  46 H46           -9.0220    -5.0601    -9.7680 H       
  47 H47           -9.2109    -2.6165    -9.9798 H       
  48 H48           -8.0632    -1.1457    -8.3778 H       
  49 H49           -8.2331    -5.1585     3.0366 H       
  50 H50           -7.3341    -4.5688     5.2762 H       
  51 H51           -5.1631    -3.3690     5.4122 H       
  52 H52           -6.6494     3.3746    -4.8660 H       
  53 H53           -5.2135     3.3957    -5.9177 H       
  54 H54           -6.8399     3.2956    -6.6339 H       
@<TRIPOS>BOND
   1    1    2 1
   2    1   23 1
   3    1    6 1
   4    2    3 1
   5    2   34 1
   6    2   35 1
   7    3    4 1
   8    3   36 1
   9    3   37 1
  10    4    5 1
  11    4    7 am
  12    5    6 1
  13    5   38 1
  14    5   39 1
  15    6   40 1
  16    6   41 1
  17    7    8 1
  18    7   15 2
  19    8    9 ar
  20    8   13 ar
  21    9   10 ar
  22    9   42 1
  23   10   11 ar
  24   10   43 1
  25   11   12 ar
  26   11   24 1
  27   12   13 ar
  28   12   14 1
  29   13   44 1
  30   14   16 3
  31   16   17 1
  32   17   18 ar
  33   17   22 ar
  34   18   19 ar
  35   18   45 1
  36   19   20 ar
  37   19   31 1
  38   20   21 ar
  39   20   46 1
  40   21   22 ar
  41   21   47 1
  42   22   48 1
  43   23   25 ar
  44   23   29 ar
  45   24   30 1
  46   25   26 ar
  47   26   27 ar
  48   26   49 1
  49   27   28 ar
  50   27   50 1
  51   28   29 ar
  52   28   51 1
  53   30   52 1
  54   30   53 1
  55   30   54 1
  56   31   32 2
  57   31   33 2

#	End of record

