#	Name: ASD01940026
#	Creating user name:	WinNT
#	Creation time:	15. 06. 2019 20:11

#	Modifying user name:	WinNT
#	Modification time:	15. 06. 2019 20:11

#	Program:	/corina/corina34_cracker 3.40 0067  02.08.2006

@<TRIPOS>MOLECULE
ASD01940026
  50   52    0    0    0
SMALL
NO_CHARGES


@<TRIPOS>ATOM
   1 C1             0.0782     1.5556     0.4851 C.ar    
   2 C2             0.1725     0.3008    -0.1024 C.ar    
   3 C3            -0.9586    -0.4768    -0.2544 C.ar    
   4 C4            -2.1888    -0.0047     0.1796 C.ar    
   5 C5            -2.2839     1.2492     0.7663 C.ar    
   6 C6            -1.1532     2.0254     0.9242 C.ar    
   7 N7             1.2239     2.3440     0.6400 N.pl3   
   8 C8             2.4417     1.7481     0.9147 C.2     
   9 C9             3.6836     2.3636     0.9798 C.2     
  10 C10            4.7270     1.4865     1.2801 C.2     
  11 N11            4.4123     0.2391     1.4557 N.2     
  12 S12            2.7366     0.0882     1.2553 S.3     
  13 O13            6.0111     1.9174     1.3831 O.3     
  14 C14            3.8818     3.8045     0.7538 C.2     
  15 N15            4.1375     4.2744    -0.5176 N.pl3   
  16 N16            3.8154     4.6387     1.7577 N.2     
  17 C17            4.3347     5.7085    -0.7426 C.3     
  18 C18            5.7966     6.0707    -0.4732 C.3     
  19 C19            3.9833     6.0505    -2.1919 C.3     
  20 O20            4.9028     5.3999    -3.0712 O.3     
  21 O21           -3.3019    -0.7709     0.0295 O.3     
  22 C22           -3.1821    -1.9454    -0.6436 C.ar    
  23 C23           -2.8022    -3.0979     0.0311 C.ar    
  24 C24           -2.6813    -4.2919    -0.6552 C.ar    
  25 C25           -2.9377    -4.3395    -2.0127 C.ar    
  26 C26           -3.4447    -1.9957    -2.0047 C.ar    
  27 Cl27          -2.4786    -3.0395     1.7357 Cl      
  28 C28           -3.6209     1.7614     1.2364 C.3     
  29 C29           -3.3164    -3.1915    -2.6887 C.ar    
  30 F30           -3.5657    -3.2405    -4.0156 F       
  31 H31            1.1301    -0.0667    -0.4406 H       
  32 H32           -0.8855    -1.4525    -0.7116 H       
  33 H33           -1.2274     3.0012     1.3811 H       
  34 H34            1.1642     3.3084     0.5547 H       
  35 H35            6.2626     2.1942     2.2749 H       
  36 H36            4.1867     3.6553    -1.2627 H       
  37 H37            3.9460     5.5882     1.6087 H       
  38 H38            3.6903     6.2739    -0.0694 H       
  39 H39            6.4410     5.5053    -1.1464 H       
  40 H40            5.9434     7.1377    -0.6406 H       
  41 H41            6.0470     5.8271     0.5593 H       
  42 H42            2.9705     5.7116    -2.4098 H       
  43 H43            4.0443     7.1292    -2.3357 H       
  44 H44            4.7397     5.5724    -4.0086 H       
  45 H45           -2.3857    -5.1883    -0.1303 H       
  46 H46           -2.8423    -5.2732    -2.5470 H       
  47 H47           -3.7444    -1.1014    -2.5309 H       
  48 H48           -3.7793     1.4652     2.2734 H       
  49 H49           -3.6400     2.8487     1.1622 H       
  50 H50           -4.4106     1.3408     0.6138 H       
@<TRIPOS>BOND
   1    1    2 ar
   2    1    7 1
   3    1    6 ar
   4    2    3 ar
   5    2   31 1
   6    3    4 ar
   7    3   32 1
   8    4    5 ar
   9    4   21 1
  10    5    6 ar
  11    5   28 1
  12    6   33 1
  13    7    8 1
  14    7   34 1
  15    8    9 2
  16    8   12 1
  17    9   10 1
  18    9   14 1
  19   10   11 2
  20   10   13 1
  21   11   12 1
  22   13   35 1
  23   14   15 1
  24   14   16 2
  25   15   17 1
  26   15   36 1
  27   16   37 1
  28   17   18 1
  29   17   19 1
  30   17   38 1
  31   18   39 1
  32   18   40 1
  33   18   41 1
  34   19   20 1
  35   19   42 1
  36   19   43 1
  37   20   44 1
  38   21   22 1
  39   22   23 ar
  40   22   26 ar
  41   23   24 ar
  42   23   27 1
  43   24   25 ar
  44   24   45 1
  45   25   29 ar
  46   25   46 1
  47   26   29 ar
  48   26   47 1
  49   28   48 1
  50   28   49 1
  51   28   50 1
  52   29   30 1

#	End of record

