#	Name: ASD01180115
#	Creating user name:	WinNT
#	Creation time:	15. 06. 2019 19:06

#	Modifying user name:	WinNT
#	Modification time:	15. 06. 2019 19:06

#	Program:	/corina/corina34_cracker 3.40 0067  02.08.2006

@<TRIPOS>MOLECULE
ASD01180115
  45   47    0    0    0
SMALL
NO_CHARGES


@<TRIPOS>ATOM
   1 C1             0.6602     2.1663     2.7361 C.ar    
   2 C2             0.4433     0.8011     2.8004 C.ar    
   3 C3             1.2965    -0.0733     2.1506 C.ar    
   4 C4             2.3706     0.4109     1.4337 C.ar    
   5 C5             2.5959     1.7882     1.3641 C.ar    
   6 C6             1.7299     2.6651     2.0226 C.ar    
   7 C7             3.7417     2.3134     0.6000 C.2     
   8 C8             3.6164     3.4522    -0.0996 C.2     
   9 C9             2.2885     4.0679    -0.2739 C.ar    
  10 C10            2.1533     5.4564    -0.2570 C.ar    
  11 C11            0.8962     6.0287    -0.4222 C.ar    
  12 C12           -0.2208     5.2133    -0.6036 C.ar    
  13 C13           -0.0826     3.8387    -0.6192 C.ar    
  14 C14            1.1613     3.2623    -0.4623 C.ar    
  15 C15            0.7438     7.5040    -0.4051 C.ar    
  16 C16           -0.5136     8.0900    -0.5700 C.ar    
  17 C17           -0.6019     9.4707    -0.5461 C.ar    
  18 N18            0.4987    10.1852    -0.3694 N.ar    
  19 C19            1.6711     9.6018    -0.2166 C.ar    
  20 N20            1.8025     8.2919    -0.2267 N.ar    
  21 S21            3.1019    10.6036     0.0151 S.o     
  22 C22            3.1824    10.7894     1.8178 C.3     
  23 O23            4.1578     9.7588    -0.4215 O.2     
  24 C24            4.3924    11.6493     2.1884 C.3     
  25 C25           -1.9344    10.1529    -0.7198 C.3     
  26 F26           -2.5345    10.3294     0.5316 F       
  27 F27           -1.7447    11.3993    -1.3260 F       
  28 F28           -2.7611     9.3631    -1.5261 F       
  29 H29           -0.0124     2.8430     3.2421 H       
  30 H30           -0.3958     0.4162     3.3610 H       
  31 H31            1.1210    -1.1376     2.2052 H       
  32 H32            3.0361    -0.2728     0.9275 H       
  33 H33            1.8978     3.7308     1.9729 H       
  34 H34            4.6819     1.7821     0.6029 H       
  35 H35            4.4886     3.9173    -0.5347 H       
  36 H36            3.0208     6.0841    -0.1159 H       
  37 H37           -1.1967     5.6578    -0.7318 H       
  38 H38           -0.9513     3.2126    -0.7597 H       
  39 H39            1.2630     2.1872    -0.4754 H       
  40 H40           -1.3941     7.4811    -0.7127 H       
  41 H41            2.2717    11.2707     2.1745 H       
  42 H42            3.2793     9.8072     2.2803 H       
  43 H43            4.4407    11.7610     3.2716 H       
  44 H44            5.3030    11.1680     1.8317 H       
  45 H45            4.2954    12.6315     1.7258 H       
@<TRIPOS>BOND
   1    1    2 ar
   2    1    6 ar
   3    1   29 1
   4    2    3 ar
   5    2   30 1
   6    3    4 ar
   7    3   31 1
   8    4    5 ar
   9    4   32 1
  10    5    6 ar
  11    5    7 1
  12    6   33 1
  13    7    8 2
  14    7   34 1
  15    8    9 1
  16    8   35 1
  17    9   10 ar
  18    9   14 ar
  19   10   11 ar
  20   10   36 1
  21   11   12 ar
  22   11   15 1
  23   12   13 ar
  24   12   37 1
  25   13   14 ar
  26   13   38 1
  27   14   39 1
  28   15   16 ar
  29   15   20 ar
  30   16   17 ar
  31   16   40 1
  32   17   25 1
  33   17   18 ar
  34   18   19 ar
  35   19   20 ar
  36   19   21 1
  37   21   22 1
  38   21   23 2
  39   22   24 1
  40   22   41 1
  41   22   42 1
  42   24   43 1
  43   24   44 1
  44   24   45 1
  45   25   26 1
  46   25   27 1
  47   25   28 1

#	End of record

