#	Name: ASD02030322
#	Creating user name:	WinNT
#	Creation time:	15. 06. 2019 20:15

#	Modifying user name:	WinNT
#	Modification time:	15. 06. 2019 20:15

#	Program:	/corina/corina34_cracker 3.40 0067  02.08.2006

@<TRIPOS>MOLECULE
ASD02030322
  56   60    0    0    0
SMALL
NO_CHARGES


@<TRIPOS>ATOM
   1 N1            -0.3943     1.3246    -0.6828 N.am    
   2 C2            -0.3227    -0.1309    -0.8815 C.3     
   3 C3            -0.7359    -0.8234     0.4230 C.3     
   4 N4            -2.0031    -0.2412     0.8866 N.am    
   5 C5            -2.0804     1.2133     1.0897 C.3     
   6 C6            -1.6456     1.9093    -0.1950 C.3     
   7 C7             0.6738     2.1055    -0.9396 C.2     
   8 C8             2.0383     1.5435    -0.8529 C.2     
   9 N9             3.1514     2.1589    -1.1892 N.2     
  10 N10            2.3613     0.3143    -0.4107 N.2     
  11 C11            3.6628     0.2018    -0.4901 C.2     
  12 N12            4.1432     1.3637    -0.9788 N.pl3   
  13 C13            5.4927     1.6560    -1.2182 C.ar    
  14 O14            0.5150     3.2721    -1.2424 O.2     
  15 C15           -3.0740    -1.0252     1.1209 C.2     
  16 C16           -4.3066    -0.4416     1.6919 C.ar    
  17 O17           -3.0266    -2.2120     0.8626 O.2     
  18 C18           -5.5568    -0.8565     1.2314 C.ar    
  19 C19           -6.7041    -0.3077     1.7695 C.ar    
  20 C20           -6.6151     0.6519     2.7635 C.ar    
  21 C21           -5.3780     1.0668     3.2238 C.ar    
  22 C22           -4.2247     0.5225     2.6982 C.ar    
  23 Cl23          -8.2608    -0.8214     1.1981 Cl      
  24 C24            5.8565     2.8962    -1.7256 C.ar    
  25 C25            7.1873     3.1813    -1.9605 C.ar    
  26 C26            8.1571     2.2332    -1.6908 C.ar    
  27 C27            7.7979     0.9970    -1.1858 C.ar    
  28 C28            6.4693     0.7081    -0.9430 C.ar    
  29 C29           -1.4669     3.4131     0.0533 C.3     
  30 C30           -2.4602     4.1319    -0.8847 C.3     
  31 C31           -3.5532     3.0707    -1.1663 C.3     
  32 C32           -2.7378     1.7567    -1.2682 C.3     
  33 H33           -1.0010    -0.4247    -1.6826 H       
  34 H34            0.6974    -0.4153    -1.1396 H       
  35 H35           -0.8678    -1.8906     0.2443 H       
  36 H36            0.0348    -0.6698     1.1783 H       
  37 H37           -3.1053     1.4950     1.3315 H       
  38 H38           -1.4164     1.5050     1.9034 H       
  39 H39            4.2465    -0.6634    -0.2125 H       
  40 H40           -5.6270    -1.6047     0.4557 H       
  41 H41           -7.5150     1.0786     3.1812 H       
  42 H42           -5.3153     1.8160     3.9992 H       
  43 H43           -3.2599     0.8473     3.0589 H       
  44 H44            5.0995     3.6370    -1.9368 H       
  45 H45            7.4708     4.1457    -2.3556 H       
  46 H46            9.1971     2.4584    -1.8753 H       
  47 H47            8.5575     0.2582    -0.9768 H       
  48 H48            6.1894    -0.2575    -0.5485 H       
  49 H49           -1.6954     3.6502     1.0924 H       
  50 H50           -0.4459     3.7124    -0.1832 H       
  51 H51           -2.8917     5.0016    -0.3891 H       
  52 H52           -1.9661     4.4256    -1.8108 H       
  53 H53           -4.2645     3.0208    -0.3419 H       
  54 H54           -4.0637     3.2821    -2.1059 H       
  55 H55           -2.2902     1.6608    -2.2574 H       
  56 H56           -3.3706     0.8966    -1.0493 H       
@<TRIPOS>BOND
   1    1    2 1
   2    1    7 am
   3    1    6 1
   4    2    3 1
   5    2   33 1
   6    2   34 1
   7    3    4 1
   8    3   35 1
   9    3   36 1
  10    4    5 1
  11    4   15 am
  12    5    6 1
  13    5   37 1
  14    5   38 1
  15    6   29 1
  16    6   32 1
  17    7    8 1
  18    7   14 2
  19    8    9 2
  20    8   10 1
  21    9   12 1
  22   10   11 2
  23   11   12 1
  24   11   39 1
  25   12   13 1
  26   13   24 ar
  27   13   28 ar
  28   15   16 1
  29   15   17 2
  30   16   18 ar
  31   16   22 ar
  32   18   19 ar
  33   18   40 1
  34   19   20 ar
  35   19   23 1
  36   20   21 ar
  37   20   41 1
  38   21   22 ar
  39   21   42 1
  40   22   43 1
  41   24   25 ar
  42   24   44 1
  43   25   26 ar
  44   25   45 1
  45   26   27 ar
  46   26   46 1
  47   27   28 ar
  48   27   47 1
  49   28   48 1
  50   29   30 1
  51   29   49 1
  52   29   50 1
  53   30   31 1
  54   30   51 1
  55   30   52 1
  56   31   32 1
  57   31   53 1
  58   31   54 1
  59   32   55 1
  60   32   56 1

#	End of record

