#	Name: ASD02560346
#	Creating user name:	WinNT
#	Creation time:	15. 06. 2019 20:25

#	Modifying user name:	WinNT
#	Modification time:	15. 06. 2019 20:25

#	Program:	/corina/corina34_cracker 3.40 0067  02.08.2006

@<TRIPOS>MOLECULE
ASD02560346
  40   42    0    0    0
SMALL
NO_CHARGES


@<TRIPOS>ATOM
   1 C1             0.1414     1.3850     1.1365 C.2     
   2 C2             0.1613    -0.0211     1.1157 C.2     
   3 C3             1.2883    -0.6815     0.7827 C.2     
   4 N4             2.4285     0.0045     0.4605 N.pl3   
   5 C5             2.4391     1.3806     0.4717 C.2     
   6 C6             1.2647     2.0815     0.8188 C.2     
   7 C7             3.6796    -0.4090     0.0947 C.2     
   8 C8             4.4316     0.7283    -0.1107 C.2     
   9 N9             3.6472     1.7953     0.1270 N.2     
  10 C10            5.8553     0.7684    -0.5208 C.ar    
  11 N11            4.1124    -1.7289    -0.0436 N.3     
  12 C12            2.9890    -2.6671     0.0818 C.3     
  13 C13            3.3297    -3.9705    -0.6435 C.3     
  14 C14            2.7311    -2.9592     1.5613 C.3     
  15 C15            6.3118     1.7821    -1.3627 C.ar    
  16 C16            7.6373     1.8163    -1.7424 C.ar    
  17 C17            8.5165     0.8431    -1.2879 C.ar    
  18 C18            8.0655    -0.1674    -0.4498 C.ar    
  19 C19            6.7427    -0.2042    -0.0611 C.ar    
  20 O20            9.8220     0.8793    -1.6648 O.3     
  21 C21           10.6717    -0.1530    -1.1605 C.3     
  22 H22           -0.7650     1.9099     1.3999 H       
  23 H23           -0.7310    -0.5747     1.3680 H       
  24 H24            1.2920    -1.7614     0.7705 H       
  25 H25            1.2583     3.1614     0.8318 H       
  26 H26            4.5976    -1.8606    -0.9184 H       
  27 H27            2.0964    -2.2267    -0.3626 H       
  28 H28            4.2223    -4.4110    -0.1991 H       
  29 H29            2.4962    -4.6667    -0.5505 H       
  30 H30            3.5135    -3.7624    -1.6976 H       
  31 H31            1.8975    -3.6553     1.6543 H       
  32 H32            3.6236    -3.3996     2.0057 H       
  33 H33            2.4883    -2.0306     2.0780 H       
  34 H34            5.6282     2.5393    -1.7173 H       
  35 H35            7.9915     2.6011    -2.3944 H       
  36 H36            8.7523    -0.9231    -0.0980 H       
  37 H37            6.3925    -0.9907     0.5910 H       
  38 H38           10.6802    -0.1167    -0.0711 H       
  39 H39           10.2989    -1.1232    -1.4888 H       
  40 H40           11.6841    -0.0065    -1.5368 H       
@<TRIPOS>BOND
   1    1    2 1
   2    1    6 2
   3    1   22 1
   4    2    3 2
   5    2   23 1
   6    3    4 1
   7    3   24 1
   8    4    5 1
   9    4    7 1
  10    5    6 1
  11    5    9 2
  12    6   25 1
  13    7    8 2
  14    7   11 1
  15    8    9 1
  16    8   10 1
  17   10   15 ar
  18   10   19 ar
  19   11   12 1
  20   11   26 1
  21   12   14 1
  22   12   13 1
  23   12   27 1
  24   13   28 1
  25   13   29 1
  26   13   30 1
  27   14   31 1
  28   14   32 1
  29   14   33 1
  30   15   16 ar
  31   15   34 1
  32   16   17 ar
  33   16   35 1
  34   17   18 ar
  35   17   20 1
  36   18   19 ar
  37   18   36 1
  38   19   37 1
  39   20   21 1
  40   21   38 1
  41   21   39 1
  42   21   40 1

#	End of record

