#	Name: ASD03430288
#	Creating user name:	WinNT
#	Creation time:	15. 06. 2019 20:40

#	Modifying user name:	WinNT
#	Modification time:	15. 06. 2019 20:40

#	Program:	/corina/corina34_cracker 3.40 0067  02.08.2006

@<TRIPOS>MOLECULE
ASD03430288
  71   76    0    0    0
SMALL
NO_CHARGES


@<TRIPOS>ATOM
   1 C1            -0.0167     1.3777     0.0096 C.ar    
   2 C2             0.0021    -0.0041     0.0020 C.ar    
   3 C3             1.2022    -0.6817    -0.0141 C.ar    
   4 C4             2.4101     0.0125    -0.0120 C.ar    
   5 C5             2.3884     1.4026    -0.0087 C.ar    
   6 C6             1.1804     2.0827     0.0020 C.ar    
   7 O7             3.4709    -0.8429    -0.0007 O.3     
   8 C8             1.5501    -2.1458    -0.0494 C.3     
   9 C9             3.0359    -2.1458    -0.4348 C.3     
  10 C10            0.4233    -3.8594     1.0067 C.ar    
  11 C11            1.3141    -2.8211     1.2689 C.ar    
  12 C12            0.7156    -2.9050    -1.0405 C.2     
  13 N13            0.0931    -3.8814    -0.3505 N.am    
  14 O14            0.6199    -2.6827    -2.2290 O.2     
  15 C15            1.7815    -2.6050     2.5456 C.ar    
  16 C16            1.3676    -3.4220     3.5830 C.ar    
  17 C17            0.4831    -4.4552     3.3345 C.ar    
  18 C18            0.0115    -4.6758     2.0567 C.ar    
  19 C19           -0.8224    -4.8531    -0.9538 C.3     
  20 N20            1.1669     3.4793     0.0051 N.pl3   
  21 C21           -0.1088     4.1995     0.0164 C.3     
  22 C22            0.0550     5.6160    -0.5952 C.3     
  23 C23           -1.0915     6.3901     0.1019 C.3     
  24 C24           -0.5550     4.4972     1.4634 C.3     
  25 C25           -2.2286    -4.3133    -0.9091 C.2     
  26 C26           -2.8148    -3.5653    -1.8611 C.2     
  27 C27           -4.1249    -3.2824    -1.4110 C.2     
  28 C28           -4.2609    -3.8744    -0.2109 C.2     
  29 O29           -3.1112    -4.5022     0.0855 O.3     
  30 N30           -1.1339     5.8486     1.4724 N.am    
  31 O31           -2.1274     7.7288     2.4324 O.3     
  32 C32           -2.6352     8.3554     3.6398 C.3     
  33 C33           -1.5079     8.4698     4.6679 C.3     
  34 C34           -3.1646     9.7515     3.3059 C.3     
  35 C35           -3.7683     7.5051     4.2178 C.3     
  36 C36           -1.6218     6.4869     2.5545 C.2     
  37 O37           -1.6053     5.9417     3.6403 O.2     
  38 C38           -5.4959    -3.8433     0.6522 C.3     
  39 F39           -6.3179    -4.9284     0.3294 F       
  40 F40           -5.1258    -3.9231     1.9990 F       
  41 F41           -6.1906    -2.6496     0.4295 F       
  42 H42           -0.9579     1.9073     0.0170 H       
  43 H43           -0.9269    -0.5549     0.0091 H       
  44 H44            3.3164     1.9550    -0.0145 H       
  45 H45            3.1561    -2.2547    -1.5127 H       
  46 H46            3.5737    -2.9306     0.0970 H       
  47 H47            2.4720    -1.7971     2.7377 H       
  48 H48            1.7350    -3.2532     4.5845 H       
  49 H49            0.1602    -5.0928     4.1442 H       
  50 H50           -0.6795    -5.4846     1.8704 H       
  51 H51           -0.5337    -5.0296    -1.9899 H       
  52 H52           -0.7750    -5.7900    -0.3988 H       
  53 H53            2.0022     3.9725    -0.0003 H       
  54 H54           -0.8734     3.6350    -0.5174 H       
  55 H55            1.0254     6.0418    -0.3402 H       
  56 H56           -0.0887     5.5941    -1.6755 H       
  57 H57           -0.8710     7.4574     0.1223 H       
  58 H58           -2.0375     6.2071    -0.4078 H       
  59 H59           -1.3046     3.7707     1.7771 H       
  60 H60            0.3050     4.4578     2.1320 H       
  61 H61           -2.3698    -3.2423    -2.7906 H       
  62 H62           -4.8727    -2.7020    -1.9309 H       
  63 H63           -0.7007     9.0755     4.2561 H       
  64 H64           -1.8891     8.9402     5.5742 H       
  65 H65           -1.1308     7.4751     4.9057 H       
  66 H66           -3.9677     9.6700     2.5734 H       
  67 H67           -3.5458    10.2219     4.2122 H       
  68 H68           -2.3573    10.3573     2.8941 H       
  69 H69           -3.3912     6.5105     4.4557 H       
  70 H70           -4.1495     7.9756     5.1242 H       
  71 H71           -4.5714     7.4237     3.4854 H       
@<TRIPOS>BOND
   1    1    2 ar
   2    1    6 ar
   3    1   42 1
   4    2    3 ar
   5    2   43 1
   6    3    4 ar
   7    3    8 1
   8    4    5 ar
   9    4    7 1
  10    5    6 ar
  11    5   44 1
  12    6   20 1
  13    7    9 1
  14    8    9 1
  15    8   11 1
  16    8   12 1
  17    9   45 1
  18    9   46 1
  19   10   11 ar
  20   10   13 1
  21   10   18 ar
  22   11   15 ar
  23   12   13 am
  24   12   14 2
  25   13   19 1
  26   15   16 ar
  27   15   47 1
  28   16   17 ar
  29   16   48 1
  30   17   18 ar
  31   17   49 1
  32   18   50 1
  33   19   25 1
  34   19   51 1
  35   19   52 1
  36   20   21 1
  37   20   53 1
  38   21   22 1
  39   21   24 1
  40   21   54 1
  41   22   23 1
  42   22   55 1
  43   22   56 1
  44   23   30 1
  45   23   57 1
  46   23   58 1
  47   24   30 1
  48   24   59 1
  49   24   60 1
  50   25   26 2
  51   25   29 1
  52   26   27 1
  53   26   61 1
  54   27   28 2
  55   27   62 1
  56   28   29 1
  57   28   38 1
  58   30   36 am
  59   31   32 1
  60   31   36 1
  61   32   33 1
  62   32   34 1
  63   32   35 1
  64   33   63 1
  65   33   64 1
  66   33   65 1
  67   34   66 1
  68   34   67 1
  69   34   68 1
  70   35   69 1
  71   35   70 1
  72   35   71 1
  73   36   37 2
  74   38   39 1
  75   38   40 1
  76   38   41 1

#	End of record

