#	Name: ASD03091043
#	Creating user name:	WinNT
#	Creation time:	15. 06. 2019 20:29

#	Modifying user name:	WinNT
#	Modification time:	15. 06. 2019 20:29

#	Program:	/corina/corina34_cracker 3.40 0067  02.08.2006

@<TRIPOS>MOLECULE
ASD03091043
  27   27    0    0    0
SMALL
NO_CHARGES


@<TRIPOS>ATOM
   1 C1             0.4278     1.4331    -0.2709 C.2     
   2 C2             0.2183    -0.0241    -0.1343 C.ar    
   3 C3             0.7087    -0.7007     0.9839 C.ar    
   4 C4             0.5107    -2.0603     1.1065 C.ar    
   5 C5            -0.1726    -2.7549     0.1244 C.ar    
   6 C6            -0.6625    -2.0905    -0.9884 C.ar    
   7 C7            -0.4753    -0.7274    -1.1197 C.ar    
   8 O8             1.5543     1.8893    -0.2552 O.2     
   9 N9            -0.6301     2.2551    -0.4185 N.am    
  10 N10            1.4406     0.0396     2.0361 N.pl3   
  11 O11            1.9806    -0.5670     2.9439 O.2     
  12 O12            1.5028     1.2553     1.9942 O.2     
  13 C13           -0.4226     3.6990    -0.5539 C.3     
  14 C14           -1.7757     4.3966    -0.7064 C.3     
  15 C15           -1.5589     5.9046    -0.8478 C.3     
  16 F16           -1.3288    -2.7751    -1.9436 F       
  17 H17            0.8903    -2.5840     1.9714 H       
  18 H18           -0.3246    -3.8194     0.2254 H       
  19 H19           -0.8610    -0.2089    -1.9850 H       
  20 H20           -1.5289     1.8906    -0.4351 H       
  21 H21            0.0837     4.0781     0.3339 H       
  22 H22            0.1896     3.8971    -1.4337 H       
  23 H23           -2.2819     4.0175    -1.5942 H       
  24 H24           -2.3879     4.1985     0.1734 H       
  25 H25           -1.0527     6.2837     0.0399 H       
  26 H26           -0.9467     6.1028    -1.7276 H       
  27 H27           -2.5229     6.4016    -0.9565 H       
@<TRIPOS>BOND
   1    1    2 1
   2    1    8 2
   3    1    9 am
   4    2    3 ar
   5    2    7 ar
   6    3    4 ar
   7    3   10 1
   8    4    5 ar
   9    4   17 1
  10    5    6 ar
  11    5   18 1
  12    6    7 ar
  13    6   16 1
  14    7   19 1
  15    9   13 1
  16    9   20 1
  17   10   11 2
  18   10   12 2
  19   13   14 1
  20   13   21 1
  21   13   22 1
  22   14   15 1
  23   14   23 1
  24   14   24 1
  25   15   25 1
  26   15   26 1
  27   15   27 1

#	End of record

