#	Name: ASD06170135
#	Creating user name:	WinNT
#	Creation time:	15. 06. 2019 21:05

#	Modifying user name:	WinNT
#	Modification time:	15. 06. 2019 21:05

#	Program:	/corina/corina34_cracker 3.40 0067  02.08.2006

@<TRIPOS>MOLECULE
ASD06170135
  73   78    0    0    0
SMALL
NO_CHARGES


@<TRIPOS>ATOM
   1 N1             0.0631     1.1975    -0.6221 N.pl3   
   2 N2             0.0488    -0.1914    -0.4628 N.am    
   3 C3             1.2861    -0.5957    -0.1077 C.2     
   4 C4             2.1192     0.6156    -0.0426 C.2     
   5 C5             1.2968     1.6755    -0.3714 C.2     
   6 C6             3.5439     0.6840     0.3037 C.2     
   7 O7             4.1152     1.7584     0.3203 O.2     
   8 N8             4.2195    -0.4431     0.6034 N.am    
   9 C9            -1.0618    -1.0224    -0.6416 C.ar    
  10 C10           -1.9035    -0.8347    -1.7303 C.ar    
  11 C11           -2.9991    -1.6573    -1.9042 C.ar    
  12 C12           -3.2588    -2.6668    -0.9955 C.ar    
  13 C13           -2.4231    -2.8561     0.0899 C.ar    
  14 C14           -1.3223    -2.0408     0.2661 C.ar    
  15 O15            1.6429    -1.7375     0.1153 O.2     
  16 C16            1.7108     3.1229    -0.4390 C.3     
  17 C17           -1.0914     2.0115    -1.0105 C.3     
  18 C18           -1.7257     2.6259     0.2389 C.3     
  19 C19           -3.0023     3.3731    -0.1520 C.3     
  20 C20           -2.0689     1.5163     1.2349 C.3     
  21 O21           -0.8052     3.5383     0.8409 O.3     
  22 C22            5.6084    -0.4017     0.7773 C.ar    
  23 C23            6.2206     0.7704     1.2019 C.ar    
  24 C24            7.5915     0.8102     1.3737 C.ar    
  25 C25            8.3560    -0.3227     1.1214 C.ar    
  26 C26            7.7438    -1.4922     0.6976 C.ar    
  27 C27            6.3730    -1.5340     0.5308 C.ar    
  28 O28            9.7050    -0.2839     1.2899 O.3     
  29 C29           12.0395    -0.3119     4.1158 C.ar    
  30 C30           11.5688    -0.3328     2.8000 C.ar    
  31 C31           10.1886    -0.2658     2.5583 C.ar    
  32 C32            9.3281    -0.1802     3.6442 C.ar    
  33 C33            9.8578    -0.1638     4.9229 C.ar    
  34 N34           11.1507    -0.2273     5.1283 N.ar    
  35 C35           13.4399    -0.3918     4.1870 C.2     
  36 C36           14.0745    -0.4726     3.0121 C.2     
  37 S37           12.9252    -0.4467     1.6859 S.3     
  38 C38           17.5487    -0.6567     1.9838 C.2     
  39 N39           17.6697    -0.7305     3.2824 N.2     
  40 C40           16.4601    -0.6771     3.8494 C.2     
  41 C41           15.5359    -0.5641     2.8532 C.2     
  42 N42           16.2396    -0.5520     1.6684 N.pl3   
  43 C43           15.6744    -0.4453     0.3210 C.3     
  44 F44            8.1881     1.9499     1.7863 F       
  45 H45            3.7436    -1.2830     0.6986 H       
  46 H46           -1.7016    -0.0460    -2.4400 H       
  47 H47           -3.6539    -1.5118    -2.7506 H       
  48 H48           -4.1165    -3.3085    -1.1335 H       
  49 H49           -2.6291    -3.6449     0.7982 H       
  50 H50           -0.6673    -2.1922     1.1114 H       
  51 H51            1.5640     3.5887     0.5355 H       
  52 H52            2.7626     3.1874    -0.7177 H       
  53 H53            1.1052     3.6396    -1.1836 H       
  54 H54           -0.7662     2.8067    -1.6813 H       
  55 H55           -1.8238     1.3842    -1.5187 H       
  56 H56           -3.7045     2.6771    -0.6112 H       
  57 H57           -3.4542     3.8108     0.7381 H       
  58 H58           -2.7578     4.1636    -0.8616 H       
  59 H59           -1.1594     0.9840     1.5134 H       
  60 H60           -2.5208     1.9540     2.1250 H       
  61 H61           -2.7710     0.8204     0.7757 H       
  62 H62           -0.5429     4.2695     0.2651 H       
  63 H63            5.6258     1.6505     1.3974 H       
  64 H64            8.3384    -2.3722     0.5017 H       
  65 H65            5.8965    -2.4467     0.2049 H       
  66 H66            8.2600    -0.1267     3.4934 H       
  67 H67            9.1912    -0.0969     5.7699 H       
  68 H68           13.9696    -0.3878     5.1283 H       
  69 H69           18.3646    -0.6723     1.2763 H       
  70 H70           16.2520    -0.7164     4.9084 H       
  71 H71           15.4645    -1.4428    -0.0650 H       
  72 H72           14.7503     0.1314     0.3593 H       
  73 H73           16.3880     0.0550    -0.3337 H       
@<TRIPOS>BOND
   1    1    2 1
   2    1    5 1
   3    1   17 1
   4    2    3 am
   5    2    9 1
   6    3    4 1
   7    3   15 2
   8    4    5 2
   9    4    6 1
  10    5   16 1
  11    6    7 2
  12    6    8 am
  13    8   22 1
  14    8   45 1
  15    9   10 ar
  16    9   14 ar
  17   10   11 ar
  18   10   46 1
  19   11   12 ar
  20   11   47 1
  21   12   13 ar
  22   12   48 1
  23   13   14 ar
  24   13   49 1
  25   14   50 1
  26   16   51 1
  27   16   52 1
  28   16   53 1
  29   17   18 1
  30   17   54 1
  31   17   55 1
  32   18   19 1
  33   18   20 1
  34   18   21 1
  35   19   56 1
  36   19   57 1
  37   19   58 1
  38   20   59 1
  39   20   60 1
  40   20   61 1
  41   21   62 1
  42   22   23 ar
  43   22   27 ar
  44   23   24 ar
  45   23   63 1
  46   24   25 ar
  47   24   44 1
  48   25   26 ar
  49   25   28 1
  50   26   27 ar
  51   26   64 1
  52   27   65 1
  53   28   31 1
  54   29   30 ar
  55   29   34 ar
  56   29   35 1
  57   30   31 ar
  58   30   37 1
  59   31   32 ar
  60   32   33 ar
  61   32   66 1
  62   33   34 ar
  63   33   67 1
  64   35   36 2
  65   35   68 1
  66   36   37 1
  67   36   41 1
  68   38   39 2
  69   38   42 1
  70   38   69 1
  71   39   40 1
  72   40   41 2
  73   40   70 1
  74   41   42 1
  75   42   43 1
  76   43   71 1
  77   43   72 1
  78   43   73 1

#	End of record

