#	Name: ASD01885980
#	Creating user name:	WinNT
#	Creation time:	15. 06. 2019 19:50

#	Modifying user name:	WinNT
#	Modification time:	15. 06. 2019 19:50

#	Program:	/corina/corina34_cracker 3.40 0067  02.08.2006

@<TRIPOS>MOLECULE
ASD01885980
  54   56    0    0    0
SMALL
NO_CHARGES


@<TRIPOS>ATOM
   1 C1            -0.0172     1.4142     0.0098 C.ar    
   2 C2             0.0021    -0.0041     0.0020 C.ar    
   3 C3            -1.2275    -0.7102     0.0099 C.ar    
   4 C4            -2.4017     0.0295     0.0251 C.ar    
   5 C5            -2.3351     1.4294     0.0320 C.ar    
   6 N6            -1.1781     2.0676     0.0299 N.ar    
   7 C7             1.2059     2.1136     0.0019 C.ar    
   8 C8             2.3777     1.4234    -0.0130 C.ar    
   9 C9             2.3912     0.0296    -0.0205 C.ar    
  10 C10            1.2286    -0.6809    -0.0128 C.ar    
  11 C11            3.6824     2.1776    -0.0219 C.3     
  12 N12            4.1186     2.4151     1.3564 N.am    
  13 C13           -3.5885     2.2103     0.0482 C.2     
  14 C14           -3.5379     3.7164     0.0558 C.3     
  15 C15           -1.2577    -2.1906     0.0017 C.ar    
  16 C16           -2.0386    -2.8798     0.9300 C.ar    
  17 C17           -2.0634    -4.2587     0.9183 C.ar    
  18 C18           -1.3139    -4.9597    -0.0132 C.ar    
  19 C19           -0.5362    -4.2796    -0.9372 C.ar    
  20 C20           -0.5099    -2.9007    -0.9379 C.ar    
  21 S21            5.1859     1.3826     2.1074 S.o2    
  22 C22            6.4221     2.5168     2.8119 C.3     
  23 C23            5.6841     3.6341     3.5578 C.3     
  24 C24            4.8116     4.4186     2.5807 C.3     
  25 C25            3.6312     3.5761     2.1154 C.3     
  26 F26           -1.3412    -6.3104    -0.0204 F       
  27 O27            4.4228     0.7672     3.1361 O.2     
  28 O28            5.7482     0.6192     1.0490 O.2     
  29 O29           -4.6545     1.6416     0.0553 O.2     
  30 H30           -3.3593    -0.4698     0.0311 H       
  31 H31            1.2128     3.1936     0.0072 H       
  32 H32            3.3357    -0.4941    -0.0327 H       
  33 H33            1.2525    -1.7606    -0.0185 H       
  34 H34            4.4373     1.5915    -0.5460 H       
  35 H35            3.5466     3.1325    -0.5296 H       
  36 H36           -3.5356     4.0851    -0.9699 H       
  37 H37           -4.4103     4.1066     0.5801 H       
  38 H38           -2.6314     4.0470     0.5628 H       
  39 H39           -2.6225    -2.3344     1.6567 H       
  40 H40           -2.6676    -4.7931     1.6364 H       
  41 H41            0.0464    -4.8303    -1.6608 H       
  42 H42            0.0965    -2.3717    -1.6582 H       
  43 H43            7.0645     1.9745     3.5057 H       
  44 H44            7.0250     2.9458     2.0115 H       
  45 H45            5.0561     3.1980     4.3347 H       
  46 H46            6.4105     4.3060     4.0149 H       
  47 H47            4.4405     5.3177     3.0727 H       
  48 H48            5.4093     4.7043     1.7152 H       
  49 H49            2.9820     4.1795     1.4808 H       
  50 H50            3.0698     3.2273     2.9821 H       
  51 N51           12.6029    11.3266    10.1091 N.3     
  52 H52           12.6166    10.3177    10.1035 H       
  53 H53           13.5399    11.7010    10.1021 H       
  54 H54           12.0645    11.6852     9.3347 H       
@<TRIPOS>BOND
   1    1    2 ar
   2    1    7 ar
   3    1    6 ar
   4    2    3 ar
   5    2   10 ar
   6    3    4 ar
   7    3   15 1
   8    4    5 ar
   9    4   30 1
  10    5    6 ar
  11    5   13 1
  12    7    8 ar
  13    7   31 1
  14    8    9 ar
  15    8   11 1
  16    9   10 ar
  17    9   32 1
  18   10   33 1
  19   11   12 1
  20   11   34 1
  21   11   35 1
  22   12   21 am
  23   12   25 1
  24   13   14 1
  25   13   29 2
  26   14   36 1
  27   14   37 1
  28   14   38 1
  29   15   16 ar
  30   15   20 ar
  31   16   17 ar
  32   16   39 1
  33   17   18 ar
  34   17   40 1
  35   18   19 ar
  36   18   26 1
  37   19   20 ar
  38   19   41 1
  39   20   42 1
  40   21   22 1
  41   21   27 2
  42   21   28 2
  43   22   23 1
  44   22   43 1
  45   22   44 1
  46   23   24 1
  47   23   45 1
  48   23   46 1
  49   24   25 1
  50   24   47 1
  51   24   48 1
  52   25   49 1
  53   25   50 1
  54   51   52 1
  55   51   53 1
  56   51   54 1

#	End of record

