#	Name: ASD08151029
#	Creating user name:	WinNT
#	Creation time:	15. 06. 2019 21:17

#	Modifying user name:	WinNT
#	Modification time:	15. 06. 2019 21:17

#	Program:	/corina/corina34_cracker 3.40 0067  02.08.2006

@<TRIPOS>MOLECULE
ASD08151029
  29   30    0    0    0
SMALL
NO_CHARGES


@<TRIPOS>ATOM
   1 N1             0.3452     1.2189     0.5474 N.ar    
   2 C2             0.4407    -0.0763     0.7239 C.ar    
   3 C3             1.6700    -0.6972     0.9369 C.ar    
   4 C4             2.8140     0.0487     0.9650 C.ar    
   5 C5             2.7065     1.4392     0.7746 C.ar    
   6 C6             3.8460     2.2654     0.7923 C.ar    
   7 C7             3.7201     3.6048     0.6073 C.ar    
   8 C8             2.4573     4.1871     0.3955 C.ar    
   9 C9             1.3113     3.3980     0.3723 C.ar    
  10 C10            1.4258     2.0043     0.5635 C.ar    
  11 C11            2.3471     5.6440     0.1971 C.2     
  12 O12            1.3949     6.2491     0.6509 O.2     
  13 N13            3.3016     6.3050    -0.4873 N.am    
  14 C14            3.1375     7.7308    -0.7815 C.3     
  15 O15            4.4630     5.6215    -0.9219 O.3     
  16 C16            4.3868     5.1426    -2.2661 C.3     
  17 O17            0.0963     3.9628     0.1688 O.3     
  18 Cl18           5.4156     1.5707     1.0519 Cl      
  19 H19           -0.4562    -0.6776     0.7041 H       
  20 H20            1.7180    -1.7666     1.0800 H       
  21 H21            3.7750    -0.4159     1.1292 H       
  22 H22            4.6002     4.2306     0.6234 H       
  23 H23            3.5664     8.3206     0.0287 H       
  24 H24            3.6475     7.9702    -1.7146 H       
  25 H25            2.0767     7.9623    -0.8773 H       
  26 H26            5.3145     4.6311    -2.5228 H       
  27 H27            3.5517     4.4480    -2.3575 H       
  28 H28            4.2360     5.9832    -2.9433 H       
  29 H29           -0.1621     4.0154    -0.7616 H       
@<TRIPOS>BOND
   1    1    2 ar
   2    1   10 ar
   3    2    3 ar
   4    2   19 1
   5    3    4 ar
   6    3   20 1
   7    4    5 ar
   8    4   21 1
   9    5    6 ar
  10    5   10 ar
  11    6    7 ar
  12    6   18 1
  13    7    8 ar
  14    7   22 1
  15    8    9 ar
  16    8   11 1
  17    9   10 ar
  18    9   17 1
  19   11   12 2
  20   11   13 am
  21   13   14 1
  22   13   15 1
  23   14   23 1
  24   14   24 1
  25   14   25 1
  26   15   16 1
  27   16   26 1
  28   16   27 1
  29   16   28 1
  30   17   29 1

#	End of record

