#	Name: ASD02198484
#	Creating user name:	WinNT
#	Creation time:	15. 06. 2019 20:19

#	Modifying user name:	WinNT
#	Modification time:	15. 06. 2019 20:19

#	Program:	/corina/corina34_cracker 3.40 0067  02.08.2006

@<TRIPOS>MOLECULE
ASD02198484
  42   45    0    0    0
SMALL
NO_CHARGES


@<TRIPOS>ATOM
   1 C1             0.0829     1.0100    -0.1359 C.2     
   2 C2             0.3421    -0.3188    -0.2217 C.2     
   3 N3             1.6140    -0.7783    -0.2235 N.pl3   
   4 N4             2.6393    -0.0129    -0.1461 N.2     
   5 C5             2.5299     1.2951    -0.0582 C.2     
   6 C6             1.1852     1.8941    -0.0488 C.2     
   7 C7             1.8213    -2.1587    -0.3141 C.ar    
   8 C8             3.3070    -4.0282    -0.5641 C.ar    
   9 C9             2.2247    -4.8939    -0.4927 C.ar    
  10 C10            0.9456    -4.3932    -0.3384 C.ar    
  11 C11            0.7408    -3.0303    -0.2490 C.ar    
  12 C12            3.7336     2.1466     0.0295 C.2     
  13 N13            4.8697     1.8760     0.7392 N.pl3   
  14 N14            5.7566     2.9427     0.5474 N.2     
  15 C15            5.1923     3.8231    -0.2403 C.2     
  16 C16            3.9247     3.3604    -0.5936 C.2     
  17 C17            5.1047     0.7364     1.5188 C.ar    
  18 C18            4.1046     0.2398     2.3445 C.ar    
  19 O19            1.0272     3.1031     0.0307 O.2     
  20 C20            3.1058    -2.6596    -0.4748 C.ar    
  21 C21            6.3364     0.0974     1.4636 C.ar    
  22 C22            6.5651    -1.0261     2.2336 C.ar    
  23 C23            5.5690    -1.5147     3.0591 C.ar    
  24 C24            4.3395    -0.8840     3.1121 C.ar    
  25 O25            4.5639    -4.5221    -0.7159 O.3     
  26 C26            4.6975    -5.9427    -0.7948 C.3     
  27 H27           -0.9311     1.3817    -0.1384 H       
  28 H28           -0.4777    -1.0187    -0.2890 H       
  29 H29            2.3821    -5.9604    -0.5578 H       
  30 H30            0.1052    -5.0692    -0.2835 H       
  31 H31           -0.2596    -2.6417    -0.1281 H       
  32 H32            5.6364     4.7521    -0.5661 H       
  33 H33            3.2175     3.8661    -1.2343 H       
  34 H34            3.1443     0.7322     2.3865 H       
  35 H35            3.9468    -1.9844    -0.5306 H       
  36 H36            7.1146     0.4784     0.8188 H       
  37 H37            7.5226    -1.5237     2.1908 H       
  38 H38            5.7501    -2.3937     3.6600 H       
  39 H39            3.5637    -1.2679     3.7580 H       
  40 H40            5.7493    -6.2026    -0.9148 H       
  41 H41            4.3135    -6.3951     0.1195 H       
  42 H42            4.1318    -6.3139    -1.6494 H       
@<TRIPOS>BOND
   1    1    2 2
   2    1    6 1
   3    1   27 1
   4    2    3 1
   5    2   28 1
   6    3    4 1
   7    3    7 1
   8    4    5 2
   9    5    6 1
  10    5   12 1
  11    6   19 2
  12    7   20 ar
  13    7   11 ar
  14    8    9 ar
  15    8   25 1
  16    8   20 ar
  17    9   10 ar
  18    9   29 1
  19   10   11 ar
  20   10   30 1
  21   11   31 1
  22   12   13 1
  23   12   16 2
  24   13   14 1
  25   13   17 1
  26   14   15 2
  27   15   16 1
  28   15   32 1
  29   16   33 1
  30   17   21 ar
  31   17   18 ar
  32   18   24 ar
  33   18   34 1
  34   20   35 1
  35   21   22 ar
  36   21   36 1
  37   22   23 ar
  38   22   37 1
  39   23   24 ar
  40   23   38 1
  41   24   39 1
  42   25   26 1
  43   26   40 1
  44   26   41 1
  45   26   42 1

#	End of record

