#	Name: ASD03091652
#	Creating user name:	WinNT
#	Creation time:	15. 06. 2019 20:31

#	Modifying user name:	WinNT
#	Modification time:	15. 06. 2019 20:31

#	Program:	/corina/corina34_cracker 3.40 0067  02.08.2006

@<TRIPOS>MOLECULE
ASD03091652
  44   45    0    0    0
SMALL
NO_CHARGES


@<TRIPOS>ATOM
   1 Cl1            0.0000     0.0000     0.0000 Cl      
   2 H2             0.0000     1.3700     0.0000 H       
   3 Cl3            5.0000     6.3700     5.0000 Cl      
   4 H4             5.0000     7.7400     5.0000 H       
   5 C5            19.5244    16.7167    11.5736 C.ar    
   6 C6            19.5434    15.3167    11.5659 C.ar    
   7 C7            20.7638    14.6333    11.5510 C.ar    
   8 C8            21.9419    15.3185    11.5443 C.ar    
   9 C9            21.9440    16.7140    11.5518 C.ar    
  10 C10           20.7586    17.4111    11.5655 C.ar    
  11 S11           17.8924    14.7059    11.5783 S.3     
  12 C12           17.2370    16.3336    11.5933 C.2     
  13 C13           18.2212    17.2388    11.5945 C.2     
  14 C14           15.8033    16.6575    11.6080 C.2     
  15 O15           15.4421    17.8191    11.6173 O.2     
  16 N16           14.8888    15.6674    11.6111 N.am    
  17 N17           11.9511    15.2465    13.4051 N.3     
  18 C18           13.0000    16.2184    13.0685 C.3     
  19 C19           13.4598    15.9902    11.6257 C.3     
  20 C20           12.6630    14.8222    11.0311 C.3     
  21 C21           11.1701    15.1705    11.0857 C.3     
  22 C22           10.7736    15.4208    12.5434 C.3     
  23 C23           12.4613    13.8707    13.3265 C.3     
  24 C24           12.9064    13.5758    11.8914 C.3     
  25 N25           23.1593    17.4080    11.5448 N.pl3   
  26 H26           20.7726    13.5533    11.5451 H       
  27 H27           22.8776    14.7794    11.5335 H       
  28 H28           20.7690    18.4911    11.5712 H       
  29 H29           18.0265    18.3011    11.6029 H       
  30 H30           15.1767    14.7412    11.6037 H       
  31 H31           12.6047    17.2293    13.1685 H       
  32 H32           13.8455    16.0897    13.7443 H       
  33 H33           13.2809    16.8909    11.0384 H       
  34 H34           12.9693    14.6459    10.0000 H       
  35 H35           10.9828    16.0685    10.4969 H       
  36 H36           10.5868    14.3411    10.6858 H       
  37 H37           10.0000    14.7112    12.8368 H       
  38 H38           10.3939    16.4372    12.6476 H       
  39 H39           13.3102    13.7586    14.0009 H       
  40 H40           11.6738    13.1739    13.6135 H       
  41 H41           12.3300    12.7400    11.4947 H       
  42 H42           13.9676    13.3271    11.8820 H       
  43 H43           23.9970    16.9190    11.5348 H       
  44 H44           23.1639    18.3779    11.5500 H       
@<TRIPOS>BOND
   1    1    2 1
   2    3    4 1
   3    5    6 ar
   4    5   10 ar
   5    5   13 1
   6    6    7 ar
   7    6   11 1
   8    7    8 ar
   9    7   26 1
  10    8    9 ar
  11    8   27 1
  12    9   10 ar
  13    9   25 1
  14   10   28 1
  15   11   12 1
  16   12   13 2
  17   12   14 1
  18   13   29 1
  19   14   15 2
  20   14   16 am
  21   16   19 1
  22   16   30 1
  23   17   18 1
  24   17   22 1
  25   17   23 1
  26   18   19 1
  27   18   31 1
  28   18   32 1
  29   19   20 1
  30   19   33 1
  31   20   21 1
  32   20   24 1
  33   20   34 1
  34   21   22 1
  35   21   35 1
  36   21   36 1
  37   22   37 1
  38   22   38 1
  39   23   24 1
  40   23   39 1
  41   23   40 1
  42   24   41 1
  43   24   42 1
  44   25   43 1
  45   25   44 1

#	End of record

