#	Name: ASD01028633
#	Creating user name:	WinNT
#	Creation time:	15. 06. 2019 18:57

#	Modifying user name:	WinNT
#	Modification time:	15. 06. 2019 18:57

#	Program:	/corina/corina34_cracker 3.40 0067  02.08.2006

@<TRIPOS>MOLECULE
ASD01028633
  48   52    0    0    0
SMALL
NO_CHARGES


@<TRIPOS>ATOM
   1 C1            -0.0164     1.3589     0.0095 C.2     
   2 N2             0.0021    -0.0041     0.0020 N.pl3   
   3 C3             1.1492     2.0644     0.0022 C.2     
   4 C4             2.3911     1.3836    -0.0134 C.2     
   5 C5             2.4121     0.0246    -0.0209 C.2     
   6 C6             1.1931    -0.6868    -0.0131 C.2     
   7 N7             0.8956    -1.9761    -0.0176 N.2     
   8 N8            -0.3827    -2.1220    -0.0063 N.2     
   9 C9            -0.9723    -0.9543     0.0062 C.2     
  10 C10           -3.7124    -0.5486     2.1557 C.ar    
  11 C11           -3.0595    -1.3325     1.2540 C.ar    
  12 C12           -2.9399    -2.7059     1.4554 C.ar    
  13 C13           -3.4714    -3.3033     2.5568 C.ar    
  14 C14           -4.1529    -2.5279     3.5108 C.ar    
  15 C15           -4.2730    -1.1309     3.3040 C.ar    
  16 N16           -4.6850    -3.0888     4.6015 N.ar    
  17 C17           -5.3222    -2.3735     5.4953 C.ar    
  18 C18           -5.4777    -0.9908     5.3541 C.ar    
  19 C19           -4.9553    -0.3549     4.2589 C.ar    
  20 C20            1.1175     3.5436     0.0100 C.2     
  21 C21           -2.4587    -0.7065     0.0218 C.3     
  22 F22            3.5888    -0.6390    -0.0353 F       
  23 C23            1.5684     4.3920     0.9963 C.2     
  24 C24            1.4021     5.7260     0.7150 C.2     
  25 N25            0.8537     6.0569    -0.4163 N.2     
  26 S26            0.4976     4.6233    -1.2516 S.3     
  27 C27            1.8446     6.7817     1.6952 C.3     
  28 C28           -3.0921    -1.3261    -1.2255 C.3     
  29 O29           -6.1445    -0.2799     6.3013 O.3     
  30 C30           -6.6611    -1.0094     7.4162 C.3     
  31 H31           -0.9608     1.8828     0.0168 H       
  32 H32            3.3161     1.9411    -0.0196 H       
  33 H33           -3.7949     0.5156     1.9909 H       
  34 H34           -2.4172    -3.3063     0.7255 H       
  35 H35           -3.3702    -4.3694     2.6971 H       
  36 H36           -5.7382    -2.8641     6.3629 H       
  37 H37           -5.0644     0.7121     4.1319 H       
  38 H38           -2.6481     0.3669     0.0305 H       
  39 H39            2.0149     4.0383     1.9139 H       
  40 H40            2.8785     7.0585     1.4890 H       
  41 H41            1.2066     7.6599     1.5960 H       
  42 H42            1.7687     6.3902     2.7097 H       
  43 H43           -4.1672    -1.1469    -1.2143 H       
  44 H44           -2.6576    -0.8733    -2.1168 H       
  45 H45           -2.9027    -2.3995    -1.2342 H       
  46 H46           -7.3672    -1.7609     7.0629 H       
  47 H47           -5.8411    -1.4996     7.9410 H       
  48 H48           -7.1689    -0.3243     8.0949 H       
@<TRIPOS>BOND
   1    1    2 1
   2    1    3 2
   3    1   31 1
   4    2    6 1
   5    2    9 1
   6    3    4 1
   7    3   20 1
   8    4    5 2
   9    4   32 1
  10    5    6 1
  11    5   22 1
  12    6    7 2
  13    7    8 1
  14    8    9 2
  15    9   21 1
  16   10   11 ar
  17   10   15 ar
  18   10   33 1
  19   11   12 ar
  20   11   21 1
  21   12   13 ar
  22   12   34 1
  23   13   14 ar
  24   13   35 1
  25   14   15 ar
  26   14   16 ar
  27   15   19 ar
  28   16   17 ar
  29   17   18 ar
  30   17   36 1
  31   18   19 ar
  32   18   29 1
  33   19   37 1
  34   20   23 2
  35   20   26 1
  36   21   28 1
  37   21   38 1
  38   23   24 1
  39   23   39 1
  40   24   25 2
  41   24   27 1
  42   25   26 1
  43   27   40 1
  44   27   41 1
  45   27   42 1
  46   28   43 1
  47   28   44 1
  48   28   45 1
  49   29   30 1
  50   30   46 1
  51   30   47 1
  52   30   48 1

#	End of record

