#	Name: ASD03090610
#	Creating user name:	WinNT
#	Creation time:	15. 06. 2019 20:29

#	Modifying user name:	WinNT
#	Modification time:	15. 06. 2019 20:29

#	Program:	/corina/corina34_cracker 3.40 0067  02.08.2006

@<TRIPOS>MOLECULE
ASD03090610
  34   35    0    0    0
SMALL
NO_CHARGES


@<TRIPOS>ATOM
   1 N1            -0.0162     1.3436     0.0094 N.am    
   2 C2             0.0205     0.1479     0.6304 C.2     
   3 O3             1.0744    -0.2840     1.0560 O.2     
   4 N4            -1.1110    -0.5689     0.7797 N.am    
   5 S5            -2.4173    -2.8303     1.6882 S.3     
   6 C6            -1.0732    -1.8026     1.4204 C.2     
   7 N7            -0.0127    -2.3669     1.9144 N.2     
   8 N8            -0.1516    -3.4942     2.4657 N.2     
   9 C9            -1.3496    -3.9855     2.4866 C.2     
  10 C10           -1.7582    -5.3067     3.0853 C.3     
  11 F11           -0.6591    -5.8879     3.7265 F       
  12 F12           -2.7843    -5.1005     4.0136 F       
  13 F13           -2.2106    -6.1581     2.0716 F       
  14 C14            1.1446     2.1281    -0.0715 C.ar    
  15 C15            1.0432     3.5106    -0.2003 C.ar    
  16 C16            2.1913     4.2837    -0.2796 C.ar    
  17 C17            3.4394     3.6784    -0.2304 C.ar    
  18 C18            3.5385     2.2998    -0.1020 C.ar    
  19 C19            2.3936     1.5271    -0.0174 C.ar    
  20 O20            4.5666     4.4368    -0.3086 O.3     
  21 C21            5.1118     4.9174     0.9217 C.3     
  22 O22           -0.1812     4.1023    -0.2488 O.3     
  23 C23           -0.7578     4.5030     0.9958 C.3     
  24 F24            4.7541     1.7123    -0.0543 F       
  25 F25            2.0952     5.6255    -0.4051 F       
  26 H26           -0.8439     1.6600    -0.3851 H       
  27 H27           -1.9518    -0.2243     0.4401 H       
  28 H28            2.4726     0.4550     0.0866 H       
  29 H29            4.3740     5.5406     1.4272 H       
  30 H30            5.3712     4.0721     1.5590 H       
  31 H31            6.0060     5.5063     0.7174 H       
  32 H32           -1.7310     4.9596     0.8151 H       
  33 H33           -0.8794     3.6304     1.6376 H       
  34 H34           -0.1029     5.2247     1.4840 H       
@<TRIPOS>BOND
   1    1    2 am
   2    1   14 1
   3    1   26 1
   4    2    3 2
   5    2    4 am
   6    4    6 1
   7    4   27 1
   8    5    6 1
   9    5    9 1
  10    6    7 2
  11    7    8 1
  12    8    9 2
  13    9   10 1
  14   10   11 1
  15   10   12 1
  16   10   13 1
  17   14   15 ar
  18   14   19 ar
  19   15   16 ar
  20   15   22 1
  21   16   17 ar
  22   16   25 1
  23   17   18 ar
  24   17   20 1
  25   18   19 ar
  26   18   24 1
  27   19   28 1
  28   20   21 1
  29   21   29 1
  30   21   30 1
  31   21   31 1
  32   22   23 1
  33   23   32 1
  34   23   33 1
  35   23   34 1

#	End of record

