#	Name: ASD00990067
#	Creating user name:	WinNT
#	Creation time:	15. 06. 2019 18:54

#	Modifying user name:	WinNT
#	Modification time:	15. 06. 2019 18:54

#	Program:	/corina/corina34_cracker 3.40 0067  02.08.2006

@<TRIPOS>MOLECULE
ASD00990067
  98  100    0    0    0
SMALL
NO_CHARGES


@<TRIPOS>ATOM
   1 C1            -0.0170     1.4004     0.0097 C.ar    
   2 C2             0.0021    -0.0041     0.0020 C.ar    
   3 C3            -1.1902    -0.7151     0.0100 C.ar    
   4 C4            -2.3923    -0.0407     0.0255 C.ar    
   5 C5            -2.4188     1.3520     0.0332 C.ar    
   6 C6            -1.2421     2.0730     0.0301 C.ar    
   7 N7             1.2765     1.8141    -0.0004 N.2     
   8 C8             2.0668     0.7806    -0.0135 C.2     
   9 N9             1.3361    -0.3667    -0.0127 N.pl3   
  10 C10            3.5723     0.8452    -0.0271 C.3     
  11 N11            4.0730     0.8578     1.3497 N.am    
  12 C12            4.3776    -0.4034     2.0299 C.3     
  13 Br13          -4.0148    -1.0118     0.0357 Br      
  14 O14            4.7134     2.0413     3.2557 O.3     
  15 C15            4.8833     3.3395     3.8835 C.3     
  16 C16            3.5366     4.0641     3.9292 C.3     
  17 C17            5.4103     3.1523     5.3076 C.3     
  18 C18            5.8822     4.1701     3.0752 C.3     
  19 C19            4.2533     2.0297     1.9904 C.2     
  20 O20            4.0006     3.0758     1.4262 O.2     
  21 C21            1.8646    -1.7330    -0.0251 C.3     
  22 O22            2.0493    -2.1844     1.3181 O.3     
  23 C23            2.5643    -3.5136     1.4189 C.3     
  24 O24           -3.6115     2.0052     0.0485 O.3     
  25 C25           -3.5689     3.4335     0.0557 C.3     
  26 H26           -1.1759    -1.7950     0.0037 H       
  27 H27           -1.2678     3.1527     0.0362 H       
  28 H28            3.9686    -0.0253    -0.5498 H       
  29 H29            3.8924     1.7530    -0.5384 H       
  30 H30            5.4180    -0.6726     1.8473 H       
  31 H31            4.2152    -0.2868     3.1014 H       
  32 H32            3.7264    -1.1892     1.6471 H       
  33 H33            2.8250     3.4724     4.5050 H       
  34 H34            3.6641     5.0386     4.4004 H       
  35 H35            3.1612     4.1975     2.9146 H       
  36 H36            6.3698     2.6361     5.2751 H       
  37 H37            5.5378     4.1268     5.7789 H       
  38 H38            4.6987     2.5606     5.8835 H       
  39 H39            5.5068     4.3035     2.0606 H       
  40 H40            6.0097     5.1446     3.5464 H       
  41 H41            6.8416     3.6539     3.0426 H       
  42 H42            1.1608    -2.3902    -0.5357 H       
  43 H43            2.8208    -1.7479    -0.5481 H       
  44 H44            1.8750    -4.2077     0.9382 H       
  45 H45            3.5350    -3.5655     0.9258 H       
  46 H46            2.6758    -3.7814     2.4696 H       
  47 H47           -3.0357     3.7766     0.9424 H       
  48 H48           -3.0533     3.7862    -0.8375 H       
  49 H49           -4.5853     3.8273     0.0679 H       
  50 C50           16.3057    15.7537    11.7646 C.ar    
  51 C51           16.3247    14.3490    11.7569 C.ar    
  52 C52           15.1308    13.6407    11.7651 C.ar    
  53 C53           13.9293    14.3250    11.7810 C.ar    
  54 C54           13.9131    15.7179    11.7881 C.ar    
  55 C55           15.0808    16.4267    11.7850 C.ar    
  56 N56           17.5999    16.1672    11.7545 N.2     
  57 C57           18.3892    15.1334    11.7414 C.2     
  58 N58           17.6569    13.9858    11.7422 N.pl3   
  59 C59           19.8948    15.1968    11.7273 C.3     
  60 N60           20.3959    15.2094    13.1039 N.am    
  61 C61           20.6998    13.9481    13.7843 C.3     
  62 Br62          12.2599    16.6356    11.8091 Br      
  63 O63           21.0379    16.3928    15.0095 O.3     
  64 C64           21.2090    17.6910    15.6369 C.3     
  65 C65           19.8628    18.4167    15.6828 C.3     
  66 C66           21.7362    17.5037    17.0609 C.3     
  67 C67           22.2082    18.5206    14.8281 C.3     
  68 C68           20.5774    16.3813    13.7444 C.2     
  69 O69           20.3253    17.4274    13.1800 O.2     
  70 O70           12.7579    13.6348    11.7891 O.3     
  71 C71           12.8452    12.2085    11.7806 C.3     
  72 C72           18.1842    12.6191    11.7306 C.3     
  73 O73           18.3679    12.1679    13.0740 O.3     
  74 C74           18.8817    10.8384    13.1755 C.3     
  75 H75           15.1404    12.5608    11.7589 H       
  76 H76           15.0576    17.5065    11.7909 H       
  77 H77           20.2903    14.3259    11.2046 H       
  78 H78           20.2155    16.1043    11.2157 H       
  79 H79           21.7398    13.6780    13.6015 H       
  80 H80           20.5377    14.0650    14.8559 H       
  81 H81           20.0478    13.1627    13.4019 H       
  82 H82           19.1509    17.8256    16.2590 H       
  83 H83           19.9913    19.3912    16.1538 H       
  84 H84           19.4872    18.5501    14.6683 H       
  85 H85           22.6953    16.9867    17.0282 H       
  86 H86           21.8647    18.4783    17.5319 H       
  87 H87           21.0243    16.9127    17.6371 H       
  88 H88           21.8326    18.6541    13.8136 H       
  89 H89           22.3367    19.4952    15.2991 H       
  90 H90           23.1673    18.0036    14.7954 H       
  91 H91           13.3712    11.8821    10.8835 H       
  92 H92           13.3892    11.8725    12.6633 H       
  93 H93           11.8416    11.7831    11.7884 H       
  94 H94           17.4801    11.9623    11.2197 H       
  95 H95           19.1407    12.6032    11.2080 H       
  96 H96           18.1921    10.1446    12.6946 H       
  97 H97           19.8526    10.7855    12.6829 H       
  98 H98           18.9924    10.5709    14.2263 H       
@<TRIPOS>BOND
   1    1    2 ar
   2    1    7 1
   3    1    6 ar
   4    2    3 ar
   5    2    9 1
   6    3    4 ar
   7    3   26 1
   8    4    5 ar
   9    4   13 1
  10    5    6 ar
  11    5   24 1
  12    6   27 1
  13    7    8 2
  14    8    9 1
  15    8   10 1
  16    9   21 1
  17   10   11 1
  18   10   28 1
  19   10   29 1
  20   11   12 1
  21   11   19 am
  22   12   30 1
  23   12   31 1
  24   12   32 1
  25   14   15 1
  26   14   19 1
  27   15   16 1
  28   15   17 1
  29   15   18 1
  30   16   33 1
  31   16   34 1
  32   16   35 1
  33   17   36 1
  34   17   37 1
  35   17   38 1
  36   18   39 1
  37   18   40 1
  38   18   41 1
  39   19   20 2
  40   21   22 1
  41   21   42 1
  42   21   43 1
  43   22   23 1
  44   23   44 1
  45   23   45 1
  46   23   46 1
  47   24   25 1
  48   25   47 1
  49   25   48 1
  50   25   49 1
  51   50   51 ar
  52   50   56 1
  53   50   55 ar
  54   51   52 ar
  55   51   58 1
  56   52   53 ar
  57   52   75 1
  58   53   54 ar
  59   53   70 1
  60   54   55 ar
  61   54   62 1
  62   55   76 1
  63   56   57 2
  64   57   58 1
  65   57   59 1
  66   58   72 1
  67   59   60 1
  68   59   77 1
  69   59   78 1
  70   60   61 1
  71   60   68 am
  72   61   79 1
  73   61   80 1
  74   61   81 1
  75   63   64 1
  76   63   68 1
  77   64   65 1
  78   64   66 1
  79   64   67 1
  80   65   82 1
  81   65   83 1
  82   65   84 1
  83   66   85 1
  84   66   86 1
  85   66   87 1
  86   67   88 1
  87   67   89 1
  88   67   90 1
  89   68   69 2
  90   70   71 1
  91   71   91 1
  92   71   92 1
  93   71   93 1
  94   72   73 1
  95   72   94 1
  96   72   95 1
  97   73   74 1
  98   74   96 1
  99   74   97 1
 100   74   98 1

#	End of record

