#	Name: ASD03731839
#	Creating user name:	WinNT
#	Creation time:	15. 06. 2019 20:46

#	Modifying user name:	WinNT
#	Modification time:	15. 06. 2019 20:46

#	Program:	/corina/corina34_cracker 3.40 0067  02.08.2006

@<TRIPOS>MOLECULE
ASD03731839
  37   38    0    0    0
SMALL
NO_CHARGES


@<TRIPOS>ATOM
   1 C1             0.3752     1.0902     1.9860 C.2     
   2 C2             0.2911    -0.2849     1.4552 C.ar    
   3 C3             1.3729    -0.8345     0.7696 C.ar    
   4 C4             1.2883    -2.1322     0.2714 C.ar    
   5 C5             0.1135    -2.8773     0.4636 C.ar    
   6 C6            -0.9582    -2.3195     1.1482 C.ar    
   7 C7            -0.8723    -1.0381     1.6454 C.ar    
   8 O8             1.3881     1.7431     1.8251 O.2     
   9 N9            -0.6730     1.6237     2.6442 N.am    
  10 S10           -0.5786     3.1661     3.2396 S.o2    
  11 O11           -1.8311     3.3724     3.8784 O.2     
  12 O12            0.6334     3.1820     3.9812 O.2     
  13 C13           -0.4363     4.2127     1.7648 C.3     
  14 O14            0.0255    -4.1404    -0.0195 O.3     
  15 C15           -1.1654    -4.7849     0.0930 C.ar    
  16 C16           -2.1193    -4.6624    -0.9075 C.ar    
  17 C17           -3.3291    -5.3185    -0.7907 C.ar    
  18 C18           -3.5904    -6.0966     0.3223 C.ar    
  19 C19           -2.6421    -6.2200     1.3206 C.ar    
  20 C20           -1.4277    -5.5712     1.2056 C.ar    
  21 C21           -4.3654    -5.1859    -1.8768 C.3     
  22 C22            2.3950    -2.7045    -0.4346 C.1     
  23 N23            3.2728    -3.1585    -0.9947 N.1     
  24 H24            2.2734    -0.2560     0.6249 H       
  25 H25           -1.8609    -2.8940     1.2947 H       
  26 H26           -1.7077    -0.6118     2.1809 H       
  27 H27           -1.4826     1.1043     2.7691 H       
  28 H28           -1.3141     4.0730     1.1340 H       
  29 H29           -0.3681     5.2580     2.0663 H       
  30 H30            0.4590     3.9360     1.2080 H       
  31 H31           -1.9160    -4.0542    -1.7766 H       
  32 H32           -4.5371    -6.6086     0.4118 H       
  33 H33           -2.8489    -6.8278     2.1891 H       
  34 H34           -0.6852    -5.6720     1.9833 H       
  35 H35           -4.2180    -5.9717    -2.6176 H       
  36 H36           -5.3608    -5.2782    -1.4424 H       
  37 H37           -4.2670    -4.2118    -2.3559 H       
@<TRIPOS>BOND
   1    1    2 1
   2    1    8 2
   3    1    9 am
   4    2    3 ar
   5    2    7 ar
   6    3    4 ar
   7    3   24 1
   8    4    5 ar
   9    4   22 1
  10    5    6 ar
  11    5   14 1
  12    6    7 ar
  13    6   25 1
  14    7   26 1
  15    9   10 am
  16    9   27 1
  17   10   11 2
  18   10   12 2
  19   10   13 1
  20   13   28 1
  21   13   29 1
  22   13   30 1
  23   14   15 1
  24   15   16 ar
  25   15   20 ar
  26   16   17 ar
  27   16   31 1
  28   17   18 ar
  29   17   21 1
  30   18   19 ar
  31   18   32 1
  32   19   20 ar
  33   19   33 1
  34   20   34 1
  35   21   35 1
  36   21   36 1
  37   21   37 1
  38   22   23 3

#	End of record

