#	Name: ASD02500373
#	Creating user name:	WinNT
#	Creation time:	15. 06. 2019 20:22

#	Modifying user name:	WinNT
#	Modification time:	15. 06. 2019 20:22

#	Program:	/corina/corina34_cracker 3.40 0067  02.08.2006

@<TRIPOS>MOLECULE
ASD02500373
  74   78    0    0    0
SMALL
NO_CHARGES


@<TRIPOS>ATOM
   1 N1             1.4493     3.9036    -0.0360 N.ar    
   2 C2             2.1070     3.5166     1.0298 C.ar    
   3 C3             3.3342     2.8633     0.9372 C.ar    
   4 C4             3.8811     2.6108    -0.2885 C.ar    
   5 C5             3.1718     3.0274    -1.4309 C.ar    
   6 C6             3.6711     2.8032    -2.7237 C.ar    
   7 C7             2.9550     3.2218    -3.8037 C.ar    
   8 C8             1.7327     3.8708    -3.6430 C.ar    
   9 C9             1.2192     4.1045    -2.4044 C.ar    
  10 C10            1.9288     3.6873    -1.2650 C.ar    
  11 S11           -0.3288     4.9280    -2.2298 S.o2    
  12 O12           -0.1278     5.9622    -1.2763 O.2     
  13 O13           -0.8068     5.1670    -3.5465 O.2     
  14 N14           -1.3810     3.8523    -1.5383 N.am    
  15 C15           -1.6895     2.6641    -2.1912 C.ar    
  16 C16           -1.6822     1.4628    -1.4877 C.ar    
  17 C17           -1.9871     0.2851    -2.1310 C.ar    
  18 C18           -2.3044     0.2960    -3.4924 C.ar    
  19 C19           -2.3109     1.5039    -4.1961 C.ar    
  20 C20           -2.0106     2.6789    -3.5458 C.ar    
  21 C21           -2.6312    -0.9648    -4.1852 C.2     
  22 O22           -3.5239    -0.9913    -5.0105 O.2     
  23 N23           -1.9405    -2.0872    -3.9035 N.am    
  24 C24           -2.1984    -3.3363    -4.6360 C.3     
  25 C25           -0.8629    -3.8825    -5.1521 C.3     
  26 N26            0.0792    -4.0029    -4.0314 N.3     
  27 C27            0.3759    -2.6907    -3.4415 C.3     
  28 C28           -0.9045    -2.0940    -2.8595 C.3     
  29 C29            1.3121    -4.6825    -4.4508 C.3     
  30 C30            2.3436    -4.5717    -3.3577 C.ar    
  31 C31            2.2890    -5.4232    -2.2606 C.ar    
  32 C32            3.2422    -5.3173    -1.2550 C.ar    
  33 C33            4.2399    -4.3670    -1.3490 C.ar    
  34 C34            4.2910    -3.5215    -2.4420 C.ar    
  35 C35            3.3472    -3.6278    -3.4477 C.ar    
  36 S36            1.0139    -6.6337    -2.1447 S.3     
  37 C37            1.4799    -7.5771    -0.6671 C.3     
  38 C38            1.4195    -6.6654     0.5601 C.3     
  39 C39            0.5107    -8.7465    -0.4819 C.3     
  40 C40            2.9025    -8.1152    -0.8332 C.3     
  41 H41            1.6866     3.7096     2.0058 H       
  42 H42            3.8526     2.5572     1.8338 H       
  43 H43            4.8315     2.1058    -0.3788 H       
  44 H44            4.6178     2.3018    -2.8610 H       
  45 H45            3.3399     3.0489    -4.7978 H       
  46 H46            1.1840     4.1938    -4.5153 H       
  47 H47           -1.7821     4.0512    -0.6778 H       
  48 H48           -1.4366     1.4550    -0.4360 H       
  49 H49           -1.9809    -0.6465    -1.5848 H       
  50 H50           -2.5552     1.5154    -5.2480 H       
  51 H51           -2.0201     3.6130    -4.0878 H       
  52 H52           -2.6581    -4.0644    -3.9678 H       
  53 H53           -2.8621    -3.1370    -5.4773 H       
  54 H54           -1.0204    -4.8629    -5.6018 H       
  55 H55           -0.4551    -3.2008    -5.8985 H       
  56 H56            1.1170    -2.8067    -2.6506 H       
  57 H57            0.7665    -2.0256    -4.2117 H       
  58 H58           -0.7132    -1.0738    -2.5268 H       
  59 H59           -1.2375    -2.7004    -2.0172 H       
  60 H60            1.0996    -5.7339    -4.6445 H       
  61 H61            1.6935    -4.2157    -5.3590 H       
  62 H62            3.2027    -5.9771    -0.4009 H       
  63 H63            4.9808    -4.2839    -0.5677 H       
  64 H64            5.0721    -2.7791    -2.5127 H       
  65 H65            3.3930    -2.9690    -4.3022 H       
  66 H66            0.3784    -6.4853     0.8281 H       
  67 H67            1.9317    -7.1448     1.3944 H       
  68 H68            1.9054    -5.7167     0.3322 H       
  69 H69            0.5537    -9.3960    -1.3562 H       
  70 H70            0.7907    -9.3133     0.4060 H       
  71 H71           -0.5028    -8.3631    -0.3636 H       
  72 H72            3.5592    -7.3104    -1.1634 H       
  73 H73            3.2572    -8.5052     0.1209 H       
  74 H74            2.9047    -8.9136    -1.5753 H       
@<TRIPOS>BOND
   1    1    2 ar
   2    1   10 ar
   3    2    3 ar
   4    2   41 1
   5    3    4 ar
   6    3   42 1
   7    4    5 ar
   8    4   43 1
   9    5    6 ar
  10    5   10 ar
  11    6    7 ar
  12    6   44 1
  13    7    8 ar
  14    7   45 1
  15    8    9 ar
  16    8   46 1
  17    9   10 ar
  18    9   11 1
  19   11   12 2
  20   11   13 2
  21   11   14 am
  22   14   15 1
  23   14   47 1
  24   15   16 ar
  25   15   20 ar
  26   16   17 ar
  27   16   48 1
  28   17   18 ar
  29   17   49 1
  30   18   19 ar
  31   18   21 1
  32   19   20 ar
  33   19   50 1
  34   20   51 1
  35   21   22 2
  36   21   23 am
  37   23   24 1
  38   23   28 1
  39   24   25 1
  40   24   52 1
  41   24   53 1
  42   25   26 1
  43   25   54 1
  44   25   55 1
  45   26   27 1
  46   26   29 1
  47   27   28 1
  48   27   56 1
  49   27   57 1
  50   28   58 1
  51   28   59 1
  52   29   30 1
  53   29   60 1
  54   29   61 1
  55   30   31 ar
  56   30   35 ar
  57   31   32 ar
  58   31   36 1
  59   32   33 ar
  60   32   62 1
  61   33   34 ar
  62   33   63 1
  63   34   35 ar
  64   34   64 1
  65   35   65 1
  66   36   37 1
  67   37   38 1
  68   37   40 1
  69   37   39 1
  70   38   66 1
  71   38   67 1
  72   38   68 1
  73   39   69 1
  74   39   70 1
  75   39   71 1
  76   40   72 1
  77   40   73 1
  78   40   74 1

#	End of record

