#	Name: ASD08170808
#	Creating user name:	WinNT
#	Creation time:	15. 06. 2019 21:18

#	Modifying user name:	WinNT
#	Modification time:	15. 06. 2019 21:18

#	Program:	/corina/corina34_cracker 3.40 0067  02.08.2006

@<TRIPOS>MOLECULE
ASD08170808
  53   54    0    0    0
SMALL
NO_CHARGES


@<TRIPOS>ATOM
   1 N1            -0.0155     1.2947     0.0092 N.2     
   2 C2             0.0021    -0.0041     0.0020 C.2     
   3 S3             1.6320    -0.5310    -0.0164 S.3     
   4 C4             2.1557     1.1534    -0.0123 C.2     
   5 N5             1.0945     1.8960     0.0018 N.2     
   6 C6             7.9570     3.1008     4.2506 C.2     
   7 S7             7.8334     4.5556     5.2404 S.3     
   8 C8             8.6093     3.7258     6.5226 C.2     
   9 N9             8.8778     2.5160     6.1334 N.2     
  10 N10            8.5379     2.1879     4.9626 N.2     
  11 N11           -1.1168    -0.8300     0.0087 N.am    
  12 C12           -2.3521    -0.2911     0.0233 C.2     
  13 O13           -2.4879     0.9140     0.0307 O.2     
  14 C14           -6.0624    -1.2371     0.0544 C.3     
  15 C15           -4.8314    -0.3284     0.0471 C.3     
  16 C16           -3.5646    -1.1861     0.0305 C.3     
  17 N17            8.9034     4.2592     7.7729 N.am    
  18 C18            9.5194     3.5007     8.7012 C.2     
  19 O19            9.8173     2.3530     8.4462 O.2     
  20 C20           10.8547     3.6044    12.2884 C.3     
  21 C21           10.5311     3.0175    10.9129 C.3     
  22 C22            9.8381     4.0787    10.0559 C.3     
  23 C23            3.5816     1.6410    -0.0229 C.3     
  24 C24            4.0775     1.7984     1.4160 C.3     
  25 C25            5.5251     2.2933     1.4053 C.3     
  26 C26            6.0210     2.4507     2.8441 C.3     
  27 C27            7.4687     2.9457     2.8334 C.3     
  28 H28           -1.0082    -1.7939     0.0028 H       
  29 H29           -6.9650    -0.6260     0.0662 H       
  30 H30           -6.0582    -1.8618    -0.8388 H       
  31 H31           -6.0410    -1.8707     0.9411 H       
  32 H32           -4.8528     0.3052    -0.8396 H       
  33 H33           -4.8357     0.2963     0.9403 H       
  34 H34           -3.5603    -1.8108    -0.8627 H       
  35 H35           -3.5432    -1.8197     0.9172 H       
  36 H36            8.6652     5.1771     7.9768 H       
  37 H37           11.5145     4.4640    12.1706 H       
  38 H38            9.9317     3.9188    12.7755 H       
  39 H39           11.3484     2.8483    12.8990 H       
  40 H40           11.4542     2.7031    10.4258 H       
  41 H41            9.8714     2.1579    11.0307 H       
  42 H42           10.4979     4.9383     9.9382 H       
  43 H43            8.9151     4.3932    10.5431 H       
  44 H44            4.2086     0.9191    -0.5463 H       
  45 H45            3.6328     2.6033    -0.5321 H       
  46 H46            3.4505     2.5202     1.9394 H       
  47 H47            4.0263     0.8360     1.9252 H       
  48 H48            6.1521     1.5715     0.8818 H       
  49 H49            5.5763     3.2557     0.8960 H       
  50 H50            5.3940     3.1726     3.3675 H       
  51 H51            5.9698     1.4884     3.3534 H       
  52 H52            7.5198     3.9081     2.3241 H       
  53 H53            8.0956     2.2239     2.3100 H       
@<TRIPOS>BOND
   1    1    2 2
   2    1    5 1
   3    2    3 1
   4    2   11 1
   5    3    4 1
   6    4    5 2
   7    4   23 1
   8    6    7 1
   9    6   27 1
  10    6   10 2
  11    7    8 1
  12    8    9 2
  13    8   17 1
  14    9   10 1
  15   11   12 am
  16   11   28 1
  17   12   13 2
  18   12   16 1
  19   14   15 1
  20   14   29 1
  21   14   30 1
  22   14   31 1
  23   15   16 1
  24   15   32 1
  25   15   33 1
  26   16   34 1
  27   16   35 1
  28   17   18 am
  29   17   36 1
  30   18   19 2
  31   18   22 1
  32   20   21 1
  33   20   37 1
  34   20   38 1
  35   20   39 1
  36   21   22 1
  37   21   40 1
  38   21   41 1
  39   22   42 1
  40   22   43 1
  41   23   24 1
  42   23   44 1
  43   23   45 1
  44   24   25 1
  45   24   46 1
  46   24   47 1
  47   25   26 1
  48   25   48 1
  49   25   49 1
  50   26   27 1
  51   26   50 1
  52   26   51 1
  53   27   52 1
  54   27   53 1

#	End of record

