#	Name: ASD01813693
#	Creating user name:	WinNT
#	Creation time:	15. 06. 2019 19:30

#	Modifying user name:	WinNT
#	Modification time:	15. 06. 2019 19:30

#	Program:	/corina/corina34_cracker 3.40 0067  02.08.2006

@<TRIPOS>MOLECULE
ASD01813693
  46   50    0    0    0
SMALL
NO_CHARGES


@<TRIPOS>ATOM
   1 C1             7.3326     1.2167    -0.2617 C.ar    
   2 C2             7.2512    -0.1673    -0.2625 C.ar    
   3 C3             6.0281    -0.8021    -0.1879 C.ar    
   4 C4             4.8567    -0.0509    -0.1101 C.ar    
   5 C5             4.9408     1.3519    -0.1089 C.ar    
   6 C6             6.1858     1.9814    -0.1854 C.ar    
   7 N7             3.6287    -0.6739    -0.0361 N.pl3   
   8 C8             2.4756     0.0026     0.0392 C.2     
   9 C9             2.4317     1.3822     0.0478 C.2     
  10 C10            3.6949     2.1345    -0.0262 C.2     
  11 O11            3.7095     3.3530    -0.0213 O.2     
  12 C12            1.1454     2.0881     0.1306 C.2     
  13 O13            1.1155     3.4359     0.1383 O.3     
  14 O14            0.1084     1.4568     0.1921 O.2     
  15 C15            3.5837    -2.1382    -0.0406 C.3     
  16 C16            3.4403    -2.6321    -1.4571 C.ar    
  17 C17            4.5501    -2.7827    -2.2697 C.ar    
  18 C18            4.3782    -3.2413    -3.5708 C.ar    
  19 N19            3.1709    -3.5308    -4.0294 N.ar    
  20 C20            2.0949    -3.3972    -3.2782 C.ar    
  21 C21            2.1923    -2.9517    -1.9746 C.ar    
  22 F22            5.9661    -2.1517    -0.1906 F       
  23 F23            6.2669     3.3300    -0.1838 F       
  24 N24            5.4891    -3.3973    -4.4013 N.pl3   
  25 N25            6.7001    -2.7088    -4.2754 N.2     
  26 C26            7.5285    -3.0859    -5.2071 C.2     
  27 C27            6.8552    -4.0912    -6.0241 C.ar    
  28 C28            5.5711    -4.2562    -5.4703 C.ar    
  29 C29            7.2281    -4.8435    -7.1433 C.ar    
  30 C30            6.3411    -5.7256    -7.6896 C.ar    
  31 C31            5.0726    -5.8825    -7.1450 C.ar    
  32 C32            4.6885    -5.1644    -6.0477 C.ar    
  33 H33            8.2975     1.6987    -0.3165 H       
  34 H34            8.1551    -0.7553    -0.3225 H       
  35 H35            1.5491    -0.5495     0.0946 H       
  36 H36            0.2461     3.8554     0.1939 H       
  37 H37            4.5047    -2.5313     0.3898 H       
  38 H38            2.7329    -2.4774     0.5503 H       
  39 H39            5.5364    -2.5469    -1.8984 H       
  40 H40            1.1258    -3.6432    -3.6864 H       
  41 H41            1.3060    -2.8453    -1.3667 H       
  42 H42            8.5345    -2.7198    -5.3501 H       
  43 H43            8.2121    -4.7267    -7.5727 H       
  44 H44            6.6280    -6.3068    -8.5535 H       
  45 H45            4.3839    -6.5849    -7.5907 H       
  46 H46            3.6996    -5.2956    -5.6340 H       
@<TRIPOS>BOND
   1    1    2 ar
   2    1    6 ar
   3    1   33 1
   4    2    3 ar
   5    2   34 1
   6    3    4 ar
   7    3   22 1
   8    4    5 ar
   9    4    7 1
  10    5    6 ar
  11    5   10 1
  12    6   23 1
  13    7    8 1
  14    7   15 1
  15    8    9 2
  16    8   35 1
  17    9   10 1
  18    9   12 1
  19   10   11 2
  20   12   13 1
  21   12   14 2
  22   13   36 1
  23   15   16 1
  24   15   37 1
  25   15   38 1
  26   16   17 ar
  27   16   21 ar
  28   17   18 ar
  29   17   39 1
  30   18   19 ar
  31   18   24 1
  32   19   20 ar
  33   20   21 ar
  34   20   40 1
  35   21   41 1
  36   24   25 1
  37   24   28 1
  38   25   26 2
  39   26   27 1
  40   26   42 1
  41   27   28 ar
  42   27   29 ar
  43   28   32 ar
  44   29   30 ar
  45   29   43 1
  46   30   31 ar
  47   30   44 1
  48   31   32 ar
  49   31   45 1
  50   32   46 1

#	End of record

