#	Name: ASD01120216
#	Creating user name:	WinNT
#	Creation time:	15. 06. 2019 18:59

#	Modifying user name:	WinNT
#	Modification time:	15. 06. 2019 18:59

#	Program:	/corina/corina34_cracker 3.40 0067  02.08.2006

@<TRIPOS>MOLECULE
ASD01120216
  46   49    0    0    0
SMALL
NO_CHARGES


@<TRIPOS>ATOM
   1 C1            -0.1510     0.6865     0.8001 C.ar    
   2 C2            -0.2729    -0.6949     0.7414 C.ar    
   3 C3            -1.5238    -1.2823     0.5760 C.ar    
   4 C4            -2.6580    -0.4761     0.4690 C.ar    
   5 C5            -2.5307     0.9180     0.5287 C.ar    
   6 C6            -1.2703     1.4932     0.7002 C.ar    
   7 O7            -3.9764    -0.7336     0.3067 O.3     
   8 C8            -4.6314     0.4398     0.2679 C.2     
   9 N9            -3.7859     1.4300     0.3985 N.2     
  10 N10           -5.9921     0.5793     0.1125 N.am    
  11 S11           -6.6866     2.0798     0.2053 S.o2    
  12 O12           -5.9272     2.9268    -0.6463 O.2     
  13 O13           -8.0864     1.8838     0.0589 O.2     
  14 C14           -6.4357     2.6701     1.8464 C.ar    
  15 C15           -7.0138     2.0090     2.9152 C.ar    
  16 C16           -6.8164     2.4724     4.2040 C.ar    
  17 C17           -6.0414     3.5951     4.4234 C.ar    
  18 C18           -5.4627     4.2561     3.3544 C.ar    
  19 C19           -5.6566     3.7904     2.0663 C.ar    
  20 Cl20          -7.9875     0.5985     2.6395 Cl      
  21 Cl21          -4.4891     5.6667     3.6300 Cl      
  22 O22            1.0757     1.2502     0.9623 O.3     
  23 C23            1.1322     2.6772     1.0148 C.3     
  24 C24           -0.8379    -3.5050    -0.3466 C.ar    
  25 C25           -0.9932    -4.8779    -0.3705 C.ar    
  26 C26           -1.9442    -5.4679     0.4534 C.ar    
  27 N27           -2.6980    -4.7336     1.2553 N.ar    
  28 C28           -2.5815    -3.4220     1.3088 C.ar    
  29 C29           -1.6509    -2.7587     0.5132 C.ar    
  30 O30           -2.1019    -6.8152     0.4349 O.3     
  31 C31           -3.0950    -7.3641     1.3036 C.3     
  32 H32            0.6064    -1.3165     0.8241 H       
  33 H33           -1.1683     2.5674     0.7470 H       
  34 H34           -6.5441    -0.2013    -0.0513 H       
  35 H35           -7.2683     1.9566     5.0384 H       
  36 H36           -5.8876     3.9569     5.4293 H       
  37 H37           -5.2046     4.3061     1.2319 H       
  38 H38            0.7405     3.0907     0.0854 H       
  39 H39            0.5328     3.0340     1.8523 H       
  40 H40            2.1664     2.9952     1.1465 H       
  41 H41           -0.1036    -3.0203    -0.9730 H       
  42 H42           -0.3829    -5.4853    -1.0224 H       
  43 H43           -3.2148    -2.8558     1.9757 H       
  44 H44           -2.8540    -7.1116     2.3362 H       
  45 H45           -4.0706    -6.9514     1.0468 H       
  46 H46           -3.1177    -8.4480     1.1905 H       
@<TRIPOS>BOND
   1    1    2 ar
   2    1   22 1
   3    1    6 ar
   4    2    3 ar
   5    2   32 1
   6    3    4 ar
   7    3   29 1
   8    4    5 ar
   9    4    7 1
  10    5    6 ar
  11    5    9 1
  12    6   33 1
  13    7    8 1
  14    8    9 2
  15    8   10 1
  16   10   11 am
  17   10   34 1
  18   11   12 2
  19   11   13 2
  20   11   14 1
  21   14   15 ar
  22   14   19 ar
  23   15   16 ar
  24   15   20 1
  25   16   17 ar
  26   16   35 1
  27   17   18 ar
  28   17   36 1
  29   18   19 ar
  30   18   21 1
  31   19   37 1
  32   22   23 1
  33   23   38 1
  34   23   39 1
  35   23   40 1
  36   24   25 ar
  37   24   29 ar
  38   24   41 1
  39   25   26 ar
  40   25   42 1
  41   26   27 ar
  42   26   30 1
  43   27   28 ar
  44   28   29 ar
  45   28   43 1
  46   30   31 1
  47   31   44 1
  48   31   45 1
  49   31   46 1

#	End of record

