#	Name: ASD05740209
#	Creating user name:	WinNT
#	Creation time:	15. 06. 2019 21:03

#	Modifying user name:	WinNT
#	Modification time:	15. 06. 2019 21:03

#	Program:	/corina/corina34_cracker 3.40 0067  02.08.2006

@<TRIPOS>MOLECULE
ASD05740209
  64   68    0    0    0
SMALL
NO_CHARGES


@<TRIPOS>ATOM
   1 C1             0.9531    -0.8272    -0.0439 C.3     
   2 N2             0.0371    -0.1445     0.8806 N.3     
   3 C3            -1.2685    -0.6286     0.7416 C.ar    
   4 C4            -2.2886    -0.1107     1.5290 C.ar    
   5 C5            -3.5768    -0.5884     1.3919 C.ar    
   6 C6            -3.8523    -1.5871     0.4671 C.ar    
   7 C7            -2.8322    -2.1053    -0.3199 C.ar    
   8 C8            -1.5452    -1.6230    -0.1875 C.ar    
   9 N9            -5.1590    -2.0720     0.3283 N.pl3   
  10 C10           -6.2334    -1.2225     0.5064 C.ar    
  11 N11           -6.0003     0.0714     0.6975 N.ar    
  12 N12           -7.4577    -1.7281     0.4747 N.ar    
  13 C13           -8.5129    -0.9414     0.6420 C.ar    
  14 C14           -8.3033     0.4392     0.8533 C.ar    
  15 C15           -6.9916     0.9266     0.8729 C.ar    
  16 N16           -9.7918    -1.4348     0.6140 N.am    
  17 C17          -10.8502    -0.6228     0.7850 C.2     
  18 C18          -10.6974     0.7620     0.9988 C.2     
  19 C19           -9.4567     1.3145     1.0386 C.2     
  20 C20          -10.0085    -2.8669     0.3943 C.3     
  21 O21          -11.9723    -1.0974     0.7538 O.2     
  22 C22          -10.0276    -3.5925     1.7412 C.3     
  23 C23          -10.2505    -5.0656     1.5151 C.ar    
  24 C24           -9.1781    -5.8921     1.2351 C.ar    
  25 C25            0.5017    -0.2736     2.2688 C.3     
  26 C26            1.8991     0.3378     2.3952 C.3     
  27 N27            2.8150    -0.3448     1.4707 N.3     
  28 C28            2.3505    -0.2158     0.0825 C.3     
  29 C29            4.1856     0.1634     1.6166 C.3     
  30 C30           -9.3826    -7.2432     1.0277 C.ar    
  31 C31          -10.6595    -7.7683     1.1008 C.ar    
  32 C32          -11.7314    -6.9423     1.3816 C.ar    
  33 C33          -11.5263    -5.5915     1.5933 C.ar    
  34 C34           -7.7863    -5.3197     1.1555 C.3     
  35 F35           -6.8776    -6.3423     0.8626 F       
  36 F36           -7.7378    -4.3501     0.1482 F       
  37 F37           -7.4515    -4.7354     2.3817 F       
  38 H38            0.9963    -1.8877     0.2040 H       
  39 H39            0.5945    -0.7067    -1.0662 H       
  40 H40           -2.0743     0.6654     2.2487 H       
  41 H41           -4.3701    -0.1857     2.0041 H       
  42 H42           -3.0463    -2.8825    -1.0386 H       
  43 H43           -0.7519    -2.0260    -0.7996 H       
  44 H44           -5.3094    -3.0044     0.1073 H       
  45 H45           -6.7944     1.9765     1.0322 H       
  46 H46          -11.5691     1.3857     1.1317 H       
  47 H47           -9.3272     2.3741     1.2021 H       
  48 H48          -10.9619    -3.0166    -0.1125 H       
  49 H49           -9.2029    -3.2660    -0.2220 H       
  50 H50           -9.0742    -3.4428     2.2480 H       
  51 H51          -10.8332    -3.1934     2.3575 H       
  52 H52           -0.1859     0.2505     2.9326 H       
  53 H53            0.5398    -1.3278     2.5430 H       
  54 H54            1.8558     1.3984     2.1473 H       
  55 H55            2.2576     0.2173     3.4175 H       
  56 H56            3.0381    -0.7399    -0.5813 H       
  57 H57            2.3123     0.8385    -0.1917 H       
  58 H58            4.5291    -0.0055     2.6372 H       
  59 H59            4.8426    -0.3587     0.9210 H       
  60 H60            4.2021     1.2315     1.3998 H       
  61 H61           -8.5450    -7.8887     0.8083 H       
  62 H62          -10.8194    -8.8240     0.9380 H       
  63 H63          -12.7289    -7.3524     1.4384 H       
  64 H64          -12.3639    -4.9460     1.8128 H       
@<TRIPOS>BOND
   1    1    2 1
   2    1   28 1
   3    1   38 1
   4    1   39 1
   5    2    3 1
   6    2   25 1
   7    3    4 ar
   8    3    8 ar
   9    4    5 ar
  10    4   40 1
  11    5    6 ar
  12    5   41 1
  13    6    7 ar
  14    6    9 1
  15    7    8 ar
  16    7   42 1
  17    8   43 1
  18    9   10 1
  19    9   44 1
  20   10   11 ar
  21   10   12 ar
  22   11   15 ar
  23   12   13 ar
  24   13   14 ar
  25   13   16 1
  26   14   15 ar
  27   14   19 1
  28   15   45 1
  29   16   17 am
  30   16   20 1
  31   17   18 1
  32   17   21 2
  33   18   19 2
  34   18   46 1
  35   19   47 1
  36   20   22 1
  37   20   48 1
  38   20   49 1
  39   22   23 1
  40   22   50 1
  41   22   51 1
  42   23   24 ar
  43   23   33 ar
  44   24   30 ar
  45   24   34 1
  46   25   26 1
  47   25   52 1
  48   25   53 1
  49   26   27 1
  50   26   54 1
  51   26   55 1
  52   27   28 1
  53   27   29 1
  54   28   56 1
  55   28   57 1
  56   29   58 1
  57   29   59 1
  58   29   60 1
  59   30   31 ar
  60   30   61 1
  61   31   32 ar
  62   31   62 1
  63   32   33 ar
  64   32   63 1
  65   33   64 1
  66   34   35 1
  67   34   36 1
  68   34   37 1

#	End of record

