#	Name: ASD01883359
#	Creating user name:	WinNT
#	Creation time:	15. 06. 2019 19:46

#	Modifying user name:	WinNT
#	Modification time:	15. 06. 2019 19:46

#	Program:	/corina/corina34_cracker 3.40 0067  02.08.2006

@<TRIPOS>MOLECULE
ASD01883359
  60   63    0    0    0
SMALL
NO_CHARGES


@<TRIPOS>ATOM
   1 N1             0.0021     1.3082    -0.0152 N.am    
   2 C2            -0.7518     1.3829     1.0973 C.2     
   3 C3            -1.9997     0.7182     1.1499 C.2     
   4 C4            -2.4239    -0.0108     0.0261 C.2     
   5 C5            -1.5912    -0.0513    -1.1076 C.2     
   6 C6            -0.4117     0.6073    -1.1028 C.2     
   7 O7            -0.3596     2.0222     2.0588 O.2     
   8 C8            -2.8143     0.7866     2.3257 C.1     
   9 N9            -3.4606     0.8409     3.2584 N.1     
  10 C10            1.2919     2.0017    -0.0562 C.3     
  11 C11            2.3909     1.0649     0.4490 C.3     
  12 C12            3.7380     1.7891     0.4061 C.3     
  13 C13            4.8370     0.8523     0.9114 C.3     
  14 N14           -3.6309    -0.6732     0.0341 N.pl3   
  15 C15           -4.8964     0.0654     0.1606 C.3     
  16 C16           -5.8354    -0.3813    -0.9650 C.3     
  17 N17           -5.9647    -1.8444    -0.9388 N.3     
  18 C18           -4.6754    -2.4981    -1.1997 C.3     
  19 C19           -3.6892    -2.1376    -0.0898 C.3     
  20 C20           -6.9403    -2.2784    -1.8456 C.ar    
  21 C21           -7.2296    -3.6324    -1.9868 C.ar    
  22 N22           -8.1571    -4.0053    -2.8532 N.ar    
  23 C23           -8.8061    -3.1087    -3.5801 C.ar    
  24 N24           -8.5573    -1.8126    -3.4724 N.ar    
  25 C25           -7.6473    -1.3656    -2.6226 C.ar    
  26 N26           -9.7717    -3.5386    -4.4784 N.3     
  27 C27          -10.3761    -2.4009    -5.1867 C.3     
  28 C28          -11.3905    -2.9229    -6.2076 C.3     
  29 O29          -12.3671    -3.7229    -5.5356 O.3     
  30 C30          -11.8132    -4.8404    -4.8357 C.3     
  31 C31          -10.8030    -4.3378    -3.8009 C.3     
  32 H32           -1.8967    -0.6057    -1.9826 H       
  33 H33            0.2190     0.5690    -1.9787 H       
  34 H34            1.5116     2.3000    -1.0814 H       
  35 H35            1.2488     2.8869     0.5784 H       
  36 H36            2.1712     0.7666     1.4741 H       
  37 H37            2.4340     0.1797    -0.1856 H       
  38 H38            3.9577     2.0874    -0.6190 H       
  39 H39            3.6949     2.6743     1.0408 H       
  40 H40            5.7967     1.3683     0.8808 H       
  41 H41            4.6173     0.5540     1.9365 H       
  42 H42            4.8801    -0.0329     0.2767 H       
  43 H43           -5.3527    -0.1526     1.1262 H       
  44 H44           -4.7061     1.1353     0.0757 H       
  45 H45           -6.8159     0.0731    -0.8226 H       
  46 H46           -5.4256    -0.0696    -1.9257 H       
  47 H47           -4.8145    -3.5788    -1.2275 H       
  48 H48           -4.2817    -2.1568    -2.1571 H       
  49 H49           -2.7011    -2.5253    -0.3378 H       
  50 H50           -4.0273    -2.5657     0.8538 H       
  51 H51           -6.7037    -4.3688    -1.3973 H       
  52 H52           -7.4494    -0.3071    -2.5393 H       
  53 H53          -10.8811    -1.7529    -4.4704 H       
  54 H54           -9.5978    -1.8380    -5.7020 H       
  55 H55          -11.8824    -2.0812    -6.6950 H       
  56 H56          -10.8766    -3.5274    -6.9550 H       
  57 H57          -12.6108    -5.3854    -4.3309 H       
  58 H58          -11.3115    -5.5006    -5.5432 H       
  59 H59          -10.3364    -5.1887    -3.3046 H       
  60 H60          -11.3149    -3.7207    -3.0624 H       
@<TRIPOS>BOND
   1    1    2 am
   2    1   10 1
   3    1    6 1
   4    2    3 1
   5    2    7 2
   6    3    4 2
   7    3    8 1
   8    4    5 1
   9    4   14 1
  10    5    6 2
  11    5   32 1
  12    6   33 1
  13    8    9 3
  14   10   11 1
  15   10   34 1
  16   10   35 1
  17   11   12 1
  18   11   36 1
  19   11   37 1
  20   12   13 1
  21   12   38 1
  22   12   39 1
  23   13   40 1
  24   13   41 1
  25   13   42 1
  26   14   15 1
  27   14   19 1
  28   15   16 1
  29   15   43 1
  30   15   44 1
  31   16   17 1
  32   16   45 1
  33   16   46 1
  34   17   18 1
  35   17   20 1
  36   18   19 1
  37   18   47 1
  38   18   48 1
  39   19   49 1
  40   19   50 1
  41   20   21 ar
  42   20   25 ar
  43   21   22 ar
  44   21   51 1
  45   22   23 ar
  46   23   24 ar
  47   23   26 1
  48   24   25 ar
  49   25   52 1
  50   26   27 1
  51   26   31 1
  52   27   28 1
  53   27   53 1
  54   27   54 1
  55   28   29 1
  56   28   55 1
  57   28   56 1
  58   29   30 1
  59   30   31 1
  60   30   57 1
  61   30   58 1
  62   31   59 1
  63   31   60 1

#	End of record

