#	Name: ASD02560449
#	Creating user name:	WinNT
#	Creation time:	15. 06. 2019 20:25

#	Modifying user name:	WinNT
#	Modification time:	15. 06. 2019 20:25

#	Program:	/corina/corina34_cracker 3.40 0067  02.08.2006

@<TRIPOS>MOLECULE
ASD02560449
  36   38    0    0    0
SMALL
NO_CHARGES


@<TRIPOS>ATOM
   1 C1             1.0236     1.1847     2.9293 C.2     
   2 C2             1.3047    -0.1870     3.0590 C.2     
   3 C3             2.1399    -0.7962     2.1935 C.2     
   4 N4             2.7251    -0.0909     1.1778 N.pl3   
   5 C5             2.4686     1.2520     1.0258 C.2     
   6 C6             1.5973     1.8998     1.9251 C.2     
   7 C7             3.5918    -0.4482     0.1804 C.2     
   8 C8             3.8424     0.6686    -0.5491 C.2     
   9 N9             3.1533     1.6858    -0.0210 N.2     
  10 C10            4.7464     0.7491    -1.7522 C.3     
  11 N11            4.1206    -1.7247    -0.0445 N.pl3   
  12 C12            3.3058    -2.7384    -0.5522 C.ar    
  13 C13            2.0078    -2.4514    -0.9569 C.ar    
  14 C14            3.9388     1.2103    -2.9671 C.3     
  15 C15            5.8718     1.7489    -1.4784 C.3     
  16 C16            3.7929    -4.0353    -0.6593 C.ar    
  17 C17            2.9848    -5.0360    -1.1624 C.ar    
  18 C18            1.6919    -4.7490    -1.5595 C.ar    
  19 C19            1.2044    -3.4571    -1.4594 C.ar    
  20 Cl20          -0.4196    -3.1018    -1.9593 Cl      
  21 H21            0.3508     1.6677     3.6224 H       
  22 H22            0.8494    -0.7555     3.8564 H       
  23 H23            2.3490    -1.8501     2.3032 H       
  24 H24            1.3875     2.9538     1.8175 H       
  25 H25            5.1739    -0.2335    -1.9518 H       
  26 H26            5.0531    -1.9050     0.1525 H       
  27 H27            1.6272    -1.4437    -0.8785 H       
  28 H28            3.5113     2.1929    -2.7674 H       
  29 H29            4.5927     1.2685    -3.8372 H       
  30 H30            3.1371     0.4980    -3.1621 H       
  31 H31            6.4471     1.4203    -0.6129 H       
  32 H32            6.5257     1.8071    -2.3486 H       
  33 H33            5.4443     2.7315    -1.2788 H       
  34 H34            4.8028    -4.2606    -0.3497 H       
  35 H35            3.3634    -6.0440    -1.2460 H       
  36 H36            1.0623    -5.5335    -1.9526 H       
@<TRIPOS>BOND
   1    1    2 1
   2    1    6 2
   3    1   21 1
   4    2    3 2
   5    2   22 1
   6    3    4 1
   7    3   23 1
   8    4    5 1
   9    4    7 1
  10    5    6 1
  11    5    9 2
  12    6   24 1
  13    7    8 2
  14    7   11 1
  15    8    9 1
  16    8   10 1
  17   10   14 1
  18   10   15 1
  19   10   25 1
  20   11   12 1
  21   11   26 1
  22   12   16 ar
  23   12   13 ar
  24   13   19 ar
  25   13   27 1
  26   14   28 1
  27   14   29 1
  28   14   30 1
  29   15   31 1
  30   15   32 1
  31   15   33 1
  32   16   17 ar
  33   16   34 1
  34   17   18 ar
  35   17   35 1
  36   18   19 ar
  37   18   36 1
  38   19   20 1

#	End of record

