#	Name: ASD02198516
#	Creating user name:	WinNT
#	Creation time:	15. 06. 2019 20:19

#	Modifying user name:	WinNT
#	Modification time:	15. 06. 2019 20:19

#	Program:	/corina/corina34_cracker 3.40 0067  02.08.2006

@<TRIPOS>MOLECULE
ASD02198516
  46   49    0    0    0
SMALL
NO_CHARGES


@<TRIPOS>ATOM
   1 C1             0.0072     1.5098     0.1333 C.2     
   2 C2             0.0745     0.1698    -0.0950 C.2     
   3 N3            -1.0519    -0.5605    -0.2647 N.pl3   
   4 N4            -2.2299    -0.0571    -0.2243 N.2     
   5 C5            -2.4376     1.2257    -0.0114 C.2     
   6 C6            -1.2793     2.1066     0.1921 C.2     
   7 C7            -0.9242    -1.9342    -0.4964 C.ar    
   8 C8            -1.3805    -3.8724    -1.8456 C.ar    
   9 C9            -0.6707    -4.6548    -0.9545 C.ar    
  10 C10           -0.0931    -4.0843     0.1656 C.ar    
  11 C11           -0.2176    -2.7283     0.3968 C.ar    
  12 C12           -3.8109     1.7685     0.0280 C.2     
  13 N13           -4.3733     2.4811     1.0495 N.pl3   
  14 N14           -5.6851     2.7991     0.6763 N.2     
  15 C15           -5.9151     2.3061    -0.5145 C.2     
  16 C16           -4.7638     1.6568    -0.9605 C.2     
  17 C17           -3.7497     2.8303     2.2541 C.ar    
  18 C18           -2.9561     1.9057     2.9204 C.ar    
  19 O19           -1.4173     3.3046     0.3933 O.2     
  20 C20           -3.9190     4.1036     2.7817 C.ar    
  21 C21           -3.3024     4.4450     3.9695 C.ar    
  22 C22           -2.5170     3.5204     4.6332 C.ar    
  23 C23           -2.3421     2.2533     4.1077 C.ar    
  24 C24           -1.5107    -2.5108    -1.6217 C.ar    
  25 O25           -2.2088    -1.7401    -2.4968 O.3     
  26 C26           -2.7823    -2.3993    -3.6275 C.3     
  27 F27           -1.7680    -2.9995    -4.3814 F       
  28 F28           -3.6802    -3.3790    -3.1903 F       
  29 O29            1.1344     2.2511     0.3049 O.3     
  30 C30            2.3828     1.5593     0.2343 C.3     
  31 H31            1.0379    -0.3161    -0.1415 H       
  32 H32           -1.8300    -4.3213    -2.7190 H       
  33 H33           -0.5704    -5.7155    -1.1308 H       
  34 H34            0.4603    -4.7002     0.8590 H       
  35 H35            0.2348    -2.2858     1.2720 H       
  36 H36           -6.8418     2.3914    -1.0626 H       
  37 H37           -4.6436     1.1514    -1.9073 H       
  38 H38           -2.8194     0.9159     2.5107 H       
  39 H39           -4.5320     4.8263     2.2637 H       
  40 H40           -3.4335     5.4353     4.3801 H       
  41 H41           -2.0356     3.7899     5.5616 H       
  42 H42           -1.7284     1.5333     4.6286 H       
  43 H43           -3.3104    -1.6713    -4.2433 H       
  44 H44            2.4168     0.7913     1.0071 H       
  45 H45            2.4851     1.0933    -0.7457 H       
  46 H46            3.1987     2.2656     0.3878 H       
@<TRIPOS>BOND
   1    1    2 2
   2    1   29 1
   3    1    6 1
   4    2    3 1
   5    2   31 1
   6    3    4 1
   7    3    7 1
   8    4    5 2
   9    5    6 1
  10    5   12 1
  11    6   19 2
  12    7   24 ar
  13    7   11 ar
  14    8    9 ar
  15    8   24 ar
  16    8   32 1
  17    9   10 ar
  18    9   33 1
  19   10   11 ar
  20   10   34 1
  21   11   35 1
  22   12   13 1
  23   12   16 2
  24   13   14 1
  25   13   17 1
  26   14   15 2
  27   15   16 1
  28   15   36 1
  29   16   37 1
  30   17   20 ar
  31   17   18 ar
  32   18   23 ar
  33   18   38 1
  34   20   21 ar
  35   20   39 1
  36   21   22 ar
  37   21   40 1
  38   22   23 ar
  39   22   41 1
  40   23   42 1
  41   24   25 1
  42   25   26 1
  43   26   27 1
  44   26   28 1
  45   26   43 1
  46   29   30 1
  47   30   44 1
  48   30   45 1
  49   30   46 1

#	End of record

