#	Name: ASD02500189
#	Creating user name:	WinNT
#	Creation time:	15. 06. 2019 20:22

#	Modifying user name:	WinNT
#	Modification time:	15. 06. 2019 20:22

#	Program:	/corina/corina34_cracker 3.40 0067  02.08.2006

@<TRIPOS>MOLECULE
ASD02500189
  62   66    0    0    0
SMALL
NO_CHARGES


@<TRIPOS>ATOM
   1 N1            -2.8938     5.6431    -0.8246 N.ar    
   2 C2            -3.9568     6.3087    -1.2057 C.ar    
   3 C3            -5.1869     6.1521    -0.5702 C.ar    
   4 C4            -5.3066     5.2863     0.4792 C.ar    
   5 C5            -4.1630     4.5728     0.8854 C.ar    
   6 C6            -4.2090     3.6659     1.9561 C.ar    
   7 C7            -3.0808     2.9953     2.3189 C.ar    
   8 C8            -1.8801     3.1975     1.6418 C.ar    
   9 C9            -1.7997     4.0691     0.5995 C.ar    
  10 C10           -2.9428     4.7801     0.1952 C.ar    
  11 S11           -0.2682     4.3062    -0.2390 S.o2    
  12 O12           -0.0642     5.7105    -0.3124 O.2     
  13 O13            0.6612     3.4162     0.3638 O.2     
  14 N14           -0.4756     3.7817    -1.7960 N.am    
  15 C15           -0.6947     2.4326    -2.0518 C.ar    
  16 C16           -0.1575     1.8461    -3.1947 C.ar    
  17 C17           -0.3725     0.5114    -3.4506 C.ar    
  18 C18           -1.1313    -0.2560    -2.5617 C.ar    
  19 C19           -1.6692     0.3358    -1.4153 C.ar    
  20 C20           -1.4458     1.6700    -1.1620 C.ar    
  21 C21            0.6599     2.6740    -4.1525 C.3     
  22 C22           -1.3641    -1.6871    -2.8334 C.2     
  23 O23           -1.6280    -2.0568    -3.9613 O.2     
  24 N24           -1.2843    -2.5850    -1.8314 N.am    
  25 C25           -1.4177    -4.0231    -2.1033 C.3     
  26 C26           -0.1806    -4.7428    -1.5520 C.3     
  27 N27            0.0418    -4.3013    -0.1680 N.am    
  28 C28            0.1751    -2.8631     0.1039 C.3     
  29 C29           -1.0564    -2.1438    -0.4482 C.3     
  30 C30            0.1215    -5.1991     0.8340 C.2     
  31 C31           -0.1172    -6.6342     0.5625 C.ar    
  32 C32            0.6108    -7.3106    -0.4217 C.ar    
  33 C33            0.3561    -8.6498    -0.6420 C.ar    
  34 N34           -0.5578    -9.2910     0.0591 N.ar    
  35 C35           -1.2673    -8.6949     0.9957 C.ar    
  36 C36           -1.0745    -7.3550     1.2879 C.ar    
  37 O37            0.3895    -4.8302     1.9606 O.2     
  38 F38           -1.8016    -6.7515     2.2535 F       
  39 H39           -3.8770     6.9969    -2.0342 H       
  40 H40           -6.0447     6.7153    -0.9068 H       
  41 H41           -6.2522     5.1528     0.9836 H       
  42 H42           -5.1338     3.5013     2.4891 H       
  43 H43           -3.1171     2.2978     3.1426 H       
  44 H44           -0.9988     2.6540     1.9491 H       
  45 H45           -0.4442     4.4156    -2.5295 H       
  46 H46            0.0442     0.0571    -4.3374 H       
  47 H47           -2.2557    -0.2544    -0.7268 H       
  48 H48           -1.8571     2.1267    -0.2739 H       
  49 H49            1.7095     2.6365    -3.8610 H       
  50 H50            0.5487     2.2776    -5.1617 H       
  51 H51            0.3126     3.7069    -4.1276 H       
  52 H52           -2.3127    -4.4066    -1.6133 H       
  53 H53           -1.4875    -4.1871    -3.1786 H       
  54 H54           -0.3457    -5.8201    -1.5702 H       
  55 H55            0.6891    -4.4931    -2.1598 H       
  56 H56            0.2449    -2.6991     1.1792 H       
  57 H57            1.0701    -2.4797    -0.3861 H       
  58 H58           -0.8876    -1.0671    -0.4307 H       
  59 H59           -1.9250    -2.3904     0.1623 H       
  60 H60            1.3609    -6.7930    -1.0013 H       
  61 H61            0.9137    -9.1797    -1.4000 H       
  62 H62           -2.0057    -9.2596     1.5455 H       
@<TRIPOS>BOND
   1    1    2 ar
   2    1   10 ar
   3    2    3 ar
   4    2   39 1
   5    3    4 ar
   6    3   40 1
   7    4    5 ar
   8    4   41 1
   9    5    6 ar
  10    5   10 ar
  11    6    7 ar
  12    6   42 1
  13    7    8 ar
  14    7   43 1
  15    8    9 ar
  16    8   44 1
  17    9   10 ar
  18    9   11 1
  19   11   12 2
  20   11   13 2
  21   11   14 am
  22   14   15 1
  23   14   45 1
  24   15   16 ar
  25   15   20 ar
  26   16   17 ar
  27   16   21 1
  28   17   18 ar
  29   17   46 1
  30   18   19 ar
  31   18   22 1
  32   19   20 ar
  33   19   47 1
  34   20   48 1
  35   21   49 1
  36   21   50 1
  37   21   51 1
  38   22   23 2
  39   22   24 am
  40   24   25 1
  41   24   29 1
  42   25   26 1
  43   25   52 1
  44   25   53 1
  45   26   27 1
  46   26   54 1
  47   26   55 1
  48   27   28 1
  49   27   30 am
  50   28   29 1
  51   28   56 1
  52   28   57 1
  53   29   58 1
  54   29   59 1
  55   30   31 1
  56   30   37 2
  57   31   32 ar
  58   31   36 ar
  59   32   33 ar
  60   32   60 1
  61   33   34 ar
  62   33   61 1
  63   34   35 ar
  64   35   36 ar
  65   35   62 1
  66   36   38 1

#	End of record

