#	Name: ASD01911349
#	Creating user name:	WinNT
#	Creation time:	15. 06. 2019 19:57

#	Modifying user name:	WinNT
#	Modification time:	15. 06. 2019 19:57

#	Program:	/corina/corina34_cracker 3.40 0067  02.08.2006

@<TRIPOS>MOLECULE
ASD01911349
  31   33    0    0    0
SMALL
NO_CHARGES


@<TRIPOS>ATOM
   1 C1            -0.0173     1.4278     0.0099 C.2     
   2 C2             0.0021    -0.0041     0.0020 C.1     
   3 C3             0.0180    -1.1779    -0.0044 C.1     
   4 C4             0.0374    -2.6098    -0.0123 C.ar    
   5 N5            -1.1139    -3.2819    -0.0049 N.ar    
   6 C6            -1.1407    -4.5953    -0.0124 C.ar    
   7 C7             0.0523    -5.3261    -0.0292 C.ar    
   8 C8             1.2790    -4.6523    -0.0367 C.ar    
   9 C9             1.2662    -3.2829    -0.0335 C.ar    
  10 C10           -2.4511    -5.3394    -0.0018 C.3     
  11 C11           -2.3255    -6.6248    -0.8159 C.3     
  12 N12           -1.1646    -7.4030    -0.3921 N.am    
  13 C13           -0.0116    -6.7990    -0.0402 C.2     
  14 O14            0.9627    -7.4603     0.2633 O.2     
  15 C15           -1.2544    -8.8646    -0.3485 C.3     
  16 C16            1.0861     2.2333     0.0037 C.2     
  17 C17            0.8064     3.5798     0.0128 C.2     
  18 C18           -0.4953     3.8921     0.0262 C.2     
  19 S19           -1.4656     2.4259     0.0214 S.3     
  20 H20            2.2110    -5.1979    -0.0490 H       
  21 H21            2.1928    -2.7281    -0.0391 H       
  22 H22           -2.7191    -5.5862     1.0255 H       
  23 H23           -3.2282    -4.7103    -0.4361 H       
  24 H24           -3.2263    -7.2235    -0.6806 H       
  25 H25           -2.2206    -6.3714    -1.8708 H       
  26 H26           -0.9537    -9.2760    -1.3121 H       
  27 H27           -0.5950    -9.2461     0.4311 H       
  28 H28           -2.2813    -9.1593    -0.1322 H       
  29 H29            2.0938     1.8451    -0.0074 H       
  30 H30            1.5817     4.3317     0.0097 H       
  31 H31           -0.8912     4.8969     0.0353 H       
@<TRIPOS>BOND
   1    1    2 1
   2    1   16 2
   3    1   19 1
   4    2    3 3
   5    3    4 1
   6    4    5 ar
   7    4    9 ar
   8    5    6 ar
   9    6    7 ar
  10    6   10 1
  11    7    8 ar
  12    7   13 1
  13    8    9 ar
  14    8   20 1
  15    9   21 1
  16   10   11 1
  17   10   22 1
  18   10   23 1
  19   11   12 1
  20   11   24 1
  21   11   25 1
  22   12   13 am
  23   12   15 1
  24   13   14 2
  25   15   26 1
  26   15   27 1
  27   15   28 1
  28   16   17 1
  29   16   29 1
  30   17   18 2
  31   17   30 1
  32   18   19 1
  33   18   31 1

#	End of record

