#	Name: ASD04560014
#	Creating user name:	WinNT
#	Creation time:	15. 06. 2019 20:49

#	Modifying user name:	WinNT
#	Modification time:	15. 06. 2019 20:49

#	Program:	/corina/corina34_cracker 3.40 0067  02.08.2006

@<TRIPOS>MOLECULE
ASD04560014
  46   48    0    0    0
SMALL
NO_CHARGES


@<TRIPOS>ATOM
   1 C1             0.2677     0.9575     0.1489 C.ar    
   2 C2             0.4099    -0.4059     0.1661 C.ar    
   3 C3             1.6731    -0.9775     0.0313 C.ar    
   4 C4             2.7952    -0.1662    -0.1208 C.ar    
   5 C5             2.6592     1.1978    -0.1387 C.ar    
   6 C6             1.3923     1.7746    -0.0041 C.ar    
   7 C7             1.2427     3.2413    -0.0234 C.2     
   8 O8             2.2215     3.9508    -0.1565 O.2     
   9 N9             0.0211     3.7958     0.1064 N.am    
  10 C10           -0.1097     5.1859     0.2028 C.ar    
  11 C11           -1.2089     5.8216    -0.3596 C.ar    
  12 C12            0.7255     7.3026     0.9599 C.ar    
  13 C13            0.8565     5.9309     0.8660 C.ar    
  14 F14           -0.4947     9.2769     0.4865 F       
  15 S15            1.8519    -2.7303     0.0539 S.3     
  16 C16            3.6395    -2.9608    -0.1512 C.3     
  17 C17           -1.3360     7.1934    -0.2633 C.ar    
  18 C18           -0.3684     7.9350     0.3934 C.ar    
  19 C19            3.9592    -4.4335    -0.1523 C.ar    
  20 C20            3.9659    -5.1415    -1.3450 C.ar    
  21 C21            4.2606    -6.4974    -1.3427 C.ar    
  22 C22            4.5466    -7.1387    -0.1533 C.ar    
  23 C23            4.5393    -6.4306     1.0346 C.ar    
  24 C24            4.2515    -5.0784     1.0342 C.ar    
  25 O25            3.6837    -4.5082    -2.5142 O.3     
  26 C26            4.6763    -3.8038    -3.0809 C.2     
  27 O27            5.7850    -3.8285    -2.6010 O.2     
  28 C28            4.4078    -2.9824    -4.3155 C.3     
  29 H29           -0.7123     1.4001     0.2489 H       
  30 H30           -0.4581    -1.0373     0.2845 H       
  31 H31            3.7733    -0.6122    -0.2243 H       
  32 H32            3.5296     1.8263    -0.2562 H       
  33 H33           -0.7674     3.2315     0.1330 H       
  34 H34           -1.9636     5.2436    -0.8722 H       
  35 H35            1.4768     7.8823     1.4756 H       
  36 H36            1.7097     5.4380     1.3082 H       
  37 H37            3.9567    -2.5195    -1.0960 H       
  38 H38            4.1651    -2.4755     0.6711 H       
  39 H39           -2.1905     7.6882    -0.7009 H       
  40 H40            4.2661    -7.0509    -2.2700 H       
  41 H41            4.7757    -8.1941    -0.1508 H       
  42 H42            4.7628    -6.9339     1.9636 H       
  43 H43            4.2464    -4.5276     1.9631 H       
  44 H44            4.1060    -1.9764    -4.0240 H       
  45 H45            5.3129    -2.9293    -4.9205 H       
  46 H46            3.6103    -3.4475    -4.8949 H       
@<TRIPOS>BOND
   1    1    2 ar
   2    1    6 ar
   3    1   29 1
   4    2    3 ar
   5    2   30 1
   6    3    4 ar
   7    3   15 1
   8    4    5 ar
   9    4   31 1
  10    5    6 ar
  11    5   32 1
  12    6    7 1
  13    7    8 2
  14    7    9 am
  15    9   10 1
  16    9   33 1
  17   10   11 ar
  18   10   13 ar
  19   11   17 ar
  20   11   34 1
  21   12   13 ar
  22   12   18 ar
  23   12   35 1
  24   13   36 1
  25   14   18 1
  26   15   16 1
  27   16   19 1
  28   16   37 1
  29   16   38 1
  30   17   18 ar
  31   17   39 1
  32   19   20 ar
  33   19   24 ar
  34   20   21 ar
  35   20   25 1
  36   21   22 ar
  37   21   40 1
  38   22   23 ar
  39   22   41 1
  40   23   24 ar
  41   23   42 1
  42   24   43 1
  43   25   26 1
  44   26   27 2
  45   26   28 1
  46   28   44 1
  47   28   45 1
  48   28   46 1

#	End of record

