#	Name: ASD07300274
#	Creating user name:	WinNT
#	Creation time:	15. 06. 2019 21:09

#	Modifying user name:	WinNT
#	Modification time:	15. 06. 2019 21:09

#	Program:	/corina/corina34_cracker 3.40 0067  02.08.2006

@<TRIPOS>MOLECULE
ASD07300274
  32   34    0    0    0
SMALL
NO_CHARGES


@<TRIPOS>ATOM
   1 C1            -0.0169     1.3940     0.0097 C.ar    
   2 C2             0.0021    -0.0041     0.0020 C.ar    
   3 C3             1.2196    -0.6679    -0.0132 C.ar    
   4 C4             2.3821     0.0924    -0.0202 C.ar    
   5 C5             2.2880     1.4735    -0.0119 C.ar    
   6 N6             1.1153     2.0774     0.0026 N.ar    
   7 C7            -2.1143     0.6616     0.0347 C.2     
   8 N8            -1.3553     1.7732     0.0301 N.am    
   9 N9            -1.3234    -0.4281     0.0124 N.am    
  10 O10           -3.3308     0.6439     0.0519 O.2     
  11 C11           -1.8334     3.0920     0.0441 C.ar    
  12 C12           -3.2001     3.3350     0.0642 C.ar    
  13 C13           -3.6701     4.6334     0.0779 C.ar    
  14 C14           -2.7769     5.6948     0.0717 C.ar    
  15 C15           -1.4112     5.4526     0.0512 C.ar    
  16 C16           -0.9400     4.1545     0.0437 C.ar    
  17 O17           -3.2403     6.9730     0.0852 O.3     
  18 F18            3.5915    -0.5095    -0.0345 F       
  19 C19           -1.7795    -1.8203     0.0085 C.3     
  20 C20           -1.9243    -2.3135     1.4496 C.3     
  21 H21            1.2628    -1.7471    -0.0190 H       
  22 H22            3.1904     2.0668    -0.0169 H       
  23 H23           -3.8956     2.5088     0.0687 H       
  24 H24           -4.7333     4.8226     0.0931 H       
  25 H25           -0.7162     6.2793     0.0460 H       
  26 H26            0.1234     3.9660     0.0326 H       
  27 H27           -3.3623     7.3378     0.9724 H       
  28 H28           -2.7433    -1.8854    -0.4964 H       
  29 H29           -1.0520    -2.4396    -0.5161 H       
  30 H30           -0.9605    -2.2484     1.9545 H       
  31 H31           -2.6519    -1.6942     1.9742 H       
  32 H32           -2.2637    -3.3493     1.4467 H       
@<TRIPOS>BOND
   1    1    2 ar
   2    1    6 ar
   3    1    8 1
   4    2    3 ar
   5    2    9 1
   6    3    4 ar
   7    3   21 1
   8    4    5 ar
   9    4   18 1
  10    5    6 ar
  11    5   22 1
  12    7    8 am
  13    7    9 am
  14    7   10 2
  15    8   11 1
  16    9   19 1
  17   11   12 ar
  18   11   16 ar
  19   12   13 ar
  20   12   23 1
  21   13   14 ar
  22   13   24 1
  23   14   15 ar
  24   14   17 1
  25   15   16 ar
  26   15   25 1
  27   16   26 1
  28   17   27 1
  29   19   20 1
  30   19   28 1
  31   19   29 1
  32   20   30 1
  33   20   31 1
  34   20   32 1

#	End of record

