#	Name: ASD01030012
#	Creating user name:	WinNT
#	Creation time:	15. 06. 2019 18:58

#	Modifying user name:	WinNT
#	Modification time:	15. 06. 2019 18:58

#	Program:	/corina/corina34_cracker 3.40 0067  02.08.2006

@<TRIPOS>MOLECULE
ASD01030012
  46   49    0    0    0
SMALL
NO_CHARGES


@<TRIPOS>ATOM
   1 C1            -0.0740     1.2838    -0.0075 C.ar    
   2 C2            -0.0337    -0.1032    -0.0219 C.ar    
   3 C3             1.1836    -0.7500    -0.0293 C.ar    
   4 C4             1.1075     2.0043    -0.0049 C.ar    
   5 C5             2.3333     1.3518    -0.0146 C.ar    
   6 C6             3.5762     2.2022    -0.0250 C.3     
   7 C7             4.8152     1.3794     0.3264 C.3     
   8 C8             4.8002     0.1084    -0.5230 C.3     
   9 C9             6.0875    -0.6783    -0.3815 C.3     
  10 C10            7.3492     0.0043    -0.9257 C.3     
  11 C11            8.2770    -1.2010    -1.2399 C.3     
  12 C12            7.3688    -2.4100    -1.4413 C.2     
  13 O13            7.7101    -3.5518    -1.6363 O.2     
  14 C14            5.9661    -1.8904    -1.3471 C.3     
  15 C15            5.5165    -1.3956    -2.7233 C.3     
  16 C16            4.9136    -2.8280    -0.7958 C.3     
  17 C17            3.5678    -2.0785    -0.8082 C.3     
  18 C18            3.6645    -0.7863    -0.0098 C.3     
  19 C19            2.3688    -0.0270    -0.0211 C.ar    
  20 S20           -1.8137     2.2124     1.3915 S.o2    
  21 O21           -3.1360     2.7015     1.2140 O.2     
  22 O22           -1.5065     1.0709     2.1801 O.2     
  23 O23           -1.2685     1.9318    -0.0015 O.3     
  24 O24           -1.0034     3.3643     1.9688 O.3     
  25 H25            3.8813    -1.0452     1.0266 H       
  26 H26            4.6403     0.3672    -1.5696 H       
  27 H27            6.2338    -0.9997     0.6497 H       
  28 H28           -0.9512    -0.6729    -0.0271 H       
  29 H29            1.2157    -1.8295    -0.0411 H       
  30 H30            1.0760     3.0838     0.0043 H       
  31 H31            3.7046     2.6344    -1.0174 H       
  32 H32            3.4643     3.0068     0.7017 H       
  33 H33            5.7139     1.9565     0.1090 H       
  34 H34            4.7937     1.1155     1.3837 H       
  35 H35            7.1245     0.5662    -1.8324 H       
  36 H36            7.7963     0.6500    -0.1699 H       
  37 H37            8.8468    -1.0066    -2.1485 H       
  38 H38            8.9545    -1.3781    -0.4046 H       
  39 H39            6.2123    -0.6371    -3.0819 H       
  40 H40            5.4988    -2.2319    -3.4222 H       
  41 H41            4.5180    -0.9653    -2.6463 H       
  42 H42            4.8469    -3.7180    -1.4216 H       
  43 H43            5.1694    -3.1115     0.2252 H       
  44 H44            3.2963    -1.8449    -1.8377 H       
  45 H45            2.7985    -2.7145    -0.3702 H       
  46 H46           -1.2709     3.6253     2.8606 H       
@<TRIPOS>BOND
   1    1    2 ar
   2    1    4 ar
   3    1   23 1
   4    2    3 ar
   5    2   28 1
   6    3   19 ar
   7    3   29 1
   8    4    5 ar
   9    4   30 1
  10    5    6 1
  11    5   19 ar
  12    6    7 1
  13    6   31 1
  14    6   32 1
  15    7    8 1
  16    7   33 1
  17    7   34 1
  18    8    9 1
  19    8   26 1
  20    8   18 1
  21    9   10 1
  22    9   14 1
  23    9   27 1
  24   10   11 1
  25   10   35 1
  26   10   36 1
  27   11   12 1
  28   11   37 1
  29   11   38 1
  30   12   13 2
  31   12   14 1
  32   14   15 1
  33   14   16 1
  34   15   39 1
  35   15   40 1
  36   15   41 1
  37   16   17 1
  38   16   42 1
  39   16   43 1
  40   17   18 1
  41   17   44 1
  42   17   45 1
  43   18   19 1
  44   18   25 1
  45   20   21 2
  46   20   22 2
  47   20   23 1
  48   20   24 1
  49   24   46 1

#	End of record

