#	Name: ASD01001270
#	Creating user name:	WinNT
#	Creation time:	15. 06. 2019 18:55

#	Modifying user name:	WinNT
#	Modification time:	15. 06. 2019 18:55

#	Program:	/corina/corina34_cracker 3.40 0067  02.08.2006

@<TRIPOS>MOLECULE
ASD01001270
  73   76    0    0    0
SMALL
NO_CHARGES


@<TRIPOS>ATOM
   1 N1            -0.2572     0.3457    -0.5475 N.2     
   2 C2             0.1738    -0.1295     0.6004 C.2     
   3 N3             1.4994     0.0524     0.6700 N.2     
   4 C4             1.9231     0.6382    -0.4187 C.2     
   5 N5             0.8661     0.8490    -1.2235 N.pl3   
   6 C6            -0.6685    -0.7617     1.6457 C.ar    
   7 C7            -1.9695    -1.1668     1.3463 C.ar    
   8 C8            -2.7500    -1.7554     2.3242 C.ar    
   9 C9            -2.2435    -1.9422     3.5968 C.ar    
  10 C10           -0.9521    -1.5418     3.8997 C.ar    
  11 C11           -0.1610    -0.9581     2.9283 C.ar    
  12 F12           -2.4660    -0.9840     0.1032 F       
  13 F13           -0.4635    -1.7269     5.1456 F       
  14 C14            0.8834     1.4797    -2.5457 C.3     
  15 C15            1.0953     0.4261    -3.6021 C.ar    
  16 C16            0.0081    -0.2078    -4.1740 C.ar    
  17 C17            0.2024    -1.1742    -5.1430 C.ar    
  18 C18            1.4840    -1.5066    -5.5405 C.ar    
  19 C19            2.5712    -0.8721    -4.9692 C.ar    
  20 C20            2.3767     0.0975    -4.0033 C.ar    
  21 C21            3.3510     1.0139    -0.7203 C.3     
  22 C22            3.9490     1.7505     0.4800 C.3     
  23 C23            3.8402     0.8685     1.7255 C.3     
  24 C24            5.4209     2.0642     0.2042 C.3     
  25 C25            3.1839     3.0552     0.7105 C.3     
  26 N26            4.1291    -0.1985    -0.9865 N.am    
  27 C27            5.2714    -0.1235    -1.6979 C.2     
  28 C28            3.6657    -1.4924    -0.4793 C.3     
  29 C29            2.6593    -2.0946    -1.4620 C.3     
  30 C30            2.3444    -3.5344    -1.0513 C.3     
  31 N31            2.3756    -3.6438     0.4133 N.3     
  32 C32            0.9540    -3.9178    -1.5618 C.3     
  33 F33            0.6660    -5.2344    -1.1863 F       
  34 C34            6.1030    -1.3306    -1.8903 C.ar    
  35 O35            5.6178     0.9366    -2.1813 O.2     
  36 C36            7.4989    -1.2516    -1.8213 C.ar    
  37 C37            8.2315    -2.4108    -2.0082 C.ar    
  38 C38            7.5676    -3.5988    -2.2548 C.ar    
  39 N39            6.2501    -3.6433    -2.3147 N.ar    
  40 C40            5.5094    -2.5691    -2.1381 C.ar    
  41 H41           -3.7572    -2.0694     2.0935 H       
  42 H42           -2.8568    -2.4017     4.3579 H       
  43 H43            0.8454    -0.6463     3.1654 H       
  44 H44           -0.0673     1.9834    -2.7204 H       
  45 H45            1.6938     2.2073    -2.5905 H       
  46 H46           -0.9932     0.0519    -3.8635 H       
  47 H47           -0.6470    -1.6700    -5.5893 H       
  48 H48            1.6359    -2.2622    -6.2970 H       
  49 H49            3.5725    -1.1320    -5.2795 H       
  50 H50            3.2261     0.5932    -3.5570 H       
  51 H51            3.3788     1.6629    -1.5956 H       
  52 H52            4.6019     0.0898     1.6869 H       
  53 H53            3.9889     1.4784     2.6166 H       
  54 H54            2.8524     0.4092     1.7603 H       
  55 H55            5.4984     2.6925    -0.6831 H       
  56 H56            5.8469     2.5890     1.0593 H       
  57 H57            5.9659     1.1347     0.0399 H       
  58 H58            2.1353     2.8317     0.9070 H       
  59 H59            3.6100     3.5800     1.5656 H       
  60 H60            3.2614     3.6835    -0.1768 H       
  61 H61            4.5158    -2.1661    -0.3715 H       
  62 H62            3.1876    -1.3526     0.4902 H       
  63 H63            1.7428    -1.5047    -1.4505 H       
  64 H64            3.0832    -2.0876    -2.4661 H       
  65 H65            3.0874    -4.2058    -1.4817 H       
  66 H66            3.2626    -3.3329     0.7803 H       
  67 H67            1.6124    -3.1324     0.8304 H       
  68 H68            0.2110    -3.2464    -1.1314 H       
  69 H69            0.9308    -3.8366    -2.6486 H       
  70 H70            7.9915    -0.3102    -1.6276 H       
  71 H71            9.3103    -2.3879    -1.9623 H       
  72 H72            8.1368    -4.5050    -2.4010 H       
  73 H73            4.4336    -2.6455    -2.1943 H       
@<TRIPOS>BOND
   1    1    2 2
   2    1    5 1
   3    2    3 1
   4    2    6 1
   5    3    4 2
   6    4    5 1
   7    4   21 1
   8    5   14 1
   9    6    7 ar
  10    6   11 ar
  11    7    8 ar
  12    7   12 1
  13    8    9 ar
  14    8   41 1
  15    9   10 ar
  16    9   42 1
  17   10   11 ar
  18   10   13 1
  19   11   43 1
  20   14   15 1
  21   14   44 1
  22   14   45 1
  23   15   16 ar
  24   15   20 ar
  25   16   17 ar
  26   16   46 1
  27   17   18 ar
  28   17   47 1
  29   18   19 ar
  30   18   48 1
  31   19   20 ar
  32   19   49 1
  33   20   50 1
  34   21   22 1
  35   21   26 1
  36   21   51 1
  37   22   23 1
  38   22   24 1
  39   22   25 1
  40   23   52 1
  41   23   53 1
  42   23   54 1
  43   24   55 1
  44   24   56 1
  45   24   57 1
  46   25   58 1
  47   25   59 1
  48   25   60 1
  49   26   27 am
  50   26   28 1
  51   27   34 1
  52   27   35 2
  53   28   29 1
  54   28   61 1
  55   28   62 1
  56   29   30 1
  57   29   63 1
  58   29   64 1
  59   30   31 1
  60   30   32 1
  61   30   65 1
  62   31   66 1
  63   31   67 1
  64   32   33 1
  65   32   68 1
  66   32   69 1
  67   34   36 ar
  68   34   40 ar
  69   36   37 ar
  70   36   70 1
  71   37   38 ar
  72   37   71 1
  73   38   39 ar
  74   38   72 1
  75   39   40 ar
  76   40   73 1

#	End of record

