#	Name: ASD01880060
#	Creating user name:	WinNT
#	Creation time:	15. 06. 2019 19:39

#	Modifying user name:	WinNT
#	Modification time:	15. 06. 2019 19:39

#	Program:	/corina/corina34_cracker 3.40 0067  02.08.2006

@<TRIPOS>MOLECULE
ASD01880060
  49   51    0    0    0
SMALL
NO_CHARGES


@<TRIPOS>ATOM
   1 C1            -0.0167     1.3776     0.0096 C.ar    
   2 C2             0.0021    -0.0041     0.0020 C.ar    
   3 N3             1.1443    -0.6632    -0.0120 N.ar    
   4 C4             2.3054    -0.0383    -0.0197 C.ar    
   5 C5             2.3651     1.3426    -0.0133 C.ar    
   6 C6             1.1850     2.0698     0.0019 C.ar    
   7 C7             3.6964     2.0488    -0.0217 C.3     
   8 N8             4.1154     2.2846    -1.4056 N.am    
   9 C9             3.6628     3.4141    -2.0888 C.ar    
  10 S10            5.1261     1.2108    -2.1591 S.o2    
  11 C11            4.0114     0.0118    -2.9404 C.3     
  12 C12            4.8281    -1.1555    -3.4983 C.3     
  13 O13            5.7918     1.9885    -3.1445 O.2     
  14 O14            5.8466     0.6025    -1.0960 O.2     
  15 C15            3.2758     4.5456    -1.3796 C.ar    
  16 C16            2.8280     5.6622    -2.0523 C.ar    
  17 C17            2.7637     5.6566    -3.4454 C.ar    
  18 C18            3.1529     4.5206    -4.1547 C.ar    
  19 C19            3.6049     3.4081    -3.4779 C.ar    
  20 C20            2.2820     6.8560    -4.1712 C.2     
  21 C21            1.0246     6.7933    -4.9549 C.ar    
  22 C22            1.0554     6.9451    -6.3402 C.ar    
  23 C23           -0.1179     6.8858    -7.0644 C.ar    
  24 C24           -1.3229     6.6766    -6.4180 C.ar    
  25 C25           -1.3595     6.5253    -5.0435 C.ar    
  26 C26           -0.1918     6.5765    -4.3097 C.ar    
  27 C27            2.9821     7.9959    -4.1191 C.2     
  28 H28           -0.9553     1.9117     0.0170 H       
  29 H29           -0.9295    -0.5505     0.0080 H       
  30 H30            3.2203    -0.6121    -0.0308 H       
  31 H31            1.2010     3.1496     0.0072 H       
  32 H32            3.6050     3.0027     0.4978 H       
  33 H33            4.4390     1.4303     0.4824 H       
  34 H34            3.3028    -0.3611    -2.2008 H       
  35 H35            3.4683     0.4960    -3.7521 H       
  36 H36            5.5366    -0.7826    -4.2378 H       
  37 H37            5.3711    -1.6397    -2.6866 H       
  38 H38            4.1583    -1.8760    -3.9678 H       
  39 H39            3.3258     4.5495    -0.3008 H       
  40 H40            2.5269     6.5407    -1.5010 H       
  41 H41            3.1039     4.5140    -5.2336 H       
  42 H42            3.9064     2.5282    -4.0268 H       
  43 H43            1.9955     7.1092    -6.8457 H       
  44 H44           -0.0953     7.0033    -8.1377 H       
  45 H45           -2.2387     6.6316    -6.9887 H       
  46 H46           -2.3032     6.3625    -4.5441 H       
  47 H47           -0.2214     6.4578    -3.2367 H       
  48 H48            2.6311     8.8697    -4.6478 H       
  49 H49            3.8978     8.0416    -3.5483 H       
@<TRIPOS>BOND
   1    1    2 ar
   2    1    6 ar
   3    1   28 1
   4    2    3 ar
   5    2   29 1
   6    3    4 ar
   7    4    5 ar
   8    4   30 1
   9    5    6 ar
  10    5    7 1
  11    6   31 1
  12    7    8 1
  13    7   32 1
  14    7   33 1
  15    8    9 1
  16    8   10 am
  17    9   15 ar
  18    9   19 ar
  19   10   11 1
  20   10   13 2
  21   10   14 2
  22   11   12 1
  23   11   34 1
  24   11   35 1
  25   12   36 1
  26   12   37 1
  27   12   38 1
  28   15   16 ar
  29   15   39 1
  30   16   17 ar
  31   16   40 1
  32   17   18 ar
  33   17   20 1
  34   18   19 ar
  35   18   41 1
  36   19   42 1
  37   20   21 1
  38   20   27 2
  39   21   22 ar
  40   21   26 ar
  41   22   23 ar
  42   22   43 1
  43   23   24 ar
  44   23   44 1
  45   24   25 ar
  46   24   45 1
  47   25   26 ar
  48   25   46 1
  49   26   47 1
  50   27   48 1
  51   27   49 1

#	End of record

