#	Name: ASD01812620
#	Creating user name:	WinNT
#	Creation time:	15. 06. 2019 19:28

#	Modifying user name:	WinNT
#	Modification time:	15. 06. 2019 19:28

#	Program:	/corina/corina34_cracker 3.40 0067  02.08.2006

@<TRIPOS>MOLECULE
ASD01812620
  53   57    0    0    0
SMALL
NO_CHARGES


@<TRIPOS>ATOM
   1 O1            -0.0163     1.3522     0.0095 O.3     
   2 C2             0.0021    -0.0041     0.0020 C.ar    
   3 C3             1.2105    -0.6847    -0.0132 C.ar    
   4 C4             1.2312    -2.0655    -0.0208 C.ar    
   5 C5             0.0448    -2.7828    -0.0128 C.ar    
   6 C6            -1.1603    -2.1223     0.0027 C.ar    
   7 C7            -1.2004    -0.7252     0.0155 C.ar    
   8 C8            -2.5947    -2.5891     0.0137 C.3     
   9 N9            -3.4200    -1.3759     0.0279 N.am    
  10 C10           -2.6104    -0.3028     0.0372 C.2     
  11 C11           -4.8845    -1.3401     0.0414 C.3     
  12 O12           -2.9891     0.8526     0.0485 O.2     
  13 C13            1.1734     2.0057     0.0016 C.ar    
  14 C14            1.8048     2.3329     1.2089 C.ar    
  15 C15            1.1984     1.9798     2.4572 C.1     
  16 C16            1.7735     2.3480    -1.2031 C.ar    
  17 C17            2.9856     3.0133    -1.2084 C.ar    
  18 C18            3.6092     3.3421    -0.0160 C.ar    
  19 C19            3.0296     3.0054     1.1881 C.ar    
  20 N20            0.7174     1.6997     3.4475 N.1     
  21 F21            1.1726     2.0305    -2.3707 F       
  22 C22           -5.3737    -1.3358     1.4668 C.ar    
  23 C23           -5.5683    -0.1354     2.1255 C.ar    
  24 C24           -6.0172    -0.1252     3.4322 C.ar    
  25 C25           -6.2738    -1.3212     4.0866 C.ar    
  26 C26           -6.0777    -2.5298     3.4228 C.ar    
  27 C27           -5.6322    -2.5313     2.1104 C.ar    
  28 N28           -6.7291    -1.3133     5.4135 N.pl3   
  29 N29           -7.0254    -2.4409     6.1902 N.2     
  30 C30           -7.4190    -2.0332     7.3701 C.2     
  31 C31           -7.3863    -0.6347     7.3835 C.2     
  32 C32           -6.9541    -0.2164     6.1710 C.2     
  33 O33           -6.3274    -3.7050     4.0589 O.3     
  34 C34           -6.1039    -4.9051     3.3161 C.3     
  35 H35            2.1387    -0.1327    -0.0195 H       
  36 H36            2.1758    -2.5889    -0.0333 H       
  37 H37            0.0677    -3.8625    -0.0192 H       
  38 H38           -2.8050    -3.1749    -0.8812 H       
  39 H39           -2.7882    -3.1845     0.9060 H       
  40 H40           -5.2306    -0.4387    -0.4642 H       
  41 H41           -5.2741    -2.2181    -0.4738 H       
  42 H42            3.4489     3.2777    -2.1475 H       
  43 H43            4.5560     3.8614    -0.0301 H       
  44 H44            3.5218     3.2608     2.1149 H       
  45 H45           -5.3686     0.7964     1.6173 H       
  46 H46           -6.1679     0.8137     3.9442 H       
  47 H47           -5.4835    -3.4668     1.5917 H       
  48 H48           -7.7178    -2.6672     8.1918 H       
  49 H49           -7.6547    -0.0008     8.2157 H       
  50 H50           -6.8157     0.8095     5.8632 H       
  51 H51           -5.0588    -4.9539     3.0104 H       
  52 H52           -6.3409    -5.7675     3.9391 H       
  53 H53           -6.7416    -4.9093     2.4320 H       
@<TRIPOS>BOND
   1    1    2 1
   2    1   13 1
   3    2    3 ar
   4    2    7 ar
   5    3    4 ar
   6    3   35 1
   7    4    5 ar
   8    4   36 1
   9    5    6 ar
  10    5   37 1
  11    6    8 1
  12    6    7 ar
  13    7   10 1
  14    8    9 1
  15    8   38 1
  16    8   39 1
  17    9   10 am
  18    9   11 1
  19   10   12 2
  20   11   22 1
  21   11   40 1
  22   11   41 1
  23   13   16 ar
  24   13   14 ar
  25   14   15 1
  26   14   19 ar
  27   15   20 3
  28   16   17 ar
  29   16   21 1
  30   17   18 ar
  31   17   42 1
  32   18   19 ar
  33   18   43 1
  34   19   44 1
  35   22   23 ar
  36   22   27 ar
  37   23   24 ar
  38   23   45 1
  39   24   25 ar
  40   24   46 1
  41   25   26 ar
  42   25   28 1
  43   26   27 ar
  44   26   33 1
  45   27   47 1
  46   28   29 1
  47   28   32 1
  48   29   30 2
  49   30   31 1
  50   30   48 1
  51   31   32 2
  52   31   49 1
  53   32   50 1
  54   33   34 1
  55   34   51 1
  56   34   52 1
  57   34   53 1

#	End of record

