#	Name: ASD01151010
#	Creating user name:	WinNT
#	Creation time:	15. 06. 2019 19:05

#	Modifying user name:	WinNT
#	Modification time:	15. 06. 2019 19:05

#	Program:	/corina/corina34_cracker 3.40 0067  02.08.2006

@<TRIPOS>MOLECULE
ASD01151010
  29   28    0    0    0
SMALL
NO_CHARGES


@<TRIPOS>ATOM
   1 C1            -0.0184     1.5023     0.0166 C.3     
   2 C2            -0.0003    -0.0045     0.0033 C.2     
   3 C3            -0.2283     1.9972     1.4490 C.3     
   4 N4            -1.1641    -0.6990     0.1062 N.pl3   
   5 N5             1.1365    -0.6447    -0.1074 N.2     
   6 C6            -1.1465    -2.1639     0.0933 C.3     
   7 C7            -2.5766    -2.6922     0.2223 C.3     
   8 C8             2.2843     0.0442    -0.3172 C.1     
   9 N9             3.2466     0.6218    -0.4931 N.1     
  10 C10           -3.3836    -2.2862    -1.0126 C.3     
  11 C11           -2.5485    -4.2178     0.3342 C.3     
  12 C12           -0.1247     3.5234     1.4816 C.3     
  13 H13            0.9308     1.8804    -0.3630 H       
  14 H14           -0.8311     1.8615    -0.6147 H       
  15 H15           -1.2150     1.6925     1.7978 H       
  16 H16            0.5350     1.5673     2.0975 H       
  17 H17           -2.0063    -0.2248     0.1882 H       
  18 H18           -0.7130    -2.5138    -0.8436 H       
  19 H19           -0.5482    -2.5274     0.9287 H       
  20 H20           -3.0405    -2.2709     1.1141 H       
  21 H21           -3.4036    -1.1993    -1.0923 H       
  22 H22           -2.9197    -2.7074    -1.9044 H       
  23 H23           -4.4024    -2.6626    -0.9207 H       
  24 H24           -1.9736    -4.5071     1.2139 H       
  25 H25           -3.5673    -4.5942     0.4261 H       
  26 H26           -2.0846    -4.6391    -0.5577 H       
  27 H27            0.8620     3.8281     1.1329 H       
  28 H28           -0.8881     3.9533     0.8332 H       
  29 H29           -0.2743     3.8759     2.5021 H       
@<TRIPOS>BOND
   1    1    2 1
   2    1    3 1
   3    1   13 1
   4    1   14 1
   5    2    4 1
   6    2    5 2
   7    3   12 1
   8    3   15 1
   9    3   16 1
  10    4    6 1
  11    4   17 1
  12    5    8 1
  13    6    7 1
  14    6   18 1
  15    6   19 1
  16    7   10 1
  17    7   11 1
  18    7   20 1
  19    8    9 3
  20   10   21 1
  21   10   22 1
  22   10   23 1
  23   11   24 1
  24   11   25 1
  25   11   26 1
  26   12   27 1
  27   12   28 1
  28   12   29 1

#	End of record

