#	Name: ASD01903262
#	Creating user name:	WinNT
#	Creation time:	15. 06. 2019 19:54

#	Modifying user name:	WinNT
#	Modification time:	15. 06. 2019 19:54

#	Program:	/corina/corina34_cracker 3.40 0067  02.08.2006

@<TRIPOS>MOLECULE
ASD01903262
  39   42    0    0    0
SMALL
NO_CHARGES


@<TRIPOS>ATOM
   1 C1             0.0313     1.3112     0.0785 C.ar    
   2 C2            -1.0994     1.6200    -0.6604 C.ar    
   3 C3            -1.0990     2.7503    -1.4631 C.ar    
   4 C4             0.0418     3.5364    -1.4973 C.ar    
   5 C5             1.1426     3.1654    -0.7279 C.ar    
   6 N6             1.1010     2.0748     0.0275 N.ar    
   7 C7             2.3696     3.9948    -0.7534 C.2     
   8 O8             2.4132     4.9944    -1.4433 O.2     
   9 N9             3.4376     3.6411    -0.0113 N.am    
  10 C10            4.6295     4.3682    -0.1092 C.ar    
  11 C11            4.5905     5.7429    -0.3045 C.ar    
  12 C12            5.7662     6.4598    -0.4010 C.ar    
  13 C13            6.9876     5.8068    -0.3034 C.ar    
  14 C14            7.0269     4.4327    -0.1081 C.ar    
  15 C15            5.8515     3.7162    -0.0054 C.ar    
  16 N16            8.1823     6.5347    -0.4078 N.am    
  17 C17            8.2490     7.8650    -0.5969 C.2     
  18 C18            9.6718     8.2615    -0.6544 C.ar    
  19 C19           10.4106     7.0725    -0.4860 C.ar    
  20 C20            9.4118     5.9952    -0.3263 C.2     
  21 O21            7.2992     8.6145    -0.7030 O.2     
  22 O22            9.6597     4.8183    -0.1569 O.2     
  23 C23           10.3342     9.4659    -0.8257 C.ar    
  24 C24           11.7214     9.4931    -0.8303 C.ar    
  25 C25           12.4458     8.3262    -0.6651 C.ar    
  26 C26           11.7959     7.1146    -0.4932 C.ar    
  27 Br27          12.6279    11.1361    -1.0646 Br      
  28 H28            0.0328     0.4339     0.7084 H       
  29 H29           -1.9724     0.9861    -0.6117 H       
  30 H30           -1.9678     3.0121    -2.0487 H       
  31 H31            0.0772     4.4238    -2.1118 H       
  32 H32            3.3803     2.8826     0.5905 H       
  33 H33            3.6405     6.2507    -0.3812 H       
  34 H34            5.7359     7.5286    -0.5529 H       
  35 H35            7.9771     3.9251    -0.0322 H       
  36 H36            5.8821     2.6474     0.1468 H       
  37 H37            9.7734    10.3797    -0.9555 H       
  38 H38           13.5253     8.3598    -0.6704 H       
  39 H39           12.3666     6.2068    -0.3639 H       
@<TRIPOS>BOND
   1    1    2 ar
   2    1    6 ar
   3    1   28 1
   4    2    3 ar
   5    2   29 1
   6    3    4 ar
   7    3   30 1
   8    4    5 ar
   9    4   31 1
  10    5    6 ar
  11    5    7 1
  12    7    8 2
  13    7    9 am
  14    9   10 1
  15    9   32 1
  16   10   11 ar
  17   10   15 ar
  18   11   12 ar
  19   11   33 1
  20   12   13 ar
  21   12   34 1
  22   13   14 ar
  23   13   16 1
  24   14   15 ar
  25   14   35 1
  26   15   36 1
  27   16   17 am
  28   16   20 am
  29   17   18 1
  30   17   21 2
  31   18   19 ar
  32   18   23 ar
  33   19   20 1
  34   19   26 ar
  35   20   22 2
  36   23   24 ar
  37   23   37 1
  38   24   25 ar
  39   24   27 1
  40   25   26 ar
  41   25   38 1
  42   26   39 1

#	End of record

