#	Name: ASD03730220
#	Creating user name:	WinNT
#	Creation time:	15. 06. 2019 20:44

#	Modifying user name:	WinNT
#	Modification time:	15. 06. 2019 20:44

#	Program:	/corina/corina34_cracker 3.40 0067  02.08.2006

@<TRIPOS>MOLECULE
ASD03730220
  58   63    0    0    0
SMALL
NO_CHARGES


@<TRIPOS>ATOM
   1 C1             0.0008    -0.0041    -0.0001 C.1     
   2 C2            -0.0182     1.4278     0.0085 C.ar    
   3 C3            -0.5967     2.1132     1.0804 C.ar    
   4 C4            -0.6142     3.4896     1.0874 C.ar    
   5 C5            -0.0549     4.2003     0.0252 C.ar    
   6 C6             0.5228     3.5175    -1.0453 C.ar    
   7 C7             0.5470     2.1412    -1.0521 C.ar    
   8 N8             0.0158    -1.1400    -0.0070 N.1     
   9 O9            -6.0834     4.2349    -0.2801 O.3     
  10 C10           -6.3333     2.8496     0.0227 C.3     
  11 O11           -5.5565     2.1391    -0.9594 O.3     
  12 C12           -4.5253     2.9739    -1.2833 C.ar    
  13 C13           -4.8507     4.2627    -0.8669 C.ar    
  14 C14           -3.3150     2.7339    -1.9086 C.ar    
  15 C15           -2.4168     3.7737    -2.1286 C.ar    
  16 C16           -2.7568     5.0588    -1.7167 C.ar    
  17 C17           -3.9602     5.3000    -1.0874 C.ar    
  18 O18           -1.1804     3.7505    -2.7039 O.3     
  19 C19           -1.6133     5.9532    -2.1145 C.3     
  20 C20           -0.8149     5.0870    -3.0984 C.3     
  21 N21           -1.5762     8.2356    -2.0077 N.am    
  22 C22           -2.0842     7.2304    -2.7484 C.2     
  23 C23           -0.7827     6.3757    -0.9396 C.ar    
  24 C24           -0.0750     5.6830     0.0339 C.ar    
  25 C25            0.6165     6.3864     1.0205 C.ar    
  26 C26            0.5918     7.7669     1.0209 C.ar    
  27 C27           -0.1120     8.4544     0.0529 C.ar    
  28 C28           -0.8072     7.7657    -0.9397 C.ar    
  29 C29           -1.8037     9.6551    -2.2895 C.3     
  30 C30           -3.0577    10.1271    -1.5509 C.3     
  31 C31           -3.2953    11.6096    -1.8452 C.3     
  32 C32           -4.5493    12.0816    -1.1065 C.3     
  33 C33           -4.7869    13.5641    -1.4009 C.3     
  34 O34           -2.7836     7.3367    -3.7336 O.2     
  35 H35           -1.0300     1.5632     1.9026 H       
  36 H36           -1.0615     4.0195     1.9153 H       
  37 H37            0.9555     4.0690    -1.8669 H       
  38 H38            0.9983     1.6128    -1.8789 H       
  39 H39           -5.9901     2.6097     1.0291 H       
  40 H40           -7.3929     2.6187    -0.0869 H       
  41 H41           -3.0656     1.7329    -2.2284 H       
  42 H42           -4.2086     6.3006    -0.7658 H       
  43 H43            0.2561     5.2479    -2.9750 H       
  44 H44           -1.1214     5.2851    -4.1255 H       
  45 H45            1.1685     5.8536     1.7806 H       
  46 H46            1.1265     8.3125     1.7842 H       
  47 H47           -0.1243     9.5343     0.0649 H       
  48 H48           -0.9440    10.2347    -1.9531 H       
  49 H49           -1.9393     9.7955    -3.3619 H       
  50 H50           -3.9173     9.5476    -1.8873 H       
  51 H51           -2.9221     9.9868    -0.4785 H       
  52 H52           -2.4356    12.1892    -1.5087 H       
  53 H53           -3.4308    11.7500    -2.9176 H       
  54 H54           -5.4089    11.5021    -1.4430 H       
  55 H55           -4.4137    11.9413    -0.0341 H       
  56 H56           -3.9272    14.1437    -1.0644 H       
  57 H57           -4.9224    13.7045    -2.4733 H       
  58 H58           -5.6802    13.9004    -0.8746 H       
@<TRIPOS>BOND
   1    1    2 1
   2    1    8 3
   3    2    3 ar
   4    2    7 ar
   5    3    4 ar
   6    3   35 1
   7    4    5 ar
   8    4   36 1
   9    5    6 ar
  10    5   24 1
  11    6    7 ar
  12    6   37 1
  13    7   38 1
  14    9   10 1
  15    9   13 1
  16   10   11 1
  17   10   39 1
  18   10   40 1
  19   11   12 1
  20   12   13 ar
  21   12   14 ar
  22   13   17 ar
  23   14   15 ar
  24   14   41 1
  25   15   16 ar
  26   15   18 1
  27   16   17 ar
  28   16   19 1
  29   17   42 1
  30   18   20 1
  31   19   20 1
  32   19   22 1
  33   19   23 1
  34   20   43 1
  35   20   44 1
  36   21   22 am
  37   21   28 1
  38   21   29 1
  39   22   34 2
  40   23   24 ar
  41   23   28 ar
  42   24   25 ar
  43   25   26 ar
  44   25   45 1
  45   26   27 ar
  46   26   46 1
  47   27   28 ar
  48   27   47 1
  49   29   30 1
  50   29   48 1
  51   29   49 1
  52   30   31 1
  53   30   50 1
  54   30   51 1
  55   31   32 1
  56   31   52 1
  57   31   53 1
  58   32   33 1
  59   32   54 1
  60   32   55 1
  61   33   56 1
  62   33   57 1
  63   33   58 1

#	End of record

