#	Name: ASD01913507
#	Creating user name:	WinNT
#	Creation time:	15. 06. 2019 20:01

#	Modifying user name:	WinNT
#	Modification time:	15. 06. 2019 20:01

#	Program:	/corina/corina34_cracker 3.40 0067  02.08.2006

@<TRIPOS>MOLECULE
ASD01913507
  43   45    0    0    0
SMALL
NO_CHARGES


@<TRIPOS>ATOM
   1 C1             1.3393    -0.4432    -0.7137 C.ar    
   2 C2             0.0385     0.0506    -0.7771 C.ar    
   3 C3            -0.3647     0.7433    -1.9122 C.ar    
   4 N4             0.4686     0.9321    -2.9155 N.ar    
   5 C5             1.7062     0.4772    -2.8861 C.ar    
   6 C6             2.1807    -0.2213    -1.7916 C.ar    
   7 C7            -2.1114     0.4486     0.2610 C.ar    
   8 C8            -3.2581    -0.3328     0.1866 C.ar    
   9 N9            -4.4535     0.2224     0.1687 N.ar    
  10 C10           -4.6147     1.5294     0.2205 C.ar    
  11 C11           -3.5181     2.3796     0.2966 C.ar    
  12 C12           -2.2388     1.8336     0.3174 C.ar    
  13 N13           -3.6983     3.7657     0.3507 N.am    
  14 C14           -2.8607     4.5260     1.0834 C.2     
  15 N15           -0.8480    -0.1480     0.2846 N.pl3   
  16 C16           -3.1079     5.9771     1.2199 C.ar    
  17 O17           -1.9018     4.0186     1.6319 O.2     
  18 C18           -4.2091     6.5617     0.5903 C.ar    
  19 C19           -4.4421     7.9170     0.7170 C.ar    
  20 C20           -3.5896     8.7033     1.4659 C.ar    
  21 C21           -2.4837     8.1316     2.1009 C.ar    
  22 C22           -2.2461     6.7636     1.9817 C.ar    
  23 C23           -1.6000     8.9486     2.8769 C.1     
  24 C24           -0.4529    -0.9818     1.4226 C.3     
  25 C25            0.2210    -0.1099     2.4840 C.3     
  26 N26           -0.8989     9.5967     3.4926 N.1     
  27 H27            1.6849    -0.9820     0.1562 H       
  28 H28           -1.3711     1.1306    -1.9729 H       
  29 H29            2.3580     0.6527    -3.7291 H       
  30 H30            3.1959    -0.5894    -1.7769 H       
  31 H31           -3.1687    -1.4082     0.1424 H       
  32 H32           -5.6114     1.9448     0.2032 H       
  33 H33           -1.3667     2.4681     0.3764 H       
  34 H34           -4.4261     4.1797    -0.1390 H       
  35 H35           -4.8799     5.9525     0.0026 H       
  36 H36           -5.2949     8.3639     0.2278 H       
  37 H37           -3.7775     9.7626     1.5609 H       
  38 H38           -1.3932     6.3165     2.4706 H       
  39 H39           -1.3365    -1.4562     1.8496 H       
  40 H40            0.2445    -1.7489     1.0861 H       
  41 H41            0.5150    -0.7302     3.3306 H       
  42 H42            1.1046     0.3645     2.0570 H       
  43 H43           -0.4765     0.6572     2.8204 H       
@<TRIPOS>BOND
   1    1    2 ar
   2    1    6 ar
   3    1   27 1
   4    2    3 ar
   5    2   15 1
   6    3    4 ar
   7    3   28 1
   8    4    5 ar
   9    5    6 ar
  10    5   29 1
  11    6   30 1
  12    7    8 ar
  13    7   12 ar
  14    7   15 1
  15    8    9 ar
  16    8   31 1
  17    9   10 ar
  18   10   11 ar
  19   10   32 1
  20   11   12 ar
  21   11   13 1
  22   12   33 1
  23   13   14 am
  24   13   34 1
  25   14   16 1
  26   14   17 2
  27   15   24 1
  28   16   18 ar
  29   16   22 ar
  30   18   19 ar
  31   18   35 1
  32   19   20 ar
  33   19   36 1
  34   20   21 ar
  35   20   37 1
  36   21   22 ar
  37   21   23 1
  38   22   38 1
  39   23   26 3
  40   24   25 1
  41   24   39 1
  42   24   40 1
  43   25   41 1
  44   25   42 1
  45   25   43 1

#	End of record

