#	Name: ASD01900845
#	Creating user name:	WinNT
#	Creation time:	15. 06. 2019 19:52

#	Modifying user name:	WinNT
#	Modification time:	15. 06. 2019 19:52

#	Program:	/corina/corina34_cracker 3.40 0067  02.08.2006

@<TRIPOS>MOLECULE
ASD01900845
  29   30    0    0    0
SMALL
NO_CHARGES


@<TRIPOS>ATOM
   1 N1            -0.0189     1.3108     0.0342 N.ar    
   2 C2             0.0869     0.0004     0.0710 C.ar    
   3 C3            -0.7587    -0.8031    -0.6768 C.ar    
   4 C4            -1.7282    -0.2135    -1.4732 C.ar    
   5 C5            -1.8167     1.1693    -1.4924 C.ar    
   6 C6            -0.9330     1.9148    -0.7149 C.ar    
   7 C7            -1.0145     3.3939    -0.7243 C.2     
   8 O8            -1.8496     3.9521    -1.4083 O.2     
   9 N9            -0.1625     4.1205     0.0257 N.am    
  10 C10           -0.1742     5.5163    -0.0569 C.ar    
  11 C11           -1.3721     6.1909    -0.2447 C.ar    
  12 C12           -1.3793     7.5767    -0.3262 C.ar    
  13 C13           -0.1867     8.2838    -0.2196 C.ar    
  14 C14            1.0036     7.6086    -0.0332 C.ar    
  15 C15            1.0131     6.2295     0.0546 C.ar    
  16 S16           -2.8974     8.4385    -0.5652 S.3     
  17 C17           -2.3787    10.1764    -0.6019 C.3     
  18 H18            0.8436    -0.4557     0.6922 H       
  19 H19           -0.6633    -1.8782    -0.6398 H       
  20 H20           -2.3990    -0.8181    -2.0655 H       
  21 H21           -2.5598     1.6621    -2.1018 H       
  22 H22            0.4588     3.6752     0.6229 H       
  23 H23           -2.2968     5.6391    -0.3276 H       
  24 H24           -0.1913     9.3619    -0.2829 H       
  25 H25            1.9286     8.1600     0.0487 H       
  26 H26            1.9451     5.7051     0.2052 H       
  27 H27           -3.2514    10.8130    -0.7475 H       
  28 H28           -1.8962    10.4315     0.3416 H       
  29 H29           -1.6769    10.3289    -1.4218 H       
@<TRIPOS>BOND
   1    1    2 ar
   2    1    6 ar
   3    2    3 ar
   4    2   18 1
   5    3    4 ar
   6    3   19 1
   7    4    5 ar
   8    4   20 1
   9    5    6 ar
  10    5   21 1
  11    6    7 1
  12    7    8 2
  13    7    9 am
  14    9   10 1
  15    9   22 1
  16   10   11 ar
  17   10   15 ar
  18   11   12 ar
  19   11   23 1
  20   12   13 ar
  21   12   16 1
  22   13   14 ar
  23   13   24 1
  24   14   15 ar
  25   14   25 1
  26   15   26 1
  27   16   17 1
  28   17   27 1
  29   17   28 1
  30   17   29 1

#	End of record

