#	Name: ASD01910791
#	Creating user name:	WinNT
#	Creation time:	15. 06. 2019 19:56

#	Modifying user name:	WinNT
#	Modification time:	15. 06. 2019 19:56

#	Program:	/corina/corina34_cracker 3.40 0067  02.08.2006

@<TRIPOS>MOLECULE
ASD01910791
  54   57    0    0    0
SMALL
NO_CHARGES


@<TRIPOS>ATOM
   1 C1           -12.3985    -2.2635    -4.2834 C.ar    
   2 C2           -13.0093    -2.4614    -3.0358 C.ar    
   3 C3           -12.3094    -2.1315    -1.9062 C.ar    
   4 C4           -11.0219    -1.6132    -2.0267 C.ar    
   5 N5           -10.4672    -1.4358    -3.2179 N.ar    
   6 C6           -11.1028    -1.7453    -4.3289 C.ar    
   7 N7           -10.3109    -1.2777    -0.8853 N.3     
   8 C8            -8.9827    -0.7520    -1.2280 C.3     
   9 C9            -8.3022    -0.2265     0.0405 C.3     
  10 N10           -8.3062    -1.2961     1.0501 N.am    
  11 C11           -9.5807    -1.9667     1.3483 C.3     
  12 C12          -10.2109    -2.4236     0.0284 C.3     
  13 C13           -7.1719    -1.6525     1.6848 C.2     
  14 C14           -7.2185    -2.6403     2.7811 C.ar    
  15 O15           -6.1102    -1.1606     1.3545 O.2     
  16 C16           -6.2102    -3.6018     2.8994 C.ar    
  17 C17           -6.2489    -4.5262     3.9209 C.ar    
  18 C18           -7.2882    -4.5099     4.8394 C.ar    
  19 C19           -8.3065    -3.5487     4.7311 C.ar    
  20 C20           -8.2651    -2.6109     3.7021 C.ar    
  21 C21           -9.3808    -3.5300     5.6777 C.1     
  22 C22          -10.2615    -3.5146     6.4538 C.1     
  23 C23          -11.3358    -3.4959     7.4005 C.ar    
  24 C24          -12.3494    -2.5398     7.2934 C.ar    
  25 C25          -13.3811    -2.5282     8.2086 C.ar    
  26 C26          -13.4140    -3.4600     9.2311 C.ar    
  27 C27          -12.4136    -4.4094     9.3438 C.ar    
  28 C28          -11.3788    -4.4372     8.4324 C.ar    
  29 O29           -7.3214    -5.4228     5.8421 O.3     
  30 C30           -6.2537    -6.3712     5.8915 C.3     
  31 C31          -13.0916    -2.5939    -5.4922 C.1     
  32 N32          -13.6414    -2.8559    -6.4511 N.1     
  33 H33          -14.0090    -2.8645    -2.9681 H       
  34 H34          -12.7515    -2.2714    -0.9308 H       
  35 H35          -10.6217    -1.5884    -5.2830 H       
  36 H36           -8.3775    -1.5476    -1.6625 H       
  37 H37           -9.0875     0.0601    -1.9475 H       
  38 H38           -7.2750     0.0589    -0.1865 H       
  39 H39           -8.8498     0.6365     0.4192 H       
  40 H40           -9.3989    -2.8318     1.9860 H       
  41 H41          -10.2513    -1.2710     1.8527 H       
  42 H42          -11.2065    -2.8240     0.2200 H       
  43 H43           -9.5886    -3.1960    -0.4236 H       
  44 H44           -5.3983    -3.6203     2.1875 H       
  45 H45           -5.4671    -5.2664     4.0063 H       
  46 H46           -9.0447    -1.8688     3.6133 H       
  47 H47          -12.3246    -1.8116     6.4962 H       
  48 H48          -14.1651    -1.7899     8.1271 H       
  49 H49          -14.2242    -3.4458     9.9451 H       
  50 H50          -12.4455    -5.1330    10.1449 H       
  51 H51          -10.5987    -5.1788     8.5215 H       
  52 H52           -6.2394    -6.9506     4.9683 H       
  53 H53           -5.3057    -5.8455     6.0053 H       
  54 H54           -6.4017    -7.0411     6.7385 H       
@<TRIPOS>BOND
   1    1    2 ar
   2    1   31 1
   3    1    6 ar
   4    2    3 ar
   5    2   33 1
   6    3    4 ar
   7    3   34 1
   8    4    5 ar
   9    4    7 1
  10    5    6 ar
  11    6   35 1
  12    7    8 1
  13    7   12 1
  14    8    9 1
  15    8   36 1
  16    8   37 1
  17    9   10 1
  18    9   38 1
  19    9   39 1
  20   10   11 1
  21   10   13 am
  22   11   12 1
  23   11   40 1
  24   11   41 1
  25   12   42 1
  26   12   43 1
  27   13   14 1
  28   13   15 2
  29   14   16 ar
  30   14   20 ar
  31   16   17 ar
  32   16   44 1
  33   17   18 ar
  34   17   45 1
  35   18   19 ar
  36   18   29 1
  37   19   20 ar
  38   19   21 1
  39   20   46 1
  40   21   22 3
  41   22   23 1
  42   23   24 ar
  43   23   28 ar
  44   24   25 ar
  45   24   47 1
  46   25   26 ar
  47   25   48 1
  48   26   27 ar
  49   26   49 1
  50   27   28 ar
  51   27   50 1
  52   28   51 1
  53   29   30 1
  54   30   52 1
  55   30   53 1
  56   30   54 1
  57   31   32 3

#	End of record

