#	Name: ASD01813601
#	Creating user name:	WinNT
#	Creation time:	15. 06. 2019 19:30

#	Modifying user name:	WinNT
#	Modification time:	15. 06. 2019 19:30

#	Program:	/corina/corina34_cracker 3.40 0067  02.08.2006

@<TRIPOS>MOLECULE
ASD01813601
  51   54    0    0    0
SMALL
NO_CHARGES


@<TRIPOS>ATOM
   1 C1             4.8352     2.8736    -0.6182 C.ar    
   2 C2             3.6921     2.1263    -0.8568 C.ar    
   3 C3             3.6621     0.7747    -0.5796 C.ar    
   4 C4             4.7895     0.1460    -0.0542 C.ar    
   5 C5             5.9477     0.9046     0.1867 C.ar    
   6 C6             5.9639     2.2724    -0.0982 C.ar    
   7 N7             4.7713    -1.2038     0.2278 N.pl3   
   8 C8             5.8272    -1.8532     0.7339 C.2     
   9 C9             7.0188    -1.2148     1.0125 C.2     
  10 C10            7.1329     0.2278     0.7424 C.2     
  11 O11            8.1634     0.8371     0.9706 O.2     
  12 C12            8.1549    -1.9629     1.5686 C.2     
  13 O13            9.3136    -1.3281     1.8366 O.3     
  14 O14            8.0499    -3.1541     1.7870 O.2     
  15 C15            3.5443    -1.9591    -0.0371 C.3     
  16 C16            3.5009    -2.3528    -1.4912 C.ar    
  17 N17            2.3378    -2.5680    -2.0716 N.ar    
  18 C18            2.2521    -2.9159    -3.3496 C.ar    
  19 C19            3.4029    -3.0650    -4.1216 C.ar    
  20 C20            4.6378    -2.8449    -3.5370 C.ar    
  21 C21            4.6817    -2.4776    -2.1994 C.ar    
  22 F22            2.5398     0.0611    -0.8172 F       
  23 F23            7.0773     3.0017     0.1329 F       
  24 C24            0.9220    -3.1483    -3.9605 C.ar    
  25 C25           -0.2309    -3.1246    -3.1663 C.ar    
  26 C26           -1.4720    -3.3436    -3.7484 C.ar    
  27 C27           -1.5667    -3.5840    -5.1049 C.ar    
  28 C28           -0.4280    -3.6079    -5.8921 C.ar    
  29 C29            0.8119    -3.3859    -5.3291 C.ar    
  30 N30           -0.1328    -2.8828    -1.7974 N.3     
  31 C31           -0.9343    -1.7140    -1.4106 C.3     
  32 C32           -0.5241    -4.0688    -1.0239 C.3     
  33 H33            4.8442     3.9296    -0.8442 H       
  34 H34            2.8150     2.6074    -1.2639 H       
  35 H35            5.7436    -2.9118     0.9309 H       
  36 H36           10.0325    -1.8621     2.2015 H       
  37 H37            3.5286    -2.8556     0.5826 H       
  38 H38            2.6786    -1.3399     0.1977 H       
  39 H39            3.3320    -3.3485    -5.1613 H       
  40 H40            5.5470    -2.9531    -4.1099 H       
  41 H41            5.6298    -2.2984    -1.7142 H       
  42 H42           -2.3641    -3.3263    -3.1398 H       
  43 H43           -2.5340    -3.7546    -5.5540 H       
  44 H44           -0.5112    -3.7966    -6.9522 H       
  45 H45            1.6973    -3.4051    -5.9472 H       
  46 H46           -1.9912    -1.9307    -1.5658 H       
  47 H47           -0.7608    -1.4865    -0.3588 H       
  48 H48           -0.6457    -0.8577    -2.0200 H       
  49 H49            0.1311    -4.9016    -1.2794 H       
  50 H50           -0.4383    -3.8525     0.0410 H       
  51 H51           -1.5552    -4.3321    -1.2593 H       
@<TRIPOS>BOND
   1    1    2 ar
   2    1    6 ar
   3    1   33 1
   4    2    3 ar
   5    2   34 1
   6    3    4 ar
   7    3   22 1
   8    4    5 ar
   9    4    7 1
  10    5    6 ar
  11    5   10 1
  12    6   23 1
  13    7    8 1
  14    7   15 1
  15    8    9 2
  16    8   35 1
  17    9   10 1
  18    9   12 1
  19   10   11 2
  20   12   13 1
  21   12   14 2
  22   13   36 1
  23   15   16 1
  24   15   37 1
  25   15   38 1
  26   16   17 ar
  27   16   21 ar
  28   17   18 ar
  29   18   19 ar
  30   18   24 1
  31   19   20 ar
  32   19   39 1
  33   20   21 ar
  34   20   40 1
  35   21   41 1
  36   24   25 ar
  37   24   29 ar
  38   25   26 ar
  39   25   30 1
  40   26   27 ar
  41   26   42 1
  42   27   28 ar
  43   27   43 1
  44   28   29 ar
  45   28   44 1
  46   29   45 1
  47   30   31 1
  48   30   32 1
  49   31   46 1
  50   31   47 1
  51   31   48 1
  52   32   49 1
  53   32   50 1
  54   32   51 1

#	End of record

