#	Name: ASD01915887
#	Creating user name:	WinNT
#	Creation time:	15. 06. 2019 20:06

#	Modifying user name:	WinNT
#	Modification time:	15. 06. 2019 20:06

#	Program:	/corina/corina34_cracker 3.40 0067  02.08.2006

@<TRIPOS>MOLECULE
ASD01915887
  38   40    0    0    0
SMALL
NO_CHARGES


@<TRIPOS>ATOM
   1 C1            -0.0167     1.3816     0.0096 C.2     
   2 C2             0.0021    -0.0041     0.0020 C.2     
   3 C3            -1.3134    -0.7687     0.0120 C.3     
   4 C4            -2.3556     0.0579     0.7615 C.3     
   5 N5            -2.3968     1.4465     0.3225 N.am    
   6 C6            -1.2728     2.1395     0.0202 C.2     
   7 O7            -1.3031     3.3316    -0.2234 O.2     
   8 S8             1.6313     1.9715    -0.0029 S.3     
   9 C9             2.2203     0.3104    -0.0185 C.2     
  10 N10            1.2022    -0.5135    -0.0131 N.2     
  11 C11            3.5985    -0.0782    -0.0350 C.1     
  12 C12           -3.6953     2.1137     0.1998 C.3     
  13 C13            4.7284    -0.3968    -0.0484 C.1     
  14 C14            6.1066    -0.7854    -0.0649 C.ar    
  15 C15            6.4547    -2.1395    -0.0762 C.ar    
  16 C16            7.7840    -2.5058    -0.0920 C.ar    
  17 C17            8.7724    -1.5370    -0.0967 C.ar    
  18 C18            8.4357    -0.1947    -0.0855 C.ar    
  19 C19            7.1108     0.1874    -0.0755 C.ar    
  20 C20           -4.0526     2.7825     1.5288 C.3     
  21 O21           -3.1158     3.8260     1.8039 O.3     
  22 C22           -3.3607     4.5185     3.0297 C.3     
  23 H23           -1.6469    -0.9357    -1.0122 H       
  24 H24           -1.1758    -1.7261     0.5146 H       
  25 H25           -3.3373    -0.3894     0.6059 H       
  26 H26           -2.1249     0.0325     1.8265 H       
  27 H27           -3.6431     2.8689    -0.5844 H       
  28 H28           -4.4590     1.3786    -0.0538 H       
  29 H29            5.6845    -2.8966    -0.0723 H       
  30 H30            8.0546    -3.5513    -0.1004 H       
  31 H31            9.8118    -1.8301    -0.1087 H       
  32 H32            9.2127     0.5555    -0.0892 H       
  33 H33            6.8496     1.2353    -0.0672 H       
  34 H34           -5.0564     3.2026     1.4658 H       
  35 H35           -4.0178     2.0428     2.3286 H       
  36 H36           -3.3116     3.8149     3.8607 H       
  37 H37           -2.6072     5.2943     3.1654 H       
  38 H38           -4.3502     4.9747     2.9978 H       
@<TRIPOS>BOND
   1    1    2 2
   2    1    8 1
   3    1    6 1
   4    2    3 1
   5    2   10 1
   6    3    4 1
   7    3   23 1
   8    3   24 1
   9    4    5 1
  10    4   25 1
  11    4   26 1
  12    5    6 am
  13    5   12 1
  14    6    7 2
  15    8    9 1
  16    9   10 2
  17    9   11 1
  18   11   13 3
  19   12   20 1
  20   12   27 1
  21   12   28 1
  22   13   14 1
  23   14   15 ar
  24   14   19 ar
  25   15   16 ar
  26   15   29 1
  27   16   17 ar
  28   16   30 1
  29   17   18 ar
  30   17   31 1
  31   18   19 ar
  32   18   32 1
  33   19   33 1
  34   20   21 1
  35   20   34 1
  36   20   35 1
  37   21   22 1
  38   22   36 1
  39   22   37 1
  40   22   38 1

#	End of record

