#	Name: ASD04910363
#	Creating user name:	WinNT
#	Creation time:	15. 06. 2019 20:55

#	Modifying user name:	WinNT
#	Modification time:	15. 06. 2019 20:55

#	Program:	/corina/corina34_cracker 3.40 0067  02.08.2006

@<TRIPOS>MOLECULE
ASD04910363
  60   62    0    0    0
SMALL
NO_CHARGES


@<TRIPOS>ATOM
   1 C1             0.2149     0.6991     0.8302 C.3     
   2 C2             0.0698    -0.7894     0.5074 C.3     
   3 C3             0.7420    -2.3645    -1.1558 C.2     
   4 C4             1.4347    -2.7415    -2.4049 C.ar    
   5 C5             1.4054    -4.0642    -2.8513 C.ar    
   6 C6             2.0540    -4.4093    -4.0189 C.ar    
   7 C7             2.7328    -3.4482    -4.7469 C.ar    
   8 C8             2.7663    -2.1358    -4.3101 C.ar    
   9 C9             2.1168    -1.7757    -3.1476 C.ar    
  10 O10            0.1452    -3.2060    -0.5145 O.2     
  11 O11            0.7722    -1.0875    -0.7279 O.3     
  12 C12            3.4394    -3.8329    -6.0212 C.3     
  13 C13            2.5710    -3.4504    -7.2214 C.3     
  14 C14            3.2297    -3.9519    -8.5080 C.3     
  15 C15            2.3612    -3.5694    -9.7082 C.3     
  16 O16            4.6894    -3.1447    -6.0991 O.3     
  17 C17            5.7207    -3.8035    -6.6910 C.ar    
  18 C18            5.5532    -5.1127    -7.1184 C.ar    
  19 C19            6.6003    -5.7821    -7.7200 C.ar    
  20 C20            7.8209    -5.1448    -7.8973 C.ar    
  21 C21            7.9880    -3.8346    -7.4694 C.ar    
  22 C22            6.9387    -3.1644    -6.8727 C.ar    
  23 N23            8.8853    -5.8246    -8.5081 N.pl3   
  24 N24            9.4166    -7.0565    -8.1048 N.2     
  25 C25           10.3953    -7.3657    -8.9171 C.2     
  26 C26           10.5191    -6.3424    -9.8630 C.2     
  27 C27            9.5760    -5.4098    -9.5937 C.2     
  28 C28           11.5214    -6.2909   -10.9872 C.3     
  29 F29           12.3249    -7.4354   -10.9484 F       
  30 F30           10.8465    -6.2362   -12.2114 F       
  31 F31           12.3231    -5.1532   -10.8454 F       
  32 C32            9.3127    -3.1423    -7.6616 C.3     
  33 C33            6.4184    -7.2044    -8.1837 C.3     
  34 H34            1.2707     0.9449     0.9442 H       
  35 H35           -0.2101     1.2900     0.0188 H       
  36 H36           -0.3124     0.9229     1.7575 H       
  37 H37            0.4949    -1.3803     1.3187 H       
  38 H38           -0.9860    -1.0352     0.3934 H       
  39 H39            0.8765    -4.8155    -2.2836 H       
  40 H40            2.0321    -5.4320    -4.3653 H       
  41 H41            3.2986    -1.3907    -4.8828 H       
  42 H42            2.1396    -0.7500    -2.8103 H       
  43 H43            3.6158    -4.9085    -6.0285 H       
  44 H44            1.5858    -3.9048    -7.1165 H       
  45 H45            2.4682    -2.3661    -7.2646 H       
  46 H46            4.2148    -3.4975    -8.6129 H       
  47 H47            3.3324    -5.0362    -8.4648 H       
  48 H48            2.2584    -2.4851    -9.7514 H       
  49 H49            2.8304    -3.9267   -10.6248 H       
  50 H50            1.3760    -4.0239    -9.6033 H       
  51 H51            4.6038    -5.6085    -6.9801 H       
  52 H52            7.0673    -2.1437    -6.5439 H       
  53 H53           11.0028    -8.2571    -8.8658 H       
  54 H54            9.4073    -4.4967   -10.1453 H       
  55 H55            9.3054    -2.5998    -8.6069 H       
  56 H56            9.4792    -2.4426    -6.8425 H       
  57 H57           10.1117    -3.8836    -7.6742 H       
  58 H58            6.0191    -7.2076    -9.1979 H       
  59 H59            7.3803    -7.7168    -8.1704 H       
  60 H60            5.7241    -7.7175    -7.5183 H       
@<TRIPOS>BOND
   1    1    2 1
   2    1   34 1
   3    1   35 1
   4    1   36 1
   5    2   11 1
   6    2   37 1
   7    2   38 1
   8    3    4 1
   9    3   10 2
  10    3   11 1
  11    4    5 ar
  12    4    9 ar
  13    5    6 ar
  14    5   39 1
  15    6    7 ar
  16    6   40 1
  17    7    8 ar
  18    7   12 1
  19    8    9 ar
  20    8   41 1
  21    9   42 1
  22   12   13 1
  23   12   16 1
  24   12   43 1
  25   13   14 1
  26   13   44 1
  27   13   45 1
  28   14   15 1
  29   14   46 1
  30   14   47 1
  31   15   48 1
  32   15   49 1
  33   15   50 1
  34   16   17 1
  35   17   18 ar
  36   17   22 ar
  37   18   19 ar
  38   18   51 1
  39   19   20 ar
  40   19   33 1
  41   20   21 ar
  42   20   23 1
  43   21   22 ar
  44   21   32 1
  45   22   52 1
  46   23   24 1
  47   23   27 1
  48   24   25 2
  49   25   26 1
  50   25   53 1
  51   26   27 2
  52   26   28 1
  53   27   54 1
  54   28   29 1
  55   28   30 1
  56   28   31 1
  57   32   55 1
  58   32   56 1
  59   32   57 1
  60   33   58 1
  61   33   59 1
  62   33   60 1

#	End of record

