#	Name: ASD01903291
#	Creating user name:	WinNT
#	Creation time:	15. 06. 2019 19:54

#	Modifying user name:	WinNT
#	Modification time:	15. 06. 2019 19:54

#	Program:	/corina/corina34_cracker 3.40 0067  02.08.2006

@<TRIPOS>MOLECULE
ASD01903291
  40   43    0    0    0
SMALL
NO_CHARGES


@<TRIPOS>ATOM
   1 C1             0.0316     1.3107     0.0770 C.ar    
   2 C2            -1.0988     1.6195    -0.6624 C.ar    
   3 C3            -1.0981     2.7501    -1.4648 C.ar    
   4 C4             0.0425     3.5364    -1.4981 C.ar    
   5 C5             1.1429     3.1654    -0.7283 C.ar    
   6 N6             1.1011     2.0746     0.0269 N.ar    
   7 C7             2.3699     3.9948    -0.7532 C.2     
   8 O8             2.4138     4.9944    -1.4431 O.2     
   9 N9             3.4376     3.6411    -0.0106 N.am    
  10 C10            4.6297     4.3683    -0.1080 C.ar    
  11 C11            4.5906     5.7430    -0.3033 C.ar    
  12 C12            5.7661     6.4601    -0.3993 C.ar    
  13 C13            6.9881     5.8070    -0.3006 C.ar    
  14 C14            7.0271     4.4324    -0.1053 C.ar    
  15 C15            5.8516     3.7161    -0.0036 C.ar    
  16 N16            8.1802     6.5334    -0.4043 N.am    
  17 S17            8.4043     7.9963    -1.1816 S.o2    
  18 C18           10.1307     8.2431    -0.8717 C.ar    
  19 C19           10.5019     7.1145    -0.1299 C.ar    
  20 C20            9.3755     6.2015     0.1045 C.2     
  21 O21            8.2484     7.7681    -2.5755 O.2     
  22 O22            9.5245     5.1715     0.7329 O.2     
  23 C23           12.3474     9.1102    -0.7881 C.ar    
  24 C24           12.7427     8.0063    -0.0531 C.ar    
  25 C25           11.8440     7.0178     0.2765 C.ar    
  26 C26           11.0268     9.2225    -1.1973 C.ar    
  27 O27            7.6927     8.9837    -0.4481 O.2     
  28 H28            0.0329     0.4332     0.7065 H       
  29 H29           -1.9717     0.9854    -0.6145 H       
  30 H30           -1.9667     3.0118    -2.0508 H       
  31 H31            0.0780     4.4240    -2.1124 H       
  32 H32            3.3800     2.8826     0.5912 H       
  33 H33            3.6405     6.2507    -0.3803 H       
  34 H34            5.7358     7.5288    -0.5515 H       
  35 H35            7.9772     3.9246    -0.0290 H       
  36 H36            5.8820     2.6473     0.1486 H       
  37 H37           13.0621     9.8796    -1.0405 H       
  38 H38           13.7710     7.9188     0.2651 H       
  39 H39           12.1714     6.1636     0.8505 H       
  40 H40           10.7080    10.0802    -1.7710 H       
@<TRIPOS>BOND
   1    1    2 ar
   2    1    6 ar
   3    1   28 1
   4    2    3 ar
   5    2   29 1
   6    3    4 ar
   7    3   30 1
   8    4    5 ar
   9    4   31 1
  10    5    6 ar
  11    5    7 1
  12    7    8 2
  13    7    9 am
  14    9   10 1
  15    9   32 1
  16   10   11 ar
  17   10   15 ar
  18   11   12 ar
  19   11   33 1
  20   12   13 ar
  21   12   34 1
  22   13   14 ar
  23   13   16 1
  24   14   15 ar
  25   14   35 1
  26   15   36 1
  27   16   17 am
  28   16   20 am
  29   17   18 1
  30   17   21 2
  31   17   27 2
  32   18   19 ar
  33   18   26 ar
  34   19   20 1
  35   19   25 ar
  36   20   22 2
  37   23   24 ar
  38   23   26 ar
  39   23   37 1
  40   24   25 ar
  41   24   38 1
  42   25   39 1
  43   26   40 1

#	End of record

