#	Name: ASD01885705
#	Creating user name:	WinNT
#	Creation time:	15. 06. 2019 19:50

#	Modifying user name:	WinNT
#	Modification time:	15. 06. 2019 19:50

#	Program:	/corina/corina34_cracker 3.40 0067  02.08.2006

@<TRIPOS>MOLECULE
ASD01885705
  57   62    0    0    0
SMALL
NO_CHARGES


@<TRIPOS>ATOM
   1 C1            -0.0170     1.4037     0.0098 C.ar    
   2 C2            -1.2666     2.0741     0.0193 C.ar    
   3 C3            -1.2876     3.4919     0.0272 C.ar    
   4 C4            -0.0705     4.1595     0.0250 C.ar    
   5 C5             1.1196     3.4233     0.0154 C.ar    
   6 N6             1.1177     2.1038     0.0027 N.ar    
   7 C7             0.0021    -0.0041     0.0020 C.ar    
   8 C8            -1.1700    -0.6951     0.0090 C.ar    
   9 C9            -2.3952    -0.0320     0.0237 C.ar    
  10 C10           -2.4531     1.3297     0.0204 C.ar    
  11 C11           -2.5672     4.2367     0.0368 C.ar    
  12 C12           -2.7778     5.2542     0.9679 C.ar    
  13 C13           -3.9714     5.9450     0.9728 C.ar    
  14 C14           -3.5642     3.9272    -0.8888 C.ar    
  15 C15            2.4154     4.1443     0.0065 C.2     
  16 N16            3.5716     3.4520    -0.0142 N.am    
  17 O17            2.4348     5.3591     0.0180 O.2     
  18 C18           -1.1423    -2.2019     0.0132 C.3     
  19 N19           -1.1523    -2.6943    -1.3665 N.pl3   
  20 C20           -4.9609     5.6299     0.0550 C.ar    
  21 C21           -4.7544     4.6238    -0.8757 C.ar    
  22 F22           -6.1287     6.3091     0.0641 F       
  23 C23           -0.0623    -2.9453    -2.1409 C.2     
  24 N24           -0.4348    -3.3723    -3.3122 N.2     
  25 C25           -1.7904    -3.4245    -3.3691 C.ar    
  26 C26           -2.2693    -2.9955    -2.1198 C.ar    
  27 C27           -2.6995    -3.7998    -4.3618 C.ar    
  28 C28           -4.0414    -3.7420    -4.1129 C.ar    
  29 C29           -4.5151    -3.3132    -2.8809 C.ar    
  30 C30           -3.6366    -2.9445    -1.8845 C.ar    
  31 C31            1.3680    -2.7558    -1.7058 C.3     
  32 C32            2.2012    -4.0476    -1.7487 C.3     
  33 C33            3.3562    -3.1913    -2.2943 C.3     
  34 C34            2.2847    -2.2207    -2.8185 C.3     
  35 H35           -0.0423     5.2392     0.0305 H       
  36 H36            0.9434    -0.5334    -0.0098 H       
  37 H37           -3.3110    -0.6044     0.0376 H       
  38 H38           -3.4090     1.8322     0.0280 H       
  39 H39           -2.0075     5.5002     1.6838 H       
  40 H40           -4.1355     6.7325     1.6934 H       
  41 H41           -3.4040     3.1436    -1.6146 H       
  42 H42            3.5561     2.4822    -0.0234 H       
  43 H43            4.4192     3.9236    -0.0200 H       
  44 H44           -0.2389    -2.5472     0.5158 H       
  45 H45           -2.0184    -2.5799     0.5402 H       
  46 H46           -5.5283     4.3821    -1.5891 H       
  47 H47           -2.3418    -4.1348    -5.3242 H       
  48 H48           -4.7409    -4.0326    -4.8828 H       
  49 H49           -5.5790    -3.2727    -2.6999 H       
  50 H50           -4.0104    -2.6114    -0.9276 H       
  51 H51            1.4558    -2.2106    -0.7660 H       
  52 H52            2.3995    -4.4722    -0.7646 H       
  53 H53            1.8290    -4.7837    -2.4613 H       
  54 H54            3.9887    -2.7644    -1.5160 H       
  55 H55            3.9267    -3.6799    -3.0842 H       
  56 H56            1.9353    -2.4574    -3.8235 H       
  57 H57            2.5504    -1.1705    -2.6980 H       
@<TRIPOS>BOND
   1    1    7 ar
   2    1    6 ar
   3    1    2 ar
   4    2    3 ar
   5    2   10 ar
   6    3   11 1
   7    3    4 ar
   8    4    5 ar
   9    4   35 1
  10    5   15 1
  11    5    6 ar
  12    7    8 ar
  13    7   36 1
  14    8    9 ar
  15    8   18 1
  16    9   10 ar
  17    9   37 1
  18   10   38 1
  19   11   12 ar
  20   11   14 ar
  21   12   13 ar
  22   12   39 1
  23   13   20 ar
  24   13   40 1
  25   14   21 ar
  26   14   41 1
  27   15   16 am
  28   15   17 2
  29   16   42 1
  30   16   43 1
  31   18   19 1
  32   18   44 1
  33   18   45 1
  34   19   23 1
  35   19   26 1
  36   20   21 ar
  37   20   22 1
  38   21   46 1
  39   23   24 2
  40   23   31 1
  41   24   25 1
  42   25   26 ar
  43   25   27 ar
  44   26   30 ar
  45   27   28 ar
  46   27   47 1
  47   28   29 ar
  48   28   48 1
  49   29   30 ar
  50   29   49 1
  51   30   50 1
  52   31   32 1
  53   31   34 1
  54   31   51 1
  55   32   33 1
  56   32   52 1
  57   32   53 1
  58   33   34 1
  59   33   54 1
  60   33   55 1
  61   34   56 1
  62   34   57 1

#	End of record

