#	Name: ASD03330573
#	Creating user name:	WinNT
#	Creation time:	15. 06. 2019 20:37

#	Modifying user name:	WinNT
#	Modification time:	15. 06. 2019 20:37

#	Program:	/corina/corina34_cracker 3.40 0067  02.08.2006

@<TRIPOS>MOLECULE
ASD03330573
  63   65    0    0    0
SMALL
NO_CHARGES


@<TRIPOS>ATOM
   1 C1            -0.5189     1.8026    -0.6129 C.2     
   2 N2            -0.6424     0.4707    -0.8559 N.pl3   
   3 C3             0.8134     2.0726    -0.5300 C.2     
   4 N4             1.4818     0.9171    -0.7386 N.2     
   5 C5             0.6163    -0.0485    -0.9408 C.2     
   6 C6             0.9497    -1.4630    -1.2153 C.ar    
   7 C7             1.4177     3.3893    -0.2609 C.2     
   8 O8             0.7068     4.3610    -0.0889 O.2     
   9 C9             3.3591     4.8259     0.0621 C.3     
  10 N10            2.7583     3.5168    -0.2054 N.am    
  11 C11            3.4213     5.0593     1.5729 C.3     
  12 C12            4.2266     3.9364     2.2298 C.3     
  13 C13            4.0969     6.4030     1.8539 C.3     
  14 C14            2.0027     5.0720     2.1458 C.3     
  15 C15            4.7527     4.8653    -0.5101 C.2     
  16 N16            5.3519     6.0497    -0.7439 N.am    
  17 O17            5.3351     3.8313    -0.7602 O.2     
  18 C18            6.6654     6.0909    -1.3914 C.3     
  19 C19           -1.9087    -0.2557    -0.9846 C.3     
  20 C20           -2.8418     0.5226    -1.9174 C.3     
  21 C21           -3.6404     1.5437    -1.1135 C.3     
  22 N22           -2.8499     2.0725    -0.0002 N.3     
  23 C23           -1.6560     2.7826    -0.4824 C.3     
  24 C24           -3.6664     2.9393     0.8600 C.3     
  25 C25            2.2072    -3.1088    -2.4376 C.ar    
  26 C26            1.5733    -4.1132    -1.7298 C.ar    
  27 C27            0.6261    -3.8007    -0.7704 C.ar    
  28 C28            0.3112    -2.4833    -0.5096 C.ar    
  29 C29           -0.0592    -4.9028    -0.0044 C.3     
  30 C30            1.9014    -1.7840    -2.1865 C.ar    
  31 F31            2.5206    -0.8028    -2.8786 F       
  32 H32            2.7539     5.6050    -0.4014 H       
  33 H33            3.3253     2.7418    -0.3426 H       
  34 H34            5.2372     3.9274     1.8216 H       
  35 H35            4.2709     4.1027     3.3061 H       
  36 H36            3.7453     2.9791     2.0295 H       
  37 H37            3.5076     7.2057     1.4105 H       
  38 H38            4.1672     6.5561     2.9308 H       
  39 H39            5.0970     6.4045     1.4206 H       
  40 H40            1.5214     4.1147     1.9456 H       
  41 H41            2.0470     5.2383     3.2221 H       
  42 H42            1.4290     5.8720     1.6778 H       
  43 H43            4.9135     6.8748    -0.4834 H       
  44 H44            7.3875     5.5460    -0.7833 H       
  45 H45            6.5993     5.6302    -2.3770 H       
  46 H46            6.9868     7.1272    -1.4956 H       
  47 H47           -1.7202    -1.2455    -1.4006 H       
  48 H48           -2.3735    -0.3543    -0.0036 H       
  49 H49           -2.2503     1.0390    -2.6735 H       
  50 H50           -3.5270    -0.1705    -2.4055 H       
  51 H51           -3.9313     2.3655    -1.7678 H       
  52 H52           -4.5377     1.0662    -0.7200 H       
  53 H53           -1.3845     3.5634     0.2281 H       
  54 H54           -1.8653     3.2294    -1.4543 H       
  55 H55           -4.5011     2.3671     1.2648 H       
  56 H56           -3.0548     3.3186     1.6787 H       
  57 H57           -4.0490     3.7755     0.2748 H       
  58 H58            2.9457    -3.3593    -3.1847 H       
  59 H59            1.8155    -5.1466    -1.9294 H       
  60 H60           -0.4281    -2.2420     0.2398 H       
  61 H61            0.5126    -5.1298     0.8954 H       
  62 H62           -1.0629    -4.5818     0.2743 H       
  63 H63           -0.1230    -5.7940    -0.6288 H       
@<TRIPOS>BOND
   1    1    2 1
   2    1    3 2
   3    1   23 1
   4    2   19 1
   5    2    5 1
   6    3    4 1
   7    3    7 1
   8    4    5 2
   9    5    6 1
  10    6   30 ar
  11    6   28 ar
  12    7    8 2
  13    7   10 am
  14    9   10 1
  15    9   11 1
  16    9   15 1
  17    9   32 1
  18   10   33 1
  19   11   12 1
  20   11   13 1
  21   11   14 1
  22   12   34 1
  23   12   35 1
  24   12   36 1
  25   13   37 1
  26   13   38 1
  27   13   39 1
  28   14   40 1
  29   14   41 1
  30   14   42 1
  31   15   16 am
  32   15   17 2
  33   16   18 1
  34   16   43 1
  35   18   44 1
  36   18   45 1
  37   18   46 1
  38   19   20 1
  39   19   47 1
  40   19   48 1
  41   20   21 1
  42   20   49 1
  43   20   50 1
  44   21   22 1
  45   21   51 1
  46   21   52 1
  47   22   23 1
  48   22   24 1
  49   23   53 1
  50   23   54 1
  51   24   55 1
  52   24   56 1
  53   24   57 1
  54   25   26 ar
  55   25   30 ar
  56   25   58 1
  57   26   27 ar
  58   26   59 1
  59   27   28 ar
  60   27   29 1
  61   28   60 1
  62   29   61 1
  63   29   62 1
  64   29   63 1
  65   30   31 1

#	End of record

