#	Name: ASD04910035
#	Creating user name:	WinNT
#	Creation time:	15. 06. 2019 20:55

#	Modifying user name:	WinNT
#	Modification time:	15. 06. 2019 20:55

#	Program:	/corina/corina34_cracker 3.40 0067  02.08.2006

@<TRIPOS>MOLECULE
ASD04910035
  62   65    0    0    0
SMALL
NO_CHARGES


@<TRIPOS>ATOM
   1 C1            -0.1488     1.3906     0.9658 C.2     
   2 C2            -0.1012    -0.1114     0.8529 C.3     
   3 C3             1.3476    -0.5624     0.6564 C.3     
   4 O4             0.8713     2.0343     0.8962 O.2     
   5 O5            -1.3251     2.0137     1.1381 O.3     
   6 C6             2.5744    -2.6478     0.3680 C.2     
   7 C7             2.6211    -4.1214     0.2573 C.ar    
   8 C8             3.8420    -4.7720     0.0723 C.ar    
   9 C9             3.8787    -6.1473    -0.0298 C.ar    
  10 C10            2.7087    -6.8815     0.0504 C.ar    
  11 C11            1.4952    -6.2427     0.2337 C.ar    
  12 C12            1.4452    -4.8684     0.3431 C.ar    
  13 O13            3.6007    -2.0002     0.2980 O.2     
  14 N14            1.3939    -2.0226     0.5466 N.am    
  15 C15            2.7563    -8.3834    -0.0629 C.3     
  16 N16            1.6209    -8.8490    -0.8632 N.pl3   
  17 C17            2.8455    -8.3974    -2.8994 C.ar    
  18 C18            1.7223    -8.9007    -2.2570 C.ar    
  19 C19            0.6975    -9.4584    -3.0189 C.ar    
  20 C20            0.8414    -9.4885    -4.3948 C.ar    
  21 C21            1.9941    -8.9656    -4.9670 C.ar    
  22 N22            2.9476    -8.4434    -4.2130 N.ar    
  23 N23            2.1487    -8.9915    -6.3578 N.pl3   
  24 N24            1.2304    -9.5084    -7.2810 N.2     
  25 C25            1.7255    -9.3533    -8.4822 C.2     
  26 C26            2.9745    -8.7333    -8.3675 C.2     
  27 C27            3.2131    -8.5149    -7.0536 C.2     
  28 C28            3.8905    -8.3682    -9.5071 C.3     
  29 F29            3.3008    -8.7449   -10.7185 F       
  30 F30            4.1097    -6.9865    -9.5049 F       
  31 F31            5.1115    -9.0342    -9.3558 F       
  32 C32            2.6836    -9.0029     1.3342 C.3     
  33 C33            2.6888   -10.5382     1.2310 C.3     
  34 C34            3.9405   -11.0265     1.9889 C.3     
  35 C35            4.2557    -9.8793     2.9807 C.3     
  36 C36            3.9323    -8.6119     2.1512 C.3     
  37 H37           -0.5000    -0.5571     1.7642 H       
  38 H38           -0.7000    -0.4309     0.0000 H       
  39 H39            1.7464    -0.1167    -0.2549 H       
  40 H40            1.9464    -0.2430     1.5093 H       
  41 H41           -1.3054     2.9782     1.2051 H       
  42 H42            4.7559    -4.2000     0.0088 H       
  43 H43            4.8227    -6.6520    -0.1729 H       
  44 H44            0.5855    -6.8216     0.2955 H       
  45 H45            0.4978    -4.3713     0.4906 H       
  46 H46            0.5749    -2.5393     0.6025 H       
  47 H47            3.6872    -8.6821    -0.5448 H       
  48 H48            0.7988    -9.1214    -0.4263 H       
  49 H49            3.6425    -7.9593    -2.3169 H       
  50 H50           -0.1878    -9.8580    -2.5468 H       
  51 H51            0.0671    -9.9136    -5.0162 H       
  52 H52            1.2508    -9.6528    -9.4049 H       
  53 H53            4.0921    -8.0482    -6.6340 H       
  54 H54            1.7816    -8.6661     1.8452 H       
  55 H55            1.7897   -10.9465     1.6927 H       
  56 H56            2.7431   -10.8419     0.1856 H       
  57 H57            3.7242   -11.9486     2.5284 H       
  58 H58            4.7713   -11.1732     1.2988 H       
  59 H59            3.6131    -9.9405     3.8590 H       
  60 H60            5.3070    -9.8951     3.2681 H       
  61 H61            4.7618    -8.3686     1.4873 H       
  62 H62            3.7100    -7.7718     2.8092 H       
@<TRIPOS>BOND
   1    1    2 1
   2    1    4 2
   3    1    5 1
   4    2    3 1
   5    2   37 1
   6    2   38 1
   7    3   14 1
   8    3   39 1
   9    3   40 1
  10    5   41 1
  11    6    7 1
  12    6   13 2
  13    6   14 am
  14    7    8 ar
  15    7   12 ar
  16    8    9 ar
  17    8   42 1
  18    9   10 ar
  19    9   43 1
  20   10   11 ar
  21   10   15 1
  22   11   12 ar
  23   11   44 1
  24   12   45 1
  25   14   46 1
  26   15   16 1
  27   15   32 1
  28   15   47 1
  29   16   18 1
  30   16   48 1
  31   17   18 ar
  32   17   22 ar
  33   17   49 1
  34   18   19 ar
  35   19   20 ar
  36   19   50 1
  37   20   21 ar
  38   20   51 1
  39   21   22 ar
  40   21   23 1
  41   23   24 1
  42   23   27 1
  43   24   25 2
  44   25   26 1
  45   25   52 1
  46   26   27 2
  47   26   28 1
  48   27   53 1
  49   28   29 1
  50   28   30 1
  51   28   31 1
  52   32   33 1
  53   32   36 1
  54   32   54 1
  55   33   34 1
  56   33   55 1
  57   33   56 1
  58   34   35 1
  59   34   57 1
  60   34   58 1
  61   35   36 1
  62   35   59 1
  63   35   60 1
  64   36   61 1
  65   36   62 1

#	End of record

