#	Name: ASD01190157
#	Creating user name:	WinNT
#	Creation time:	15. 06. 2019 19:07

#	Modifying user name:	WinNT
#	Modification time:	15. 06. 2019 19:07

#	Program:	/corina/corina34_cracker 3.40 0067  02.08.2006

@<TRIPOS>MOLECULE
ASD01190157
  40   43    0    0    0
SMALL
NO_CHARGES


@<TRIPOS>ATOM
   1 C1            -0.0187     1.5258     0.0104 C.3     
   2 C2             0.0952     2.7359     0.9397 C.3     
   3 N3             4.7678     1.1057    -2.9089 N.pl3   
   4 N4             5.6585     0.9499    -1.8417 N.2     
   5 C5             5.0108     0.9709    -0.7113 C.2     
   6 C6             3.5939     1.1513    -1.0115 C.ar    
   7 C7             2.4384     1.2485    -0.2283 C.ar    
   8 C8             1.2265     1.4204    -0.8320 C.ar    
   9 C9             1.1297     1.4987    -2.2159 C.ar    
  10 C10            2.2435     1.4060    -3.0016 C.ar    
  11 C11            3.4935     1.2309    -2.4141 C.ar    
  12 C12            5.1203     1.1354    -4.2644 C.ar    
  13 C13            6.3196     1.7140    -4.6585 C.ar    
  14 C14            6.6652     1.7422    -5.9952 C.ar    
  15 C15            5.8167     1.1941    -6.9425 C.ar    
  16 C16            4.6202     0.6166    -6.5516 C.ar    
  17 C17            4.2735     0.5812    -5.2153 C.ar    
  18 F18            6.1564     1.2231    -8.2498 F       
  19 F19            0.2410     3.8986     0.1755 F       
  20 F20           -1.0607     2.8337     1.7217 F       
  21 F21            1.2094     2.5818     1.7716 F       
  22 S22            0.8568    -0.2205     2.1728 S.3     
  23 C23           -0.0842    -1.6309     2.3923 C.2     
  24 N24           -1.0475    -1.6635     1.5247 N.2     
  25 C25           -1.1206    -0.6540     0.6755 C.2     
  26 C26           -0.1757     0.2733     0.8336 C.2     
  27 N27            0.1486    -2.5986     3.3571 N.pl3   
  28 O28           -1.1568     1.6831    -0.8393 O.3     
  29 H29            5.4450     0.8722     0.2727 H       
  30 H30            2.5052     1.1878     0.8479 H       
  31 H31            0.1621     1.6342    -2.6761 H       
  32 H32            2.1545     1.4681    -4.0762 H       
  33 H33            6.9815     2.1419    -3.9201 H       
  34 H34            7.5977     2.1924    -6.3021 H       
  35 H35            3.9597     0.1900    -7.2920 H       
  36 H36            3.3426     0.1264    -4.9104 H       
  37 H37           -1.8839    -0.5856    -0.0855 H       
  38 H38            0.8927    -2.5015     3.9717 H       
  39 H39           -0.4327    -3.3728     3.4176 H       
  40 H40           -1.2910     0.9510    -1.4566 H       
@<TRIPOS>BOND
   1    1    2 1
   2    1    8 1
   3    1   26 1
   4    1   28 1
   5    2   19 1
   6    2   20 1
   7    2   21 1
   8    3    4 1
   9    3   11 1
  10    3   12 1
  11    4    5 2
  12    5    6 1
  13    5   29 1
  14    6    7 ar
  15    6   11 ar
  16    7    8 ar
  17    7   30 1
  18    8    9 ar
  19    9   10 ar
  20    9   31 1
  21   10   11 ar
  22   10   32 1
  23   12   13 ar
  24   12   17 ar
  25   13   14 ar
  26   13   33 1
  27   14   15 ar
  28   14   34 1
  29   15   16 ar
  30   15   18 1
  31   16   17 ar
  32   16   35 1
  33   17   36 1
  34   22   23 1
  35   22   26 1
  36   23   24 2
  37   23   27 1
  38   24   25 1
  39   25   26 2
  40   25   37 1
  41   27   38 1
  42   27   39 1
  43   28   40 1

#	End of record

