#	Name: ASD01100048
#	Creating user name:	WinNT
#	Creation time:	15. 06. 2019 18:58

#	Modifying user name:	WinNT
#	Modification time:	15. 06. 2019 18:58

#	Program:	/corina/corina34_cracker 3.40 0067  02.08.2006

@<TRIPOS>MOLECULE
ASD01100048
  37   38    0    0    0
SMALL
NO_CHARGES


@<TRIPOS>ATOM
   1 C1             0.1628     1.2940    -0.9231 C.ar    
   2 C2             0.2408    -0.0855    -0.9938 C.ar    
   3 C3             1.4418    -0.7238    -0.7404 C.ar    
   4 C4             2.5629     0.0169    -0.4168 C.ar    
   5 C5             2.4844     1.3953    -0.3463 C.ar    
   6 C6             1.2846     2.0336    -0.5994 C.ar    
   7 C7             3.7070     2.2023     0.0071 C.3     
   8 C8             3.4380     3.0039     1.2822 C.3     
   9 C9             3.2228     2.0427     2.4530 C.3     
  10 C10            4.6361     3.9082     1.5784 C.3     
  11 Cl11          -1.1680    -1.0153    -1.3998 Cl      
  12 C12            4.0287     3.1473    -1.1219 C.2     
  13 N13            5.1812     3.8459    -1.1082 N.am    
  14 O14            3.2505     3.2792    -2.0427 O.2     
  15 C15            5.4417     4.7765    -2.1074 C.2     
  16 N16            4.6465     5.0486    -3.0942 N.2     
  17 C17            5.0532     5.9631    -3.9546 C.2     
  18 C18            6.2490     6.4888    -3.6818 C.2     
  19 S19            6.8544     5.7341    -2.2095 S.3     
  20 C20            6.9560     7.5465    -4.4895 C.3     
  21 F21            6.5969     8.8128    -4.0157 F       
  22 F22            8.3396     7.3784    -4.3685 F       
  23 F23            6.5880     7.4301    -5.8342 F       
  24 H24           -0.7734     1.7931    -1.1251 H       
  25 H25            1.5032    -1.8007    -0.7952 H       
  26 H26            3.5005    -0.4813    -0.2187 H       
  27 H27            1.2238     3.1105    -0.5441 H       
  28 H28            4.5504     1.5314     0.1708 H       
  29 H29            2.5462     3.6154     1.1455 H       
  30 H30            4.1146     1.4311     2.5897 H       
  31 H31            3.0311     2.6137     3.3614 H       
  32 H32            2.3693     1.3984     2.2420 H       
  33 H33            4.8523     4.5227     0.7045 H       
  34 H34            4.4043     4.5520     2.4269 H       
  35 H35            5.5051     3.2942     1.8149 H       
  36 H36            5.8289     3.6993    -0.4011 H       
  37 H37            4.4657     6.2618    -4.8102 H       
@<TRIPOS>BOND
   1    1    2 ar
   2    1    6 ar
   3    1   24 1
   4    2    3 ar
   5    2   11 1
   6    3    4 ar
   7    3   25 1
   8    4    5 ar
   9    4   26 1
  10    5    6 ar
  11    5    7 1
  12    6   27 1
  13    7    8 1
  14    7   12 1
  15    7   28 1
  16    8    9 1
  17    8   10 1
  18    8   29 1
  19    9   30 1
  20    9   31 1
  21    9   32 1
  22   10   33 1
  23   10   34 1
  24   10   35 1
  25   12   13 am
  26   12   14 2
  27   13   15 1
  28   13   36 1
  29   15   16 2
  30   15   19 1
  31   16   17 1
  32   17   18 2
  33   17   37 1
  34   18   19 1
  35   18   20 1
  36   20   21 1
  37   20   22 1
  38   20   23 1

#	End of record

