#	Name: ASD01151120
#	Creating user name:	WinNT
#	Creation time:	15. 06. 2019 19:05

#	Modifying user name:	WinNT
#	Modification time:	15. 06. 2019 19:05

#	Program:	/corina/corina34_cracker 3.40 0067  02.08.2006

@<TRIPOS>MOLECULE
ASD01151120
  66   69    0    0    0
SMALL
NO_CHARGES


@<TRIPOS>ATOM
   1 C1             0.0665     1.3141     0.4664 C.3     
   2 C2             0.0732    -0.1658     0.0779 C.3     
   3 C3             0.8271    -0.9685     1.1400 C.3     
   4 C4            -1.3450    -0.6665    -0.0174 C.2     
   5 C5            -2.2448    -0.4352     1.0232 C.2     
   6 C6            -1.7956     0.3191     2.2481 C.3     
   7 N7            -3.4828    -0.8711     0.9413 N.2     
   8 C8            -3.9079    -1.5443    -0.1374 C.2     
   9 C9            -5.1339    -2.1021    -0.4726 C.2     
  10 C10           -5.0025    -2.6843    -1.7258 C.2     
  11 N11           -3.7736    -2.5051    -2.1527 N.2     
  12 N12           -3.0577    -1.7941    -1.1834 N.pl3   
  13 C13           -1.7640    -1.3476    -1.1282 C.2     
  14 N14           -0.8965    -1.5845    -2.1727 N.pl3   
  15 C15           -1.1263    -0.9749    -3.4896 C.3     
  16 C16           -1.1294    -2.0798    -4.5507 C.3     
  17 C17            0.1688    -2.8837    -4.4482 C.3     
  18 C18            0.2570    -3.5395    -3.0682 C.3     
  19 C19           -0.9559    -4.4476    -2.8559 C.3     
  20 C20            0.2789    -2.4466    -1.9888 C.3     
  21 C21            1.5195    -4.3577    -2.9800 C.2     
  22 O22            1.7226    -5.3727    -3.8345 O.3     
  23 O23            2.3489    -4.1000    -2.1400 O.2     
  24 C24           -6.0932    -3.4056    -2.4749 C.3     
  25 H25           -5.6472    -4.1150    -3.1720 H       
  26 C26           -6.9829    -4.1566    -1.4823 C.3     
  27 C27           -8.0902    -4.8889    -2.2428 C.3     
  28 C28           -8.9338    -3.8744    -3.0174 C.3     
  29 H29           -9.3797    -3.1650    -2.3204 H       
  30 C30           -8.0440    -3.1234    -4.0101 C.3     
  31 C31           -6.9367    -2.3911    -3.2495 C.3     
  32 C32          -10.0411    -4.6067    -3.7780 C.3     
  33 F33          -10.8547    -5.2934    -2.8704 F       
  34 F34          -10.8124    -3.6791    -4.4863 F       
  35 F35           -9.4688    -5.5173    -4.6727 F       
  36 H36            1.0923     1.6762     0.5353 H       
  37 H37           -0.4707     1.8859    -0.2903 H       
  38 H38           -0.4268     1.4343     1.4308 H       
  39 H39            0.5665    -0.2860    -0.8866 H       
  40 H40            0.4318    -0.7269     2.1266 H       
  41 H41            0.6999    -2.0340     0.9485 H       
  42 H42            1.8869    -0.7164     1.1016 H       
  43 H43           -1.9592     1.3862     2.0979 H       
  44 H44           -2.3676    -0.0181     3.1125 H       
  45 H45           -0.7351     0.1347     2.4197 H       
  46 H46           -6.0284    -2.0863     0.1324 H       
  47 H47           -2.0886    -0.4629    -3.4924 H       
  48 H48           -0.3304    -0.2624    -3.7064 H       
  49 H49           -1.9805    -2.7405    -4.3855 H       
  50 H50           -1.2028    -1.6322    -5.5419 H       
  51 H51            0.1800    -3.6551    -5.2182 H       
  52 H52            1.0203    -2.2179    -4.5890 H       
  53 H53           -0.9705    -5.2201    -3.6247 H       
  54 H54           -0.8926    -4.9144    -1.8729 H       
  55 H55           -1.8687    -3.8552    -2.9187 H       
  56 H56            1.1871    -1.8517    -2.0856 H       
  57 H57            0.2442    -2.9060    -1.0009 H       
  58 H58            2.5472    -5.8686    -3.7390 H       
  59 H59           -6.3819    -4.8794    -0.9304 H       
  60 H60           -7.4288    -3.4472    -0.7852 H       
  61 H61           -7.6443    -5.5984    -2.9399 H       
  62 H62           -8.7241    -5.4240    -1.5356 H       
  63 H63           -7.5981    -3.8328    -4.7071 H       
  64 H64           -8.6450    -2.4006    -4.5619 H       
  65 H65           -7.3826    -1.6816    -2.5524 H       
  66 H66           -6.3028    -1.8561    -3.9567 H       
@<TRIPOS>BOND
   1    1    2 1
   2    1   36 1
   3    1   37 1
   4    1   38 1
   5    2    3 1
   6    2    4 1
   7    2   39 1
   8    3   40 1
   9    3   41 1
  10    3   42 1
  11    4   13 2
  12    4    5 1
  13    5    6 1
  14    5    7 2
  15    6   43 1
  16    6   44 1
  17    6   45 1
  18    7    8 1
  19    8   12 1
  20    8    9 2
  21    9   10 1
  22    9   46 1
  23   10   11 2
  24   10   24 1
  25   11   12 1
  26   12   13 1
  27   13   14 1
  28   14   20 1
  29   14   15 1
  30   15   16 1
  31   15   47 1
  32   15   48 1
  33   16   17 1
  34   16   49 1
  35   16   50 1
  36   17   18 1
  37   17   51 1
  38   17   52 1
  39   18   19 1
  40   18   20 1
  41   18   21 1
  42   19   53 1
  43   19   54 1
  44   19   55 1
  45   20   56 1
  46   20   57 1
  47   21   22 1
  48   21   23 2
  49   22   58 1
  50   24   25 1
  51   24   31 1
  52   24   26 1
  53   26   27 1
  54   26   59 1
  55   26   60 1
  56   27   28 1
  57   27   61 1
  58   27   62 1
  59   28   29 1
  60   28   30 1
  61   28   32 1
  62   30   31 1
  63   30   63 1
  64   30   64 1
  65   31   65 1
  66   31   66 1
  67   32   33 1
  68   32   34 1
  69   32   35 1

#	End of record

