#	Name: ASD01884703
#	Creating user name:	WinNT
#	Creation time:	15. 06. 2019 19:48

#	Modifying user name:	WinNT
#	Modification time:	15. 06. 2019 19:48

#	Program:	/corina/corina34_cracker 3.40 0067  02.08.2006

@<TRIPOS>MOLECULE
ASD01884703
  48   50    0    0    0
SMALL
NO_CHARGES


@<TRIPOS>ATOM
   1 C1            -0.0168     1.3878     0.0097 C.2     
   2 C2             0.0021    -0.0041     0.0020 C.2     
   3 C3            -1.2140    -0.6981     0.0099 C.2     
   4 C4            -2.3903    -0.0113     0.0247 C.2     
   5 N5            -2.4105     1.3444     0.0318 N.am    
   6 C6            -1.2682     2.0568     0.0312 C.2     
   7 O7            -1.3088     3.2753     0.0386 O.2     
   8 C8            -3.6968     2.0455     0.0473 C.3     
   9 C9             1.2064     2.1323     0.0020 C.1     
  10 N10            2.1768     2.7229    -0.0041 N.1     
  11 C11           -4.1311     2.2824     1.4951 C.3     
  12 C12           -5.4744     3.0146     1.5113 C.3     
  13 C13           -6.5535     2.1139     0.9072 C.3     
  14 C14           -5.8486     3.3619     2.9536 C.3     
  15 N15           -1.2210    -2.1031     0.0019 N.pl3   
  16 N16           -2.3576    -2.9219     0.0078 N.2     
  17 C17           -1.9629    -4.1701    -0.0035 C.2     
  18 C18           -0.5643    -4.1867    -0.0169 C.2     
  19 C19           -0.1323    -2.9038    -0.0187 C.2     
  20 C20            0.3076    -5.4158    -0.0325 C.3     
  21 C21            0.5852    -5.8166    -1.4584 C.ar    
  22 C22            1.6889    -5.3078    -2.1170 C.ar    
  23 C23            1.9436    -5.6754    -3.4250 C.ar    
  24 C24            1.0947    -6.5523    -4.0743 C.ar    
  25 C25           -0.0085    -7.0618    -3.4154 C.ar    
  26 C26           -0.2607    -6.6976    -2.1059 C.ar    
  27 H27            0.9396    -0.5400    -0.0101 H       
  28 H28           -3.3229    -0.5560     0.0307 H       
  29 H29           -3.5946     3.0034    -0.4627 H       
  30 H30           -4.4465     1.4406    -0.4626 H       
  31 H31           -4.2333     1.3245     2.0051 H       
  32 H32           -3.3813     2.8873     2.0050 H       
  33 H33           -5.3959     3.9306     0.9257 H       
  34 H34           -6.2870     1.8666    -0.1204 H       
  35 H35           -6.6320     1.1979     1.4927 H       
  36 H36           -7.5105     2.6356     0.9187 H       
  37 H37           -5.0797     4.0035     3.3840 H       
  38 H38           -6.8055     3.8835     2.9652 H       
  39 H39           -5.9270     2.4459     3.5392 H       
  40 H40           -2.6062    -5.0375    -0.0026 H       
  41 H41            0.8975    -2.5785    -0.0284 H       
  42 H42            1.2483    -5.2003     0.4741 H       
  43 H43           -0.2034    -6.2303     0.4810 H       
  44 H44            2.3521    -4.6227    -1.6098 H       
  45 H45            2.8055    -5.2773    -3.9398 H       
  46 H46            1.2933    -6.8390    -5.0964 H       
  47 H47           -0.6718    -7.7467    -3.9227 H       
  48 H48           -1.1226    -7.0957    -1.5911 H       
@<TRIPOS>BOND
   1    1    2 2
   2    1    9 1
   3    1    6 1
   4    2    3 1
   5    2   27 1
   6    3    4 2
   7    3   15 1
   8    4    5 1
   9    4   28 1
  10    5    8 1
  11    5    6 am
  12    6    7 2
  13    8   11 1
  14    8   29 1
  15    8   30 1
  16    9   10 3
  17   11   12 1
  18   11   31 1
  19   11   32 1
  20   12   13 1
  21   12   14 1
  22   12   33 1
  23   13   34 1
  24   13   35 1
  25   13   36 1
  26   14   37 1
  27   14   38 1
  28   14   39 1
  29   15   16 1
  30   15   19 1
  31   16   17 2
  32   17   18 1
  33   17   40 1
  34   18   19 2
  35   18   20 1
  36   19   41 1
  37   20   21 1
  38   20   42 1
  39   20   43 1
  40   21   22 ar
  41   21   26 ar
  42   22   23 ar
  43   22   44 1
  44   23   24 ar
  45   23   45 1
  46   24   25 ar
  47   24   46 1
  48   25   26 ar
  49   25   47 1
  50   26   48 1

#	End of record

