#	Name: ASD01520003
#	Creating user name:	WinNT
#	Creation time:	15. 06. 2019 19:21

#	Modifying user name:	WinNT
#	Modification time:	15. 06. 2019 19:21

#	Program:	/corina/corina34_cracker 3.40 0067  02.08.2006

@<TRIPOS>MOLECULE
ASD01520003
  56   55    0    0    0
SMALL
NO_CHARGES


@<TRIPOS>ATOM
   1 C1            -0.6399     2.4296     0.4472 C.2     
   2 C2            -0.3782     0.9685     0.1868 C.3     
   3 C3             1.1225     0.6916     0.2968 C.3     
   4 C4             1.3881    -0.7918     0.0324 C.3     
   5 C5             2.8662    -1.0645     0.1408 C.2     
   6 C6             3.3180    -1.8637     1.0754 C.2     
   7 C7             2.3913    -2.3599     2.1552 C.3     
   8 C8             2.2585    -3.8576     2.0540 C.2     
   9 C9             2.5256    -4.6210     3.1083 C.2     
  10 C10            2.8097    -4.0014     4.4120 C.2     
  11 C11            2.9889    -4.7642     5.4851 C.2     
  12 C12            3.2800    -4.1295     6.8206 C.3     
  13 C13            2.1859    -4.5157     7.8180 C.3     
  14 C14            2.4090    -3.7841     9.1165 C.2     
  15 C15            1.4415    -3.0757     9.6438 C.2     
  16 C16            0.0608    -3.1198     9.0415 C.3     
  17 C17           -0.9606    -3.4522    10.1312 C.3     
  18 C18           -2.3624    -3.4969     9.5197 C.3     
  19 C19           -3.3837    -3.8293    10.6093 C.3     
  20 C20           -4.7855    -3.8741     9.9978 C.3     
  21 O21            0.2796     3.1731     0.6955 O.2     
  22 O22           -1.8938     2.9061     0.3981 O.3     
  23 O23            4.5454    -4.5882     7.3004 O.3     
  24 O24            5.6808    -3.7553     6.8819 O.3     
  25 H25           -0.9135     0.3669     0.9214 H       
  26 H26           -0.7228     0.7106    -0.8147 H       
  27 H27            1.6578     1.2932    -0.4378 H       
  28 H28            1.4670     0.9495     1.2983 H       
  29 H29            0.8528    -1.3934     0.7670 H       
  30 H30            1.0435    -1.0497    -0.9690 H       
  31 H31            3.5531    -0.6012    -0.5520 H       
  32 H32            4.3546    -2.1668     1.0720 H       
  33 H33            2.7974    -2.0963     3.1318 H       
  34 H34            1.4111    -1.8991     2.0328 H       
  35 H35            1.9463    -4.3105     1.1246 H       
  36 H36            2.5341    -5.6963     3.0081 H       
  37 H37            2.8725    -2.9266     4.4969 H       
  38 H38            2.9261    -5.8390     5.4002 H       
  39 H39            3.3046    -3.0454     6.7100 H       
  40 H40            1.2115    -4.2451     7.4113 H       
  41 H41            2.2195    -5.5905     7.9961 H       
  42 H42            3.3666    -3.8440     9.6124 H       
  43 H43            1.6333    -2.4600    10.5102 H       
  44 H44           -0.1764    -2.1496     8.6050 H       
  45 H45            0.0269    -3.8851     8.2662 H       
  46 H46           -0.7235    -4.4224    10.5677 H       
  47 H47           -0.9267    -2.6868    10.9065 H       
  48 H48           -2.5995    -2.5267     9.0832 H       
  49 H49           -2.3963    -4.2623     8.7443 H       
  50 H50           -3.1466    -4.7995    11.0458 H       
  51 H51           -3.3498    -3.0640    11.3847 H       
  52 H52           -5.0226    -2.9039     9.5613 H       
  53 H53           -4.8194    -4.6394     9.2224 H       
  54 H54           -5.5131    -4.1109    10.7741 H       
  55 H55           -2.0119     3.8499     0.5722 H       
  56 H56            6.5371    -4.0657     7.2065 H       
@<TRIPOS>BOND
   1    1    2 1
   2    1   21 2
   3    1   22 1
   4    2    3 1
   5    2   25 1
   6    2   26 1
   7    3    4 1
   8    3   27 1
   9    3   28 1
  10    4    5 1
  11    4   29 1
  12    4   30 1
  13    5    6 2
  14    5   31 1
  15    6    7 1
  16    6   32 1
  17    7    8 1
  18    7   33 1
  19    7   34 1
  20    8    9 2
  21    8   35 1
  22    9   10 1
  23    9   36 1
  24   10   11 2
  25   10   37 1
  26   11   12 1
  27   11   38 1
  28   12   13 1
  29   12   23 1
  30   12   39 1
  31   13   14 1
  32   13   40 1
  33   13   41 1
  34   14   15 2
  35   14   42 1
  36   15   16 1
  37   15   43 1
  38   16   17 1
  39   16   44 1
  40   16   45 1
  41   17   18 1
  42   17   46 1
  43   17   47 1
  44   18   19 1
  45   18   48 1
  46   18   49 1
  47   19   20 1
  48   19   50 1
  49   19   51 1
  50   20   52 1
  51   20   53 1
  52   20   54 1
  53   22   55 1
  54   23   24 1
  55   24   56 1

#	End of record

