#	Name: ASD05740203
#	Creating user name:	WinNT
#	Creation time:	15. 06. 2019 21:03

#	Modifying user name:	WinNT
#	Modification time:	15. 06. 2019 21:03

#	Program:	/corina/corina34_cracker 3.40 0067  02.08.2006

@<TRIPOS>MOLECULE
ASD05740203
  61   65    0    0    0
SMALL
NO_CHARGES


@<TRIPOS>ATOM
   1 C1             0.9595    -2.0155    -2.3541 C.3     
   2 N2             0.2665    -1.2036    -1.3441 N.3     
   3 C3            -1.0657    -1.6083    -1.2033 C.ar    
   4 C4            -1.8948    -0.9638    -0.2944 C.ar    
   5 C5            -3.2092    -1.3631    -0.1555 C.ar    
   6 C6            -3.7020    -2.4094    -0.9242 C.ar    
   7 C7            -2.8729    -3.0541    -1.8327 C.ar    
   8 C8            -1.5603    -2.6505    -1.9764 C.ar    
   9 N9            -5.0354    -2.8147    -0.7829 N.pl3   
  10 C10           -6.0181    -1.8789    -0.5257 C.ar    
  11 N11           -5.6916    -0.5911    -0.5320 N.ar    
  12 N12           -7.2518    -2.2993    -0.2874 N.ar    
  13 C13           -8.2207    -1.4284    -0.0366 C.ar    
  14 C14           -7.9094    -0.0507    -0.0293 C.ar    
  15 C15           -6.5929     0.3444    -0.2923 C.ar    
  16 N16           -9.5067    -1.8325     0.2131 N.am    
  17 C17          -10.4768    -0.9358     0.4651 C.2     
  18 C18          -10.2209     0.4502     0.4840 C.2     
  19 C19           -8.9673     0.9169     0.2454 C.2     
  20 C20           -9.8289    -3.2616     0.2049 C.3     
  21 O21          -11.6085    -1.3325     0.6827 O.2     
  22 C22            0.9718    -1.2561    -0.0559 C.3     
  23 C23            2.3983    -0.7320    -0.2367 C.3     
  24 N24            3.0914    -1.5439    -1.2467 N.3     
  25 C25            2.3861    -1.4914    -2.5349 C.3     
  26 C26           -9.8192    -3.7869     1.6174 C.ar    
  27 C27            4.4898    -1.1191    -1.3945 C.3     
  28 C28          -10.9415    -4.4085     2.1316 C.ar    
  29 C29           -8.6842    -3.6520     2.3985 C.ar    
  30 C30          -10.9330    -4.8900     3.4273 C.ar    
  31 C31           -9.8020    -4.7507     4.2103 C.ar    
  32 C32           -8.6767    -4.1351     3.6963 C.ar    
  33 F33           -7.5846    -3.0499     1.8950 F       
  34 F34          -13.1217    -5.3315     1.9631 F       
  35 F35          -12.7115    -3.2984     1.0053 F       
  36 C36          -12.1750    -4.5611     1.2795 C.3     
  37 F37          -11.8370    -5.1949     0.0789 F       
  38 H38            0.9926    -3.0543    -2.0255 H       
  39 H39            0.4254    -1.9505    -3.3020 H       
  40 H40           -1.5114    -0.1506     0.3039 H       
  41 H41           -3.8540    -0.8620     0.5513 H       
  42 H42           -3.2560    -3.8683    -2.4300 H       
  43 H43           -0.9155    -3.1520    -2.6830 H       
  44 H44           -5.2685    -3.7527    -0.8656 H       
  45 H45           -6.3193     1.3891    -0.2945 H       
  46 H46          -11.0235     1.1432     0.6892 H       
  47 H47           -8.7591     1.9765     0.2576 H       
  48 H48          -10.8172    -3.4088    -0.2306 H       
  49 H49           -9.0874    -3.7979    -0.3872 H       
  50 H50            0.4465    -0.6374     0.6717 H       
  51 H51            1.0050    -2.2862     0.2988 H       
  52 H52            2.3652     0.3068    -0.5653 H       
  53 H53            2.9325    -0.7970     0.7112 H       
  54 H54            2.9113    -2.1102    -3.2625 H       
  55 H55            2.3528    -0.4613    -2.8896 H       
  56 H56            5.0064    -1.2315    -0.4413 H       
  57 H57            4.9793    -1.7363    -2.1479 H       
  58 H58            4.5215    -0.0745    -1.7040 H       
  59 H59          -11.8107    -5.3749     3.8284 H       
  60 H60           -9.7965    -5.1273     5.2225 H       
  61 H61           -7.7934    -4.0264     4.3081 H       
@<TRIPOS>BOND
   1    1    2 1
   2    1   25 1
   3    1   38 1
   4    1   39 1
   5    2    3 1
   6    2   22 1
   7    3    4 ar
   8    3    8 ar
   9    4    5 ar
  10    4   40 1
  11    5    6 ar
  12    5   41 1
  13    6    7 ar
  14    6    9 1
  15    7    8 ar
  16    7   42 1
  17    8   43 1
  18    9   10 1
  19    9   44 1
  20   10   11 ar
  21   10   12 ar
  22   11   15 ar
  23   12   13 ar
  24   13   14 ar
  25   13   16 1
  26   14   15 ar
  27   14   19 1
  28   15   45 1
  29   16   17 am
  30   16   20 1
  31   17   18 1
  32   17   21 2
  33   18   19 2
  34   18   46 1
  35   19   47 1
  36   20   26 1
  37   20   48 1
  38   20   49 1
  39   22   23 1
  40   22   50 1
  41   22   51 1
  42   23   24 1
  43   23   52 1
  44   23   53 1
  45   24   25 1
  46   24   27 1
  47   25   54 1
  48   25   55 1
  49   26   29 ar
  50   26   28 ar
  51   27   56 1
  52   27   57 1
  53   27   58 1
  54   28   30 ar
  55   28   36 1
  56   29   33 1
  57   29   32 ar
  58   30   31 ar
  59   30   59 1
  60   31   32 ar
  61   31   60 1
  62   32   61 1
  63   34   36 1
  64   35   36 1
  65   36   37 1

#	End of record

