#	Name: ASD01208751
#	Creating user name:	WinNT
#	Creation time:	15. 06. 2019 19:10

#	Modifying user name:	WinNT
#	Modification time:	15. 06. 2019 19:10

#	Program:	/corina/corina34_cracker 3.40 0067  02.08.2006

@<TRIPOS>MOLECULE
ASD01208751
  56   59    0    0    0
SMALL
NO_CHARGES


@<TRIPOS>ATOM
   1 C1            -0.6241     1.5495    -0.5838 C.2     
   2 C2            -0.3226     0.1088    -0.4476 C.ar    
   3 C3            -1.3539    -0.8035    -0.2211 C.ar    
   4 C4            -1.0669    -2.1526    -0.0940 C.ar    
   5 C5             0.2442    -2.5972    -0.1911 C.ar    
   6 C6             1.2723    -1.6935    -0.4156 C.ar    
   7 C7             0.9933    -0.3433    -0.5506 C.ar    
   8 O8             0.2757     2.3428    -0.7811 O.2     
   9 N9            -1.8972     1.9829    -0.4950 N.am    
  10 S10           -3.7437     4.0229    -0.5320 S.3     
  11 C11           -2.1805     3.3366    -0.6230 C.2     
  12 N12           -1.2979     4.2638    -0.8285 N.2     
  13 C13           -1.7439     5.5024    -0.9248 C.2     
  14 C14           -3.0661     5.6277    -0.7945 C.2     
  15 C15           -3.8437     6.9169    -0.8603 C.3     
  16 O16            2.5545    -2.1342    -0.5094 O.3     
  17 C17            4.8922    -1.6975    -0.0793 C.3     
  18 C18            3.5752    -1.1406    -0.6236 C.3     
  19 C19            3.7524    -0.7581    -2.0944 C.3     
  20 O20            5.3268    -2.7823    -0.9018 O.3     
  21 C21            6.5551    -3.3771    -0.4781 C.3     
  22 O22           -2.0704    -3.0420     0.1265 O.3     
  23 C23           -2.8423    -3.4078    -0.9304 C.ar    
  24 C24           -2.5276    -2.9638    -2.2039 C.ar    
  25 C25           -3.3231    -3.3420    -3.2862 C.ar    
  26 C26           -4.4315    -4.1660    -3.0774 C.ar    
  27 C27           -4.7356    -4.6024    -1.8045 C.ar    
  28 C28           -3.9430    -4.2313    -0.7337 C.ar    
  29 O29           -3.6728    -3.1596    -5.7743 O.3     
  30 C30           -2.9945    -2.8724    -4.6475 C.2     
  31 N31           -1.9844    -2.0956    -4.9812 N.2     
  32 N32           -2.0057    -1.8903    -6.2512 N.2     
  33 C33           -3.0290    -2.5271    -6.7784 C.2     
  34 C34           -3.3930    -2.5463    -8.1632 C.1     
  35 N35           -3.6817    -2.5615    -9.2618 N.1     
  36 H36           -2.3744    -0.4582    -0.1448 H       
  37 H37            0.4646    -3.6497    -0.0911 H       
  38 H38            1.7939     0.3589    -0.7306 H       
  39 H39           -2.6156     1.3495    -0.3416 H       
  40 H40           -1.0916     6.3460    -1.0956 H       
  41 H41           -4.9043     6.7091    -0.7191 H       
  42 H42           -3.4978     7.5903    -0.0760 H       
  43 H43           -3.6912     7.3839    -1.8334 H       
  44 H44            5.6483    -0.9124    -0.0840 H       
  45 H45            4.7429    -2.0521     0.9406 H       
  46 H46            3.2894    -0.2585    -0.0506 H       
  47 H47            4.0382    -1.6402    -2.6673 H       
  48 H48            2.8141    -0.3613    -2.4821 H       
  49 H49            4.5309    -0.0002    -2.1814 H       
  50 H50            6.8163    -4.1918    -1.1536 H       
  51 H51            7.3457    -2.6268    -0.4911 H       
  52 H52            6.4403    -3.7665     0.5335 H       
  53 H53           -1.6695    -2.3266    -2.3588 H       
  54 H54           -5.0503    -4.4611    -3.9119 H       
  55 H55           -5.5928    -5.2394    -1.6443 H       
  56 H56           -4.1833    -4.5799     0.2598 H       
@<TRIPOS>BOND
   1    1    2 1
   2    1    8 2
   3    1    9 am
   4    2    3 ar
   5    2    7 ar
   6    3    4 ar
   7    3   36 1
   8    4    5 ar
   9    4   22 1
  10    5    6 ar
  11    5   37 1
  12    6    7 ar
  13    6   16 1
  14    7   38 1
  15    9   11 1
  16    9   39 1
  17   10   11 1
  18   10   14 1
  19   11   12 2
  20   12   13 1
  21   13   14 2
  22   13   40 1
  23   14   15 1
  24   15   41 1
  25   15   42 1
  26   15   43 1
  27   16   18 1
  28   17   18 1
  29   17   20 1
  30   17   44 1
  31   17   45 1
  32   18   19 1
  33   18   46 1
  34   19   47 1
  35   19   48 1
  36   19   49 1
  37   20   21 1
  38   21   50 1
  39   21   51 1
  40   21   52 1
  41   22   23 1
  42   23   24 ar
  43   23   28 ar
  44   24   25 ar
  45   24   53 1
  46   25   26 ar
  47   25   30 1
  48   26   27 ar
  49   26   54 1
  50   27   28 ar
  51   27   55 1
  52   28   56 1
  53   29   30 1
  54   29   33 1
  55   30   31 2
  56   31   32 1
  57   32   33 2
  58   33   34 1
  59   34   35 3

#	End of record

