#	Name: ASD01148373
#	Creating user name:	WinNT
#	Creation time:	15. 06. 2019 19:02

#	Modifying user name:	WinNT
#	Modification time:	15. 06. 2019 19:02

#	Program:	/corina/corina34_cracker 3.40 0067  02.08.2006

@<TRIPOS>MOLECULE
ASD01148373
  58   61    0    0    0
SMALL
NO_CHARGES


@<TRIPOS>ATOM
   1 C1            -0.4091     1.8305    -0.0441 C.ar    
   2 C2            -0.4702     0.4499     0.0156 C.ar    
   3 C3             0.6959    -0.2909     0.0945 C.ar    
   4 C4             1.9207     0.3489     0.1136 C.ar    
   5 C5             1.9810     1.7289     0.0539 C.ar    
   6 C6             0.8166     2.4694    -0.0250 C.ar    
   7 C7             3.3169     2.4261     0.0752 C.3     
   8 O8             4.3318     1.6162    -0.5522 O.3     
   9 C9             3.3037     3.6765    -0.8361 C.3     
  10 C10            3.8458     3.1358    -2.1456 C.2     
  11 N11            4.3972     1.9919    -1.9137 N.2     
  12 C12            3.7574     3.8028    -3.4595 C.ar    
  13 C13            4.3016     3.1908    -4.5918 C.ar    
  14 C14            3.1247     5.0432    -3.5720 C.ar    
  15 C15            3.0424     5.6652    -4.7975 C.ar    
  16 C16            3.5914     5.0561    -5.9282 C.ar    
  17 C17            4.2191     3.8129    -5.8168 C.ar    
  18 C18            3.5026     5.7237    -7.2438 C.2     
  19 O19            4.0750     5.2498    -8.2057 O.2     
  20 N20            2.7868     6.8579    -7.3769 N.am    
  21 C21            4.8114     3.1559    -7.0368 C.3     
  22 C22            3.7166     2.7940     1.5055 C.3     
  23 F23            3.7874     1.6333     2.2832 F       
  24 F24            4.9657     3.4240     1.4932 F       
  25 F25            2.7623     3.6613     2.0479 F       
  26 Cl26          -2.0091    -0.3531    -0.0079 Cl      
  27 N27            2.7026     7.4908    -8.6240 N.pl3   
  28 C28            1.8516     6.9277    -9.6752 C.3     
  29 C29            3.4299     8.6586    -8.8650 C.ar    
  30 C30            3.3475     9.2873   -10.1010 C.ar    
  31 C31            4.0676    10.4421   -10.3358 C.ar    
  32 C32            4.8700    10.9726    -9.3423 C.ar    
  33 C33            4.9547    10.3490    -8.1109 C.ar    
  34 C34            4.2328     9.1970    -7.8675 C.ar    
  35 C35            0.6303    -1.7950     0.1601 C.3     
  36 F36            1.9268    -2.3156     0.2341 F       
  37 F37           -0.0927    -2.1813     1.2938 F       
  38 F38           -0.0040    -2.2846    -0.9867 F       
  39 H39           -1.3187     2.4090    -0.1102 H       
  40 H40            2.8309    -0.2291     0.1755 H       
  41 H41            0.8644     3.5473    -0.0719 H       
  42 H42            2.2884     4.0520    -0.9632 H       
  43 H43            3.9574     4.4525    -0.4378 H       
  44 H44            4.7871     2.2300    -4.5056 H       
  45 H45            2.6999     5.5140    -2.6978 H       
  46 H46            2.5530     6.6240    -4.8846 H       
  47 H47            2.3300     7.2361    -6.6093 H       
  48 H48            5.8083     3.5578    -7.2180 H       
  49 H49            4.8774     2.0801    -6.8743 H       
  50 H50            4.1770     3.3546    -7.9006 H       
  51 H51            0.8499     7.3504    -9.5971 H       
  52 H52            2.2725     7.1686   -10.6513 H       
  53 H53            1.7992     5.8451    -9.5592 H       
  54 H54            2.7213     8.8734   -10.8774 H       
  55 H55            4.0043    10.9313   -11.2966 H       
  56 H56            5.4321    11.8758    -9.5286 H       
  57 H57            5.5825    10.7657    -7.3373 H       
  58 H58            4.2994     8.7104    -6.9056 H       
@<TRIPOS>BOND
   1    1    2 ar
   2    1    6 ar
   3    1   39 1
   4    2    3 ar
   5    2   26 1
   6    3    4 ar
   7    3   35 1
   8    4    5 ar
   9    4   40 1
  10    5    6 ar
  11    5    7 1
  12    6   41 1
  13    7    8 1
  14    7    9 1
  15    7   22 1
  16    8   11 1
  17    9   10 1
  18    9   42 1
  19    9   43 1
  20   10   11 2
  21   10   12 1
  22   12   13 ar
  23   12   14 ar
  24   13   17 ar
  25   13   44 1
  26   14   15 ar
  27   14   45 1
  28   15   16 ar
  29   15   46 1
  30   16   17 ar
  31   16   18 1
  32   17   21 1
  33   18   19 2
  34   18   20 am
  35   20   27 1
  36   20   47 1
  37   21   48 1
  38   21   49 1
  39   21   50 1
  40   22   23 1
  41   22   24 1
  42   22   25 1
  43   27   28 1
  44   27   29 1
  45   28   51 1
  46   28   52 1
  47   28   53 1
  48   29   30 ar
  49   29   34 ar
  50   30   31 ar
  51   30   54 1
  52   31   32 ar
  53   31   55 1
  54   32   33 ar
  55   32   56 1
  56   33   34 ar
  57   33   57 1
  58   34   58 1
  59   35   36 1
  60   35   37 1
  61   35   38 1

#	End of record

