#	Name: ASD07931971
#	Creating user name:	WinNT
#	Creation time:	15. 06. 2019 21:14

#	Modifying user name:	WinNT
#	Modification time:	15. 06. 2019 21:14

#	Program:	/corina/corina34_cracker 3.40 0067  02.08.2006

@<TRIPOS>MOLECULE
ASD07931971
  30   32    0    0    0
SMALL
NO_CHARGES


@<TRIPOS>ATOM
   1 O1             0.1452     1.5596     0.0109 O.3     
   2 N2             0.1216     0.0849     0.0872 N.3     
   3 C3             1.0789    -0.3806    -0.9419 C.3     
   4 C4             2.0642     0.8071    -1.1352 C.3     
   5 C5             1.5400     1.8931    -0.1706 C.3     
   6 O6             1.2536     0.1141    -3.2523 O.3     
   7 C7             0.3467    -0.4781    -2.2974 C.3     
   8 C8             1.8059     1.2694    -2.5856 C.3     
   9 C9             3.1175     1.6910    -3.2510 C.3     
  10 F10            4.0013     0.6066    -3.2684 F       
  11 F11            2.8628     2.1059    -4.5626 F       
  12 F12            3.6880     2.7459    -2.5307 F       
  13 C13            1.7628    -1.6674    -0.5578 C.ar    
  14 C14            2.7797    -2.1744    -1.3494 C.ar    
  15 C15            3.4070    -3.3567    -0.9953 C.ar    
  16 C16            3.0177    -4.0295     0.1476 C.ar    
  17 C17            2.0023    -3.5227     0.9366 C.ar    
  18 C18            1.3793    -2.3388     0.5873 C.ar    
  19 F19            3.1590    -1.5161    -2.4665 F       
  20 H20            0.3938    -0.2341     1.0050 H       
  21 H21            3.1026     0.5361    -0.9444 H       
  22 H22            1.6411     2.8819    -0.6178 H       
  23 H23            2.0704     1.8471     0.7806 H       
  24 H24            0.1565    -1.5209    -2.5514 H       
  25 H25           -0.5880     0.0817    -2.2645 H       
  26 H26            1.0914     2.0925    -2.5994 H       
  27 H27            4.1999    -3.7532    -1.6121 H       
  28 H28            3.5070    -4.9519     0.4240 H       
  29 H29            1.6984    -4.0495     1.8291 H       
  30 H30            0.5895    -1.9411     1.2073 H       
@<TRIPOS>BOND
   1    1    2 1
   2    1    5 1
   3    2    3 1
   4    2   20 1
   5    3    7 1
   6    3   13 1
   7    3    4 1
   8    4    5 1
   9    4    8 1
  10    4   21 1
  11    5   22 1
  12    5   23 1
  13    6    7 1
  14    6    8 1
  15    7   24 1
  16    7   25 1
  17    8    9 1
  18    8   26 1
  19    9   10 1
  20    9   11 1
  21    9   12 1
  22   13   14 ar
  23   13   18 ar
  24   14   15 ar
  25   14   19 1
  26   15   16 ar
  27   15   27 1
  28   16   17 ar
  29   16   28 1
  30   17   18 ar
  31   17   29 1
  32   18   30 1

#	End of record

