#	Name: ASD03092406
#	Creating user name:	WinNT
#	Creation time:	15. 06. 2019 20:32

#	Modifying user name:	WinNT
#	Modification time:	15. 06. 2019 20:32

#	Program:	/corina/corina34_cracker 3.40 0067  02.08.2006

@<TRIPOS>MOLECULE
ASD03092406
  47   50    0    0    0
SMALL
NO_CHARGES


@<TRIPOS>ATOM
   1 C1            -0.1061     2.1224     0.7704 C.3     
   2 C2            -0.1157     0.6066     0.9783 C.3     
   3 C3             1.2139     1.3534     0.8547 C.3     
   4 C4            -0.5725     4.1560    -0.5697 C.2     
   5 C5            -0.5300     2.6500    -0.6018 C.3     
   6 O6            -0.2915     4.7490     0.4502 O.2     
   7 N7            -0.9229     4.8440    -1.6745 N.am    
   8 C8            -0.9642     6.3081    -1.6433 C.3     
   9 S9            -1.4023     7.7505    -5.3481 S.3     
  10 C10           -2.8732     7.4001    -4.5507 C.2     
  11 N11           -2.6408     6.9384    -3.3588 N.2     
  12 C12           -1.3817     6.8277    -2.9949 C.2     
  13 C13           -0.4954     7.2189    -3.9343 C.2     
  14 C14            3.1109     8.2641    -4.0129 C.ar    
  15 C15            1.7414     8.3219    -4.1544 C.ar    
  16 C16            0.9744     7.2036    -3.8010 C.ar    
  17 C17            1.6421     6.0706    -3.3172 C.ar    
  18 C18            3.0156     6.1004    -3.2087 C.ar    
  19 N19            3.6998     7.1758    -3.5527 N.ar    
  20 N20           -4.1309     7.5825    -5.0963 N.3     
  21 C21           -4.0400     8.1203    -6.4615 C.3     
  22 C22           -5.4483     8.2502    -7.0479 C.3     
  23 O23           -6.2413     9.0771    -6.1919 O.3     
  24 C24           -6.3515     8.5826    -4.8545 C.3     
  25 C25           -4.9524     8.4561    -4.2459 C.3     
  26 H26           -0.3789     2.7486     1.6198 H       
  27 H27           -0.3948     0.2356     1.9645 H       
  28 H28           -0.4240    -0.0147     0.1375 H       
  29 H29            1.7804     1.2234    -0.0674 H       
  30 H30            1.8095     1.4737     1.7596 H       
  31 H31            0.1874     2.3227    -1.3544 H       
  32 H32           -1.5186     2.2638    -0.8500 H       
  33 H33           -1.1476     4.3697    -2.4902 H       
  34 H34           -1.6816     6.6353    -0.8908 H       
  35 H35            0.0244     6.6942    -1.3951 H       
  36 H36            3.7112     9.1191    -4.2867 H       
  37 H37            1.2664     9.2157    -4.5312 H       
  38 H38            1.0888     5.1877    -3.0332 H       
  39 H39            3.5394     5.2322    -2.8369 H       
  40 H40           -3.5647     9.1009    -6.4355 H       
  41 H41           -3.4490     7.4450    -7.0801 H       
  42 H42           -5.3900     8.7018    -8.0382 H       
  43 H43           -5.9034     7.2627    -7.1237 H       
  44 H44           -6.9465     9.2746    -4.2584 H       
  45 H45           -6.8329     7.6047    -4.8665 H       
  46 H46           -5.0274     8.0259    -3.2472 H       
  47 H47           -4.4917     9.4421    -4.1845 H       
@<TRIPOS>BOND
   1    1    2 1
   2    1    3 1
   3    1    5 1
   4    1   26 1
   5    2    3 1
   6    2   27 1
   7    2   28 1
   8    3   29 1
   9    3   30 1
  10    4    5 1
  11    4    6 2
  12    4    7 am
  13    5   31 1
  14    5   32 1
  15    7    8 1
  16    7   33 1
  17    8   12 1
  18    8   34 1
  19    8   35 1
  20    9   10 1
  21    9   13 1
  22   10   11 2
  23   10   20 1
  24   11   12 1
  25   12   13 2
  26   13   16 1
  27   14   15 ar
  28   14   19 ar
  29   14   36 1
  30   15   16 ar
  31   15   37 1
  32   16   17 ar
  33   17   18 ar
  34   17   38 1
  35   18   19 ar
  36   18   39 1
  37   20   21 1
  38   20   25 1
  39   21   22 1
  40   21   40 1
  41   21   41 1
  42   22   23 1
  43   22   42 1
  44   22   43 1
  45   23   24 1
  46   24   25 1
  47   24   44 1
  48   24   45 1
  49   25   46 1
  50   25   47 1

#	End of record

