#	Name: ASD03240686
#	Creating user name:	WinNT
#	Creation time:	15. 06. 2019 20:35

#	Modifying user name:	WinNT
#	Modification time:	15. 06. 2019 20:35

#	Program:	/corina/corina34_cracker 3.40 0067  02.08.2006

@<TRIPOS>MOLECULE
ASD03240686
  63   68    0    0    0
SMALL
NO_CHARGES


@<TRIPOS>ATOM
   1 C1             0.2518     1.0157    -1.7727 C.2     
   2 N2             0.2951    -0.3264    -1.7000 N.2     
   3 C3             1.4113    -0.9740    -1.4858 C.2     
   4 C4             2.6506    -0.2174    -1.3203 C.ar    
   5 C5             2.5985     1.1909    -1.3977 C.ar    
   6 N6             1.3732     1.7867    -1.6272 N.pl3   
   7 C7             3.8749    -0.8527    -1.0886 C.ar    
   8 C8             5.0054    -0.0550    -0.9424 C.ar    
   9 C9             4.8744     1.3442    -1.0323 C.ar    
  10 N10            3.6974     1.9105    -1.2537 N.ar    
  11 N11            0.9915     3.1277    -1.7552 N.2     
  12 C12           -0.3012     3.1807    -1.9691 C.2     
  13 C13           -0.8082     1.8874    -1.9828 C.2     
  14 C14            6.3313    -0.6704    -0.6945 C.ar    
  15 C15            6.4843    -1.6200     0.3144 C.ar    
  16 C16            7.7207    -2.1898     0.5403 C.ar    
  17 C17            8.8072    -1.8199    -0.2319 C.ar    
  18 C18            8.6614    -0.8777    -1.2342 C.ar    
  19 C19            7.4284    -0.3058    -1.4733 C.ar    
  20 C20           -1.1067     4.4397    -2.1616 C.3     
  21 C21            6.0743     2.1981    -0.8775 C.ar    
  22 C22            6.1968     3.3745    -1.6170 C.ar    
  23 C23            7.3172     4.1659    -1.4683 C.ar    
  24 C24            8.3180     3.7947    -0.5880 C.ar    
  25 C25            8.2023     2.6291     0.1482 C.ar    
  26 C26            7.0840     1.8323     0.0127 C.ar    
  27 C27            9.5393     4.6634    -0.4309 C.3     
  28 C28           10.1678     4.5948     0.9709 C.3     
  29 C29           11.5374     4.6109     0.2717 C.3     
  30 C30           10.8299     4.0124    -0.9555 C.3     
  31 O31           12.4940     3.7315     0.8664 O.3     
  32 C32           12.0885     6.0185     0.0356 C.3     
  33 C33           12.3842     6.6828     1.3818 C.3     
  34 O34           12.7882     8.0365     1.1663 O.3     
  35 O35           13.2925     5.9365    -0.7298 O.3     
  36 N36            9.3323     6.0343    -0.9165 N.3     
  37 H37            1.4169    -2.0526    -1.4318 H       
  38 H38            3.9406    -1.9288    -1.0248 H       
  39 H39           -1.8411     1.6097    -2.1326 H       
  40 H40            5.6369    -1.9091     0.9184 H       
  41 H41            7.8405    -2.9257     1.3217 H       
  42 H42            9.7730    -2.2682    -0.0514 H       
  43 H43            9.5132    -0.5925    -1.8338 H       
  44 H44            7.3148     0.4264    -2.2590 H       
  45 H45           -1.1357     4.6941    -3.2211 H       
  46 H46           -2.1220     4.2806    -1.7982 H       
  47 H47           -0.6451     5.2551    -1.6046 H       
  48 H48            5.4164     3.6651    -2.3047 H       
  49 H49            7.4134     5.0768    -2.0405 H       
  50 H50            8.9868     2.3447     0.8338 H       
  51 H51            6.9928     0.9249     0.5912 H       
  52 H52            9.9774     5.4794     1.5786 H       
  53 H53            9.9578     3.6644     1.4985 H       
  54 H54           10.8010     2.9228    -0.9546 H       
  55 H55           11.1741     4.4269    -1.9031 H       
  56 H56           13.3574     3.7372     0.4310 H       
  57 H57           11.3522     6.6106    -0.5078 H       
  58 H58           11.4869     6.6655     2.0004 H       
  59 H59           13.1840     6.1409     1.8865 H       
  60 H60           12.9922     8.5201     1.9785 H       
  61 H61           14.0217     5.4982    -0.2701 H       
  62 H62            8.9191     6.0333    -1.8370 H       
  63 H63            8.7707     6.5664    -0.2687 H       
@<TRIPOS>BOND
   1    1    2 1
   2    1    6 1
   3    1   13 2
   4    2    3 2
   5    3    4 1
   6    3   37 1
   7    4    5 ar
   8    4    7 ar
   9    5    6 1
  10    5   10 ar
  11    6   11 1
  12    7    8 ar
  13    7   38 1
  14    8    9 ar
  15    8   14 1
  16    9   10 ar
  17    9   21 1
  18   11   12 2
  19   12   13 1
  20   12   20 1
  21   13   39 1
  22   14   15 ar
  23   14   19 ar
  24   15   16 ar
  25   15   40 1
  26   16   17 ar
  27   16   41 1
  28   17   18 ar
  29   17   42 1
  30   18   19 ar
  31   18   43 1
  32   19   44 1
  33   20   45 1
  34   20   46 1
  35   20   47 1
  36   21   22 ar
  37   21   26 ar
  38   22   23 ar
  39   22   48 1
  40   23   24 ar
  41   23   49 1
  42   24   25 ar
  43   24   27 1
  44   25   26 ar
  45   25   50 1
  46   26   51 1
  47   27   28 1
  48   27   30 1
  49   27   36 1
  50   28   29 1
  51   28   52 1
  52   28   53 1
  53   29   30 1
  54   29   31 1
  55   29   32 1
  56   30   54 1
  57   30   55 1
  58   31   56 1
  59   32   33 1
  60   32   35 1
  61   32   57 1
  62   33   34 1
  63   33   58 1
  64   33   59 1
  65   34   60 1
  66   35   61 1
  67   36   62 1
  68   36   63 1

#	End of record

