#	Name: ASD02038130
#	Creating user name:	WinNT
#	Creation time:	15. 06. 2019 20:16

#	Modifying user name:	WinNT
#	Modification time:	15. 06. 2019 20:16

#	Program:	/corina/corina34_cracker 3.40 0067  02.08.2006

@<TRIPOS>MOLECULE
ASD02038130
  52   54    0    0    0
SMALL
NO_CHARGES


@<TRIPOS>ATOM
   1 C1            -0.1417     1.1157     0.0878 C.ar    
   2 C2            -0.1431    -0.2502     0.3153 C.ar    
   3 C3             1.0526     1.7826    -0.1269 C.ar    
   4 C4             2.2454     1.0864    -0.1151 C.ar    
   5 C5             2.2464    -0.2836     0.1128 C.ar    
   6 C6             1.0474    -0.9504     0.3284 C.ar    
   7 N7             3.4527    -0.9905     0.1252 N.3     
   8 C8             6.7557    -3.3441     1.3070 C.3     
   9 C9             7.7825    -2.5859     2.1507 C.3     
  10 C10            9.1025    -3.3594     2.1642 C.3     
  11 O11           10.0615    -2.6512     2.9522 O.3     
  12 C12           11.2970    -3.2072     3.0678 C.ar    
  13 C13           12.2756    -2.5721     3.8182 C.ar    
  14 C14           13.5305    -3.1365     3.9363 C.ar    
  15 C15           13.8124    -4.3398     3.3039 C.ar    
  16 C16           12.8325    -4.9750     2.5529 C.ar    
  17 C17           11.5765    -4.4122     2.4399 C.ar    
  18 N18           15.0858    -4.9129     3.4230 N.am    
  19 C19            3.2234    -2.4190     0.3829 C.3     
  20 C20            4.5560    -3.1682     0.3096 C.3     
  21 N21            5.4884    -2.6014     1.2940 N.3     
  22 C22            5.7177    -1.1729     1.0363 C.3     
  23 C23            4.3851    -0.4237     1.1096 C.3     
  24 F24           -1.3077     1.7977     0.0698 F       
  25 C25           15.7699    -4.8006     4.5788 C.2     
  26 N26           16.9524    -5.4303     4.7259 N.am    
  27 O27           15.3202    -4.1312     5.4888 O.2     
  28 H28           -1.0758    -0.7683     0.4829 H       
  29 H29            1.0514     2.8480    -0.3040 H       
  30 H30            3.1767     1.6068    -0.2833 H       
  31 H31            1.0458    -2.0157     0.5061 H       
  32 H32            7.1275    -3.4463     0.2875 H       
  33 H33            6.5929    -4.3332     1.7352 H       
  34 H34            7.9454    -1.5968     1.7225 H       
  35 H35            7.4108    -2.4837     3.1702 H       
  36 H36            8.9397    -4.3484     2.5924 H       
  37 H37            9.4743    -3.4615     1.1447 H       
  38 H38           12.0563    -1.6359     4.3098 H       
  39 H39           14.2924    -2.6418     4.5203 H       
  40 H40           13.0513    -5.9109     2.0604 H       
  41 H41           10.8141    -4.9061     1.8558 H       
  42 H42           15.4748    -5.3904     2.6736 H       
  43 H43            2.7897    -2.5445     1.3750 H       
  44 H44            2.5399    -2.8185    -0.3663 H       
  45 H45            4.3925    -4.2233     0.5290 H       
  46 H46            4.9764    -3.0653    -0.6908 H       
  47 H47            6.4012    -0.7734     1.7855 H       
  48 H48            6.1513    -1.0474     0.0442 H       
  49 H49            4.5486     0.6314     0.8902 H       
  50 H50            3.9646    -0.5266     2.1100 H       
  51 H51           17.3111    -5.9643     4.0000 H       
  52 H52           17.4448    -5.3494     5.5578 H       
@<TRIPOS>BOND
   1    1    2 ar
   2    1    3 ar
   3    1   24 1
   4    2    6 ar
   5    2   28 1
   6    3    4 ar
   7    3   29 1
   8    4    5 ar
   9    4   30 1
  10    5    6 ar
  11    5    7 1
  12    6   31 1
  13    7   19 1
  14    7   23 1
  15    8    9 1
  16    8   21 1
  17    8   32 1
  18    8   33 1
  19    9   10 1
  20    9   34 1
  21    9   35 1
  22   10   11 1
  23   10   36 1
  24   10   37 1
  25   11   12 1
  26   12   13 ar
  27   12   17 ar
  28   13   14 ar
  29   13   38 1
  30   14   15 ar
  31   14   39 1
  32   15   16 ar
  33   15   18 1
  34   16   17 ar
  35   16   40 1
  36   17   41 1
  37   18   25 am
  38   18   42 1
  39   19   20 1
  40   19   43 1
  41   19   44 1
  42   20   21 1
  43   20   45 1
  44   20   46 1
  45   21   22 1
  46   22   23 1
  47   22   47 1
  48   22   48 1
  49   23   49 1
  50   23   50 1
  51   25   26 am
  52   25   27 2
  53   26   51 1
  54   26   52 1

#	End of record

