#	Name: ASD01918045
#	Creating user name:	WinNT
#	Creation time:	15. 06. 2019 20:10

#	Modifying user name:	WinNT
#	Modification time:	15. 06. 2019 20:10

#	Program:	/corina/corina34_cracker 3.40 0067  02.08.2006

@<TRIPOS>MOLECULE
ASD01918045
  43   46    0    0    0
SMALL
NO_CHARGES


@<TRIPOS>ATOM
   1 C1            -0.0167     1.3825     0.0096 C.ar    
   2 C2             0.0021    -0.0041     0.0020 C.ar    
   3 C3             1.2107    -0.6779    -0.0131 C.ar    
   4 C4             2.3994     0.0323    -0.0207 C.ar    
   5 C5             2.3809     1.4146    -0.0131 C.ar    
   6 C6             1.1765     2.0908     0.0021 C.ar    
   7 O7            -1.2022     2.0468     0.0189 O.3     
   8 C8            -1.1458     3.4746     0.0264 C.3     
   9 C9            -2.5456     4.0327     0.0360 C.2     
  10 N10           -3.2459     4.3081     1.1022 N.2     
  11 C11           -4.4382     4.7844     0.7193 C.2     
  12 C12           -4.4566     4.7992    -0.6273 C.2     
  13 O13           -3.2742     4.3333    -1.0506 O.3     
  14 C14           -5.5820     5.2295     1.5949 C.3     
  15 C15           -6.5365     6.0937     0.7615 C.3     
  16 N16           -6.7695     5.4414    -0.5357 N.am    
  17 C17           -5.6247     5.2813    -1.4516 C.3     
  18 C18           -7.9972     5.0035    -0.8785 C.2     
  19 O19           -8.9295     5.1458    -0.1112 O.2     
  20 C20           -8.2098     4.3516    -2.1849 C.ar    
  21 C21           -8.5559     5.1158    -3.3045 C.ar    
  22 C22           -8.7532     4.4969    -4.5245 C.ar    
  23 C23           -8.6099     3.1261    -4.6402 C.ar    
  24 C24           -8.2684     2.3630    -3.5385 C.ar    
  25 C25           -8.0608     2.9664    -2.3124 C.ar    
  26 F26            1.2308    -2.0288    -0.0201 F       
  27 F27           -7.7210     2.2199    -1.2388 F       
  28 F28           -8.6972     6.4548    -3.1934 F       
  29 H29           -0.9254    -0.5574     0.0083 H       
  30 H30            3.3422    -0.4944    -0.0321 H       
  31 H31            3.3093     1.9665    -0.0186 H       
  32 H32            1.1635     3.1707     0.0076 H       
  33 H33           -0.6138     3.8126     0.9157 H       
  34 H34           -0.6222     3.8222    -0.8642 H       
  35 H35           -6.1147     4.3564     1.9717 H       
  36 H36           -5.1964     5.8132     2.4308 H       
  37 H37           -7.4837     6.2033     1.2895 H       
  38 H38           -6.0921     7.0760     0.6007 H       
  39 H39           -5.3843     6.2404    -1.9103 H       
  40 H40           -5.8615     4.5490    -2.2234 H       
  41 H41           -9.0204     5.0853    -5.3898 H       
  42 H42           -8.7659     2.6489    -5.5964 H       
  43 H43           -8.1589     1.2931    -3.6376 H       
@<TRIPOS>BOND
   1    1    2 ar
   2    1    6 ar
   3    1    7 1
   4    2    3 ar
   5    2   29 1
   6    3    4 ar
   7    3   26 1
   8    4    5 ar
   9    4   30 1
  10    5    6 ar
  11    5   31 1
  12    6   32 1
  13    7    8 1
  14    8    9 1
  15    8   33 1
  16    8   34 1
  17    9   10 2
  18    9   13 1
  19   10   11 1
  20   11   14 1
  21   11   12 2
  22   12   13 1
  23   12   17 1
  24   14   15 1
  25   14   35 1
  26   14   36 1
  27   15   16 1
  28   15   37 1
  29   15   38 1
  30   16   17 1
  31   16   18 am
  32   17   39 1
  33   17   40 1
  34   18   19 2
  35   18   20 1
  36   20   21 ar
  37   20   25 ar
  38   21   22 ar
  39   21   28 1
  40   22   23 ar
  41   22   41 1
  42   23   24 ar
  43   23   42 1
  44   24   25 ar
  45   24   43 1
  46   25   27 1

#	End of record

