#	Name: ASD01910238
#	Creating user name:	WinNT
#	Creation time:	15. 06. 2019 19:55

#	Modifying user name:	WinNT
#	Modification time:	15. 06. 2019 19:55

#	Program:	/corina/corina34_cracker 3.40 0067  02.08.2006

@<TRIPOS>MOLECULE
ASD01910238
  53   57    0    0    0
SMALL
NO_CHARGES


@<TRIPOS>ATOM
   1 C1            -0.0134     1.3336    -0.0308 C.2     
   2 C2             1.1754     2.2597    -0.0271 C.3     
   3 C3             1.1043     3.1869    -1.2426 C.3     
   4 C4             2.3280     4.1058    -1.2577 C.3     
   5 C5             2.3299     4.9679     0.0086 C.3     
   6 N6             2.2519     4.0861     1.1812 N.am    
   7 C7             1.1642     3.1010     1.2531 C.3     
   8 C8             3.1608     4.1790     2.1720 C.2     
   9 C9             4.3244     5.0778     2.0252 C.2     
  10 O10            3.0233     3.5234     3.1864 O.2     
  11 N11            0.0200     0.0251    -0.0786 N.2     
  12 C12           -1.2724    -0.3722    -0.0598 C.2     
  13 N13           -2.0075     0.7080    -0.0023 N.2     
  14 O14           -1.2999     1.6929     0.0200 O.3     
  15 C15           -1.7645    -1.7715    -0.0983 C.ar    
  16 C16           -3.1333    -2.0318    -0.0725 C.ar    
  17 C17           -3.5865    -3.3343    -0.1089 C.ar    
  18 C18           -2.6829    -4.3829    -0.1709 C.ar    
  19 C19           -1.3210    -4.1286    -0.1966 C.ar    
  20 C20           -0.8593    -2.8289    -0.1659 C.ar    
  21 F21           -3.1309    -5.6570    -0.2059 F       
  22 C22            5.2768     5.3670     3.0182 C.2     
  23 N23            6.1363     6.2017     2.4824 N.2     
  24 N24            5.7227     6.4319     1.1637 N.pl3   
  25 N25            4.6568     5.7471     0.9365 N.2     
  26 C26            5.3049     4.8248     4.4240 C.3     
  27 C27            6.3674     7.2667     0.2411 C.ar    
  28 C28            7.5193     7.9501     0.6077 C.ar    
  29 C29            8.1523     8.7722    -0.3039 C.ar    
  30 C30            7.6402     8.9152    -1.5804 C.ar    
  31 C31            6.4933     8.2359    -1.9485 C.ar    
  32 C32            5.8589     7.4079    -1.0433 C.ar    
  33 H33            2.0933     1.6736    -0.0699 H       
  34 H34            1.0872     2.5898    -2.1543 H       
  35 H35            0.1980     3.7900    -1.1868 H       
  36 H36            3.2355     3.5027    -1.2886 H       
  37 H37            2.2886     4.7498    -2.1362 H       
  38 H38            3.2490     5.5523     0.0514 H       
  39 H39            1.4694     5.6368    -0.0035 H       
  40 H40            0.2086     3.6176     1.3425 H       
  41 H41            1.3141     2.4535     2.1171 H       
  42 H42           -3.8383    -1.2151    -0.0239 H       
  43 H43           -4.6471    -3.5370    -0.0887 H       
  44 H44           -0.6200    -4.9488    -0.2449 H       
  45 H45            0.2023    -2.6315    -0.1861 H       
  46 H46            5.8831     3.9010     4.4457 H       
  47 H47            5.7654     5.5573     5.0868 H       
  48 H48            4.2864     4.6237     4.7563 H       
  49 H49            7.9195     7.8392     1.6046 H       
  50 H50            9.0481     9.3043    -0.0193 H       
  51 H51            8.1369     9.5589    -2.2913 H       
  52 H52            6.0956     8.3499    -2.9461 H       
  53 H53            4.9632     6.8777    -1.3313 H       
@<TRIPOS>BOND
   1    1   11 2
   2    1    2 1
   3    1   14 1
   4    2    3 1
   5    2    7 1
   6    2   33 1
   7    3    4 1
   8    3   34 1
   9    3   35 1
  10    4    5 1
  11    4   36 1
  12    4   37 1
  13    5    6 1
  14    5   38 1
  15    5   39 1
  16    6    7 1
  17    6    8 am
  18    7   40 1
  19    7   41 1
  20    8    9 1
  21    8   10 2
  22    9   22 1
  23    9   25 2
  24   11   12 1
  25   12   13 2
  26   12   15 1
  27   13   14 1
  28   15   16 ar
  29   15   20 ar
  30   16   17 ar
  31   16   42 1
  32   17   18 ar
  33   17   43 1
  34   18   19 ar
  35   18   21 1
  36   19   20 ar
  37   19   44 1
  38   20   45 1
  39   22   23 2
  40   22   26 1
  41   23   24 1
  42   24   25 1
  43   24   27 1
  44   26   46 1
  45   26   47 1
  46   26   48 1
  47   27   28 ar
  48   27   32 ar
  49   28   29 ar
  50   28   49 1
  51   29   30 ar
  52   29   50 1
  53   30   31 ar
  54   30   51 1
  55   31   32 ar
  56   31   52 1
  57   32   53 1

#	End of record

