#	Name: ASD03331557
#	Creating user name:	WinNT
#	Creation time:	15. 06. 2019 20:39

#	Modifying user name:	WinNT
#	Modification time:	15. 06. 2019 20:39

#	Program:	/corina/corina34_cracker 3.40 0067  02.08.2006

@<TRIPOS>MOLECULE
ASD03331557
  47   50    0    0    0
SMALL
NO_CHARGES


@<TRIPOS>ATOM
   1 C1            -0.0168     1.3910     0.0097 C.ar    
   2 C2            -1.2370     2.0677     0.0179 C.ar    
   3 C3             1.2524     2.1502     0.0016 C.2     
   4 N4             1.3970     3.4528    -0.3713 N.pl3   
   5 C5             2.7247     3.7599    -0.2580 C.2     
   6 C6             3.3547     2.6514     0.2072 C.2     
   7 N7             2.4274     1.6825     0.3584 N.2     
   8 C8             0.3405     4.3750    -0.7946 C.3     
   9 C9             0.9391     5.4421    -1.7146 C.3     
  10 O10            1.4284     6.5362    -0.9372 O.3     
  11 C11            2.4681     6.2041    -0.0214 C.3     
  12 C12            3.3349     5.0892    -0.6161 C.3     
  13 C13            4.7973     2.5291     0.5014 C.2     
  14 N14            5.7033     3.4693     0.3621 N.2     
  15 C15           -2.4194     1.3536     0.0254 C.ar    
  16 C16           -2.3936    -0.0339     0.0247 C.ar    
  17 C17           -1.1837    -0.7088     0.0169 C.ar    
  18 C18            0.0022    -0.0044     0.0149 C.ar    
  19 F19           -3.6020     2.0065     0.0338 F       
  20 F20           -3.5522    -0.7289     0.0319 F       
  21 O21            5.4283     1.4330     0.9684 O.3     
  22 C22            6.7260     1.7662     1.0892 C.2     
  23 N23            6.8517     3.0071     0.7125 N.2     
  24 C24            7.8335     0.8679     1.5767 C.3     
  25 C25            8.4758     1.4804     2.8229 C.3     
  26 C26            7.2596    -0.5076     1.9224 C.3     
  27 C27            8.8894     0.7188     0.4796 C.3     
  28 H28           -1.2570     3.1475     0.0189 H       
  29 H29           -0.4308     3.8228    -1.3316 H       
  30 H30           -0.0971     4.8537     0.0814 H       
  31 H31            1.7598     5.0085    -2.2860 H       
  32 H32            0.1717     5.8003    -2.4008 H       
  33 H33            3.0842     7.0840     0.1636 H       
  34 H34            2.0306     5.8629     0.9169 H       
  35 H35            4.3427     5.1513    -0.2056 H       
  36 H36            3.3722     5.1941    -1.7004 H       
  37 H37           -1.1690    -1.7887     0.0167 H       
  38 H38            0.9444    -0.5322     0.0084 H       
  39 H39            7.7235     1.5866     3.6045 H       
  40 H40            9.2768     0.8306     3.1755 H       
  41 H41            8.8847     2.4603     2.5766 H       
  42 H42            6.8020    -0.9440     1.0346 H       
  43 H43            8.0606    -1.1574     2.2750 H       
  44 H44            6.5073    -0.4014     2.7040 H       
  45 H45            9.2983     1.6987     0.2333 H       
  46 H46            9.6905     0.0691     0.8321 H       
  47 H47            8.4318     0.2824    -0.4083 H       
@<TRIPOS>BOND
   1    1    2 ar
   2    1    3 1
   3    1   18 ar
   4    2   15 ar
   5    2   28 1
   6    3    4 1
   7    3    7 2
   8    4    5 1
   9    4    8 1
  10    5    6 2
  11    5   12 1
  12    6    7 1
  13    6   13 1
  14    8    9 1
  15    8   29 1
  16    8   30 1
  17    9   10 1
  18    9   31 1
  19    9   32 1
  20   10   11 1
  21   11   12 1
  22   11   33 1
  23   11   34 1
  24   12   35 1
  25   12   36 1
  26   13   14 2
  27   13   21 1
  28   14   23 1
  29   15   16 ar
  30   15   19 1
  31   16   17 ar
  32   16   20 1
  33   17   18 ar
  34   17   37 1
  35   18   38 1
  36   21   22 1
  37   22   23 2
  38   22   24 1
  39   24   25 1
  40   24   26 1
  41   24   27 1
  42   25   39 1
  43   25   40 1
  44   25   41 1
  45   26   42 1
  46   26   43 1
  47   26   44 1
  48   27   45 1
  49   27   46 1
  50   27   47 1

#	End of record

