#	Name: ASD05430011
#	Creating user name:	WinNT
#	Creation time:	15. 06. 2019 20:59

#	Modifying user name:	WinNT
#	Modification time:	15. 06. 2019 20:59

#	Program:	/corina/corina34_cracker 3.40 0067  02.08.2006

@<TRIPOS>MOLECULE
ASD05430011
  63   69    0    0    0
SMALL
NO_CHARGES


@<TRIPOS>ATOM
   1 C1            -0.1712     1.2090     0.9648 C.ar    
   2 C2            -0.0147    -0.0168     0.3187 C.ar    
   3 C3            -1.0638    -0.5591    -0.4126 C.ar    
   4 C4            -2.2640     0.1115    -0.5030 C.ar    
   5 C5            -2.4284     1.3412     0.1428 C.ar    
   6 C6            -1.3743     1.8843     0.8836 C.ar    
   7 C7            -4.9276    -0.1412     0.1087 C.3     
   8 C8            -4.8619     1.3704    -0.0488 C.2     
   9 C9            -3.7098     2.0594     0.0469 C.2     
  10 C10           -6.1129    -0.4747     1.0226 C.3     
  11 C11           -7.4795     0.0621     0.5911 C.3     
  12 N12           -7.3582     1.4250     0.0910 N.pl3   
  13 C13           -6.1623     2.0253    -0.3158 C.2     
  14 C14           -8.3943     2.4407    -0.0880 C.3     
  15 O15           -7.7934     3.3878    -0.9872 O.3     
  16 N16           -6.3937     3.1440    -0.9170 N.2     
  17 N17            1.2040    -0.7030     0.4069 N.pl3   
  18 C18            1.3749    -2.0205     0.7451 C.2     
  19 C19            2.6987    -2.2645     0.7067 C.2     
  20 N20            3.3235    -1.1309     0.3555 N.2     
  21 C21            2.4387    -0.1897     0.1678 C.2     
  22 C22            3.3632    -3.5833     1.0074 C.3     
  23 O23            0.8578     1.7371     1.6793 O.3     
  24 C24            0.6275     2.9960     2.3151 C.3     
  25 C25           -6.0849    -1.8308     1.7334 C.3     
  26 C26           -5.8325    -0.5473     2.5266 C.3     
  27 C27           -9.6438     1.8338    -0.7194 C.3     
  28 C28          -10.7713     2.8732    -0.6550 C.3     
  29 O29          -11.0682     3.1333     0.7176 O.3     
  30 C30          -10.0344     3.4155     1.5521 C.ar    
  31 C31           -8.7264     3.1023     1.2199 C.ar    
  32 C32          -10.3079     4.0333     2.7678 C.ar    
  33 C33           -9.2827     4.3316     3.6417 C.ar    
  34 C34           -7.9782     4.0156     3.3090 C.ar    
  35 C35           -7.7022     3.4031     2.1023 C.ar    
  36 H36           -0.9383    -1.5086    -0.9118 H       
  37 H37           -3.0777    -0.3122    -1.0728 H       
  38 H38           -1.4972     2.8335     1.3841 H       
  39 H39           -5.0721    -0.6068    -0.8661 H       
  40 H40           -4.0032    -0.5049     0.5575 H       
  41 H41           -3.7254     3.1393     0.0534 H       
  42 H42           -7.8841    -0.5750    -0.1954 H       
  43 H43           -8.1562     0.0514     1.4456 H       
  44 H44            0.5971    -2.7269     0.9949 H       
  45 H45            2.6530     0.8282    -0.1224 H       
  46 H46            3.4460    -4.1659     0.0899 H       
  47 H47            4.3582    -3.4041     1.4150 H       
  48 H48            2.7663    -4.1335     1.7347 H       
  49 H49           -0.1996     2.9016     3.0188 H       
  50 H50            1.5263     3.3028     2.8499 H       
  51 H51            0.3799     3.7437     1.5616 H       
  52 H52           -7.0373    -2.3382     1.8870 H       
  53 H53           -5.2310    -2.4810     1.5433 H       
  54 H54           -4.8126    -0.3531     2.8583 H       
  55 H55           -6.6189    -0.2102     3.2019 H       
  56 H56           -9.4415     1.5753    -1.7588 H       
  57 H57           -9.9365     0.9399    -0.1684 H       
  58 H58          -10.4489     3.7940    -1.1410 H       
  59 H59          -11.6583     2.4830    -1.1541 H       
  60 H60          -11.3264     4.2807     3.0286 H       
  61 H61           -9.4988     4.8113     4.5849 H       
  62 H62           -7.1751     4.2480     3.9926 H       
  63 H63           -6.6824     3.1570     1.8456 H       
@<TRIPOS>BOND
   1    1    2 ar
   2    1   23 1
   3    1    6 ar
   4    2    3 ar
   5    2   17 1
   6    3    4 ar
   7    3   36 1
   8    4    5 ar
   9    4   37 1
  10    5    6 ar
  11    5    9 1
  12    6   38 1
  13    7    8 1
  14    7   10 1
  15    7   39 1
  16    7   40 1
  17    8    9 2
  18    8   13 1
  19    9   41 1
  20   10   11 1
  21   10   25 1
  22   10   26 1
  23   11   12 1
  24   11   42 1
  25   11   43 1
  26   12   13 1
  27   12   14 1
  28   13   16 2
  29   14   15 1
  30   14   27 1
  31   14   31 1
  32   15   16 1
  33   17   18 1
  34   17   21 1
  35   18   19 2
  36   18   44 1
  37   19   20 1
  38   19   22 1
  39   20   21 2
  40   21   45 1
  41   22   46 1
  42   22   47 1
  43   22   48 1
  44   23   24 1
  45   24   49 1
  46   24   50 1
  47   24   51 1
  48   25   26 1
  49   25   52 1
  50   25   53 1
  51   26   54 1
  52   26   55 1
  53   27   28 1
  54   27   56 1
  55   27   57 1
  56   28   29 1
  57   28   58 1
  58   28   59 1
  59   29   30 1
  60   30   31 ar
  61   30   32 ar
  62   31   35 ar
  63   32   33 ar
  64   32   60 1
  65   33   34 ar
  66   33   61 1
  67   34   35 ar
  68   34   62 1
  69   35   63 1

#	End of record

