#	Name: ASD05763002
#	Creating user name:	WinNT
#	Creation time:	15. 06. 2019 21:03

#	Modifying user name:	WinNT
#	Modification time:	15. 06. 2019 21:03

#	Program:	/corina/corina34_cracker 3.40 0067  02.08.2006

@<TRIPOS>MOLECULE
ASD05763002
 206  208    0    0    0
SMALL
NO_CHARGES


@<TRIPOS>ATOM
   1 C1            -3.7768     1.3913    10.8194 C.2     
   2 O2            -4.0380     0.2594    11.1681 O.2     
   3 N3            -1.6310     1.0125    11.8877 N.am    
   4 C4            -2.4335     1.9900    11.1484 C.3     
   5 C5            -6.5545     2.2077     8.5876 C.2     
   6 O6            -5.9299     3.0933     8.0431 O.2     
   7 N7            -4.6857     2.1116    10.1328 N.am    
   8 C8            -5.9893     1.5274     9.8078 C.3     
   9 C9            -6.9436     1.7213    10.9878 C.3     
  10 C10           -6.4333     0.9276    12.1922 C.3     
  11 C11           -7.3876     1.1215    13.3723 C.3     
  12 N12           -6.8990     0.3615    14.5255 N.pl3   
  13 C13           -7.5978     0.3834    15.7092 C.2     
  14 N14           -8.6951     1.0803    15.8055 N.2     
  15 N15           -7.1393    -0.3298    16.7915 N.pl3   
  16 C16           -9.8058     2.3757     6.9252 C.2     
  17 O17          -10.3628     1.7965     7.8337 O.2     
  18 N18           -7.7540     1.8319     8.1014 N.am    
  19 C19           -8.3034     2.4932     6.9153 C.3     
  20 C20           -7.7479     1.8254     5.6558 C.3     
  21 C21           -6.2367     2.0526     5.5823 C.3     
  22 C22           -5.6812     1.3848     4.3228 C.3     
  23 N23           -4.2341     1.6023     4.2525 N.pl3   
  24 C24           -3.5124     1.0907     3.2001 C.2     
  25 N25           -4.1157     0.4121     2.2649 N.2     
  26 N26           -2.1544     1.2949     3.1341 N.pl3   
  27 C27          -12.5118     2.8971     4.5234 C.2     
  28 O28          -11.7862     3.2907     3.6349 O.2     
  29 N29          -10.5305     2.9141     5.9246 N.am    
  30 C30          -11.9910     2.7998     5.9342 C.3     
  31 C31          -12.5855     3.9305     6.7764 C.3     
  32 C32          -12.1458     3.7670     8.2327 C.3     
  33 C33          -12.0927     5.2771     6.2429 C.3     
  34 C34          -15.8238     2.8758     2.9763 C.2     
  35 O35          -16.3858     2.8091     4.0490 O.2     
  36 N36          -13.7840     2.5466     4.2491 N.am    
  37 C37          -14.3243     2.7455     2.9019 C.3     
  38 C38          -13.9595     1.5467     2.0240 C.3     
  39 O39          -14.6091     0.3757     2.5228 O.3     
  40 C40          -18.6035     2.7883     0.6038 C.2     
  41 O41          -17.8878     2.4293    -0.3071 O.2     
  42 N42          -16.5403     3.0664     1.8508 N.am    
  43 C43          -17.9980     3.1931     1.9231 C.3     
  44 C44          -18.3691     4.6453     2.2304 C.3     
  45 C45          -17.8685     5.0119     3.6037 C.ar    
  46 C46          -16.6026     5.5454     3.7583 C.ar    
  47 C47          -16.1434     5.8817     5.0180 C.ar    
  48 C48          -16.9501     5.6848     6.1231 C.ar    
  49 C49          -18.2163     5.1522     5.9684 C.ar    
  50 C50          -18.6772     4.8199     4.7082 C.ar    
  51 C51          -21.8670     3.1045    -1.0124 C.2     
  52 O52          -22.2877     3.8404    -0.1450 O.2     
  53 N53          -19.9403     2.8252     0.4363 N.am    
  54 C54          -20.5289     2.4316    -0.8463 C.3     
  55 C55          -20.7141     0.9132    -0.8779 C.3     
  56 C56          -24.9691     2.9178    -1.6167 C.2     
  57 O57          -24.7461     1.9030    -0.9912 O.2     
  58 N58          -22.5964     2.8886    -2.1251 N.am    
  59 C59          -23.8470     3.6221    -2.3349 C.3     
  60 C60          -24.1579     3.6823    -3.8318 C.3     
  61 C61          -23.0872     4.4755    -4.5358 C.2     
  62 O62          -22.2260     5.0298    -3.8947 O.2     
  63 O63          -23.0903     4.5662    -5.8750 O.3     
  64 C64          -28.0268     1.8585    -2.1188 C.2     
  65 O65          -27.6360     1.8908    -3.2664 O.2     
  66 N66          -26.2205     3.4156    -1.6696 N.am    
  67 C67          -27.3294     2.6758    -1.0620 C.3     
  68 C68          -28.3217     3.6620    -0.4426 C.3     
  69 C69          -27.6566     4.3981     0.6918 C.2     
  70 O70          -26.5388     4.0863     1.0443 O.2     
  71 N71          -28.3039     5.4028     1.3146 N.am    
  72 C72          -31.1871     0.0422    -2.3950 C.2     
  73 O73          -31.5958     0.4810    -1.3407 O.2     
  74 N74          -29.0848     1.0917    -1.7885 N.am    
  75 C75          -29.7627     0.2972    -2.8158 C.3     
  76 C76          -29.0358    -1.0378    -2.9904 C.3     
  77 C77          -27.6504    -0.7887    -3.5287 C.ar    
  78 C78          -26.5953    -0.5922    -2.6574 C.ar    
  79 C79          -25.3246    -0.3637    -3.1512 C.ar    
  80 C80          -25.1088    -0.3322    -4.5163 C.ar    
  81 C81          -26.1637    -0.5296    -5.3875 C.ar    
  82 C82          -27.4337    -0.7624    -4.8937 C.ar    
  83 C83          -34.0890    -1.7385    -3.8378 C.2     
  84 O84          -33.4885    -2.0803    -4.8345 O.2     
  85 N85          -32.0069    -0.6734    -3.1902 N.am    
  86 C86          -33.3916    -0.9212    -2.7811 C.3     
  87 C87          -37.5427    -2.6363    -4.6308 C.2     
  88 O88          -37.9905    -1.8713    -3.8030 O.2     
  89 N89          -35.3800    -2.0896    -3.6753 N.am    
  90 C90          -36.0580    -2.8842    -4.7026 C.3     
  91 C91          -35.7769    -4.3695    -4.4666 C.3     
  92 C92          -34.3068    -4.6394    -4.6595 C.ar    
  93 C93          -33.4398    -4.5423    -3.5873 C.ar    
  94 C94          -32.0913    -4.7897    -3.7642 C.ar    
  95 C95          -31.6100    -5.1348    -5.0132 C.ar    
  96 C96          -32.4772    -5.2328    -6.0853 C.ar    
  97 C97          -33.8263    -4.9895    -5.9074 C.ar    
  98 C98          -40.4280    -3.9331    -4.3822 C.2     
  99 O99          -39.7299    -4.7033    -3.7663 O.2     
 100 N100         -38.3730    -3.2648    -5.4865 N.am    
 101 C101         -39.8164    -3.0238    -5.4167 C.3     
 102 C102         -40.4473    -3.3070    -6.7815 C.3     
 103 C103         -39.9261    -2.3169    -7.7910 C.2     
 104 O104         -39.1286    -1.4683    -7.4522 O.2     
 105 N105         -40.3463    -2.3744    -9.0703 N.am    
 106 O106         -41.7483    -3.8872    -4.1448 O.3     
 107 O107           0.0730     2.4251    12.0395 O.2     
 108 C108          -0.3844     1.3301    12.2897 C.2     
 109 C109           0.4412     0.3245    13.0502 C.3     
 110 H110          -1.9967     0.1367    12.0878 H       
 111 H111          -1.9195     2.2585    10.2254 H       
 112 H112          -2.5731     2.8819    11.7592 H       
 113 H113          -4.4768     3.0168     9.8539 H       
 114 H114          -5.8705     0.4625     9.6078 H       
 115 H115          -6.9934     2.7794    11.2447 H       
 116 H116          -7.9372     1.3668    10.7136 H       
 117 H117          -6.3835    -0.1305    11.9353 H       
 118 H118          -5.4397     1.2821    12.4664 H       
 119 H119          -7.4375     2.1796    13.6292 H       
 120 H120          -8.3812     0.7670    13.0981 H       
 121 H121          -6.0824    -0.1571    14.4538 H       
 122 H122          -9.1882     1.0957    16.6407 H       
 123 H123          -6.3227    -0.8485    16.7198 H       
 124 H124          -7.6323    -0.3144    17.6267 H       
 125 H125          -8.2535     1.1236     8.5369 H       
 126 H126          -8.0213     3.5461     6.9228 H       
 127 H127          -7.9532     0.7555     5.6911 H       
 128 H128          -8.2235     2.2577     4.7754 H       
 129 H129          -6.0314     3.1225     5.5469 H       
 130 H130          -5.7611     1.6203     6.4626 H       
 131 H131          -5.8865     0.3149     4.3582 H       
 132 H132          -6.1568     1.8171     3.4425 H       
 133 H133          -3.7852     2.1073     4.9484 H       
 134 H134          -3.6065     0.0511     1.5224 H       
 135 H135          -1.7055     1.7999     3.8300 H       
 136 H136          -1.6453     0.9339     2.3916 H       
 137 H137         -10.0851     3.3774     5.1980 H       
 138 H138         -12.2775     1.8390     6.3619 H       
 139 H139         -13.6733     3.8930     6.7189 H       
 140 H140         -11.0701     3.9263     8.3075 H       
 141 H141         -12.6653     4.4973     8.8532 H       
 142 H142         -12.3889     2.7611     8.5749 H       
 143 H143         -12.4059     5.3935     5.2054 H       
 144 H144         -12.5162     6.0826     6.8429 H       
 145 H145         -11.0049     5.3146     6.3004 H       
 146 H146         -14.3418     2.1626     4.9436 H       
 147 H147         -13.9016     3.6532     2.4713 H       
 148 H148         -14.2838     1.7339     1.0004 H       
 149 H149         -12.8797     1.3986     2.0417 H       
 150 H150         -14.4225    -0.4248     2.0135 H       
 151 H151         -16.0908     3.1198     0.9929 H       
 152 H152         -18.3803     2.5457     2.7123 H       
 153 H153         -17.9120     5.3016     1.4898 H       
 154 H154         -19.4527     4.7583     2.1965 H       
 155 H155         -15.9723     5.6992     2.8949 H       
 156 H156         -15.1541     6.2979     5.1388 H       
 157 H157         -16.5911     5.9469     7.1074 H       
 158 H158         -18.8465     4.9981     6.8319 H       
 159 H159         -19.6678     4.4072     4.5870 H       
 160 H160         -20.5127     3.1123     1.1648 H       
 161 H161         -19.8670     2.7338    -1.6578 H       
 162 H162         -21.1521     0.6204    -1.8321 H       
 163 H163         -19.7463     0.4265    -0.7577 H       
 164 H164         -21.3761     0.6110    -0.0663 H       
 165 H165         -22.2932     2.2474    -2.7868 H       
 166 H166         -23.7444     4.6345    -1.9442 H       
 167 H167         -24.1871     2.6712    -4.2378 H       
 168 H168         -25.1246     4.1627    -3.9831 H       
 169 H169         -22.3833     5.0859    -6.2814 H       
 170 H170         -26.3868     4.2637    -2.1100 H       
 171 H171         -26.9431     2.0139    -0.2869 H       
 172 H172         -28.6443     4.3766    -1.1998 H       
 173 H173         -29.1870     3.1176    -0.0646 H       
 174 H174         -29.1979     5.6521     1.0327 H       
 175 H175         -27.8758     5.8766     2.0448 H       
 176 H176         -29.3973     1.0658    -0.8706 H       
 177 H177         -29.7547     0.8414    -3.7601 H       
 178 H178         -28.9659    -1.5422    -2.0266 H       
 179 H179         -29.5899    -1.6645    -3.6891 H       
 180 H180         -26.7639    -0.6168    -1.5910 H       
 181 H181         -24.5004    -0.2094    -2.4705 H       
 182 H182         -24.1161    -0.1530    -4.9021 H       
 183 H183         -25.9952    -0.5047    -6.4540 H       
 184 H184         -28.2572    -0.9203    -5.5743 H       
 185 H185         -31.6801    -1.0243    -4.0333 H       
 186 H186         -33.9095     0.0298    -2.6567 H       
 187 H187         -33.3996    -1.4655    -1.8367 H       
 188 H188         -35.8603    -1.8163    -2.8781 H       
 189 H189         -35.6888    -2.5964    -5.6869 H       
 190 H190         -36.0650    -4.6368    -3.4499 H       
 191 H191         -36.3517    -4.9652    -5.1757 H       
 192 H192         -33.8158    -4.2727    -2.6114 H       
 193 H193         -31.4138    -4.7132    -2.9266 H       
 194 H194         -30.5564    -5.3275    -5.1516 H       
 195 H195         -32.1011    -5.5020    -7.0612 H       
 196 H196         -34.5044    -5.0697    -6.7442 H       
 197 H197         -38.0149    -3.8766    -6.1485 H       
 198 H198         -39.9984    -1.9852    -5.1408 H       
 199 H199         -40.1902    -4.3179    -7.0979 H       
 200 H200         -41.5307    -3.2141    -6.7072 H       
 201 H201         -40.9841    -3.0531    -9.3413 H       
 202 H202         -40.0108    -1.7371    -9.7201 H       
 203 H203         -42.0946    -4.4895    -3.4722 H       
 204 H204           0.5807    -0.5674    12.4394 H       
 205 H205           1.4127     0.7576    13.2881 H       
 206 H206          -0.0728     0.0560    13.9731 H       
@<TRIPOS>BOND
   1    1    2 2
   2    1    4 1
   3    1    7 am
   4    3    4 1
   5    3  108 am
   6    3  110 1
   7    4  111 1
   8    4  112 1
   9    5    6 2
  10    5    8 1
  11    5   18 am
  12    7    8 1
  13    7  113 1
  14    8    9 1
  15    8  114 1
  16    9   10 1
  17    9  115 1
  18    9  116 1
  19   10   11 1
  20   10  117 1
  21   10  118 1
  22   11   12 1
  23   11  119 1
  24   11  120 1
  25   12   13 1
  26   12  121 1
  27   13   14 2
  28   13   15 1
  29   14  122 1
  30   15  123 1
  31   15  124 1
  32   16   17 2
  33   16   19 1
  34   16   29 am
  35   18   19 1
  36   18  125 1
  37   19   20 1
  38   19  126 1
  39   20   21 1
  40   20  127 1
  41   20  128 1
  42   21   22 1
  43   21  129 1
  44   21  130 1
  45   22   23 1
  46   22  131 1
  47   22  132 1
  48   23   24 1
  49   23  133 1
  50   24   25 2
  51   24   26 1
  52   25  134 1
  53   26  135 1
  54   26  136 1
  55   27   28 2
  56   27   30 1
  57   27   36 am
  58   29   30 1
  59   29  137 1
  60   30   31 1
  61   30  138 1
  62   31   32 1
  63   31   33 1
  64   31  139 1
  65   32  140 1
  66   32  141 1
  67   32  142 1
  68   33  143 1
  69   33  144 1
  70   33  145 1
  71   34   35 2
  72   34   37 1
  73   34   42 am
  74   36   37 1
  75   36  146 1
  76   37   38 1
  77   37  147 1
  78   38   39 1
  79   38  148 1
  80   38  149 1
  81   39  150 1
  82   40   41 2
  83   40   43 1
  84   40   53 am
  85   42   43 1
  86   42  151 1
  87   43   44 1
  88   43  152 1
  89   44   45 1
  90   44  153 1
  91   44  154 1
  92   45   46 ar
  93   45   50 ar
  94   46   47 ar
  95   46  155 1
  96   47   48 ar
  97   47  156 1
  98   48   49 ar
  99   48  157 1
 100   49   50 ar
 101   49  158 1
 102   50  159 1
 103   51   52 2
 104   51   54 1
 105   51   58 am
 106   53   54 1
 107   53  160 1
 108   54   55 1
 109   54  161 1
 110   55  162 1
 111   55  163 1
 112   55  164 1
 113   56   57 2
 114   56   59 1
 115   56   66 am
 116   58   59 1
 117   58  165 1
 118   59   60 1
 119   59  166 1
 120   60   61 1
 121   60  167 1
 122   60  168 1
 123   61   62 2
 124   61   63 1
 125   63  169 1
 126   64   65 2
 127   64   67 1
 128   64   74 am
 129   66   67 1
 130   66  170 1
 131   67   68 1
 132   67  171 1
 133   68   69 1
 134   68  172 1
 135   68  173 1
 136   69   70 2
 137   69   71 am
 138   71  174 1
 139   71  175 1
 140   72   73 2
 141   72   75 1
 142   72   85 am
 143   74   75 1
 144   74  176 1
 145   75   76 1
 146   75  177 1
 147   76   77 1
 148   76  178 1
 149   76  179 1
 150   77   78 ar
 151   77   82 ar
 152   78   79 ar
 153   78  180 1
 154   79   80 ar
 155   79  181 1
 156   80   81 ar
 157   80  182 1
 158   81   82 ar
 159   81  183 1
 160   82  184 1
 161   83   84 2
 162   83   86 1
 163   83   89 am
 164   85   86 1
 165   85  185 1
 166   86  186 1
 167   86  187 1
 168   87   88 2
 169   87   90 1
 170   87  100 am
 171   89   90 1
 172   89  188 1
 173   90   91 1
 174   90  189 1
 175   91   92 1
 176   91  190 1
 177   91  191 1
 178   92   93 ar
 179   92   97 ar
 180   93   94 ar
 181   93  192 1
 182   94   95 ar
 183   94  193 1
 184   95   96 ar
 185   95  194 1
 186   96   97 ar
 187   96  195 1
 188   97  196 1
 189   98   99 2
 190   98  101 1
 191   98  106 1
 192  100  101 1
 193  100  197 1
 194  101  102 1
 195  101  198 1
 196  102  103 1
 197  102  199 1
 198  102  200 1
 199  103  104 2
 200  103  105 am
 201  105  201 1
 202  105  202 1
 203  106  203 1
 204  107  108 2
 205  108  109 1
 206  109  204 1
 207  109  205 1
 208  109  206 1

#	End of record

