#	Name: ASD00111009
#	Creating user name:	WinNT
#	Creation time:	15. 06. 2019 18:30

#	Modifying user name:	WinNT
#	Modification time:	15. 06. 2019 18:30

#	Program:	/corina/corina34_cracker 3.40 0067  02.08.2006

@<TRIPOS>MOLECULE
ASD00111009
  34   35    0    0    0
SMALL
NO_CHARGES


@<TRIPOS>ATOM
   1 C1            -0.0167     1.3837     0.0096 C.ar    
   2 C2             0.0021    -0.0041     0.0020 C.ar    
   3 C3            -1.1911    -0.7134     0.0091 C.ar    
   4 C4            -2.3915    -0.0292     0.0236 C.ar    
   5 C5            -2.4080     1.3446     0.0320 C.ar    
   6 C6            -1.2239     2.0589     0.0306 C.ar    
   7 C7            -3.6958    -0.7995     0.0298 C.3     
   8 C8            -4.3580    -0.6130     1.3986 C.3     
   9 N9            -5.1353     0.6150     1.4345 N.3     
  10 C10           -4.3875     1.8615     1.4148 C.3     
  11 C11           -3.7310     2.0824     0.0489 C.3     
  12 Br12           1.6078     2.3514    -0.0007 Br      
  13 C13           -3.4907     3.5772    -0.1721 C.3     
  14 O14            1.1879    -0.6681    -0.0128 O.3     
  15 C15            1.1319    -2.0960    -0.0199 C.3     
  16 C16           -6.0983     0.5962     2.5436 C.3     
  17 H17           -1.1813    -1.7933     0.0029 H       
  18 H18           -1.2416     3.1387     0.0367 H       
  19 H19           -4.3525    -0.4163    -0.7512 H       
  20 H20           -3.4984    -1.8576    -0.1418 H       
  21 H21           -5.0155    -1.4594     1.5970 H       
  22 H22           -3.5864    -0.5715     2.1674 H       
  23 H23           -5.0648     2.6892     1.6251 H       
  24 H24           -3.6146     1.8279     2.1827 H       
  25 H25           -4.3784     1.6937    -0.7371 H       
  26 H26           -2.8348     3.9593     0.6101 H       
  27 H27           -3.0235     3.7302    -1.1449 H       
  28 H28           -4.4427     4.1070    -0.1389 H       
  29 H29            0.6127    -2.4437     0.8732 H       
  30 H30            0.5958    -2.4341    -0.9067 H       
  31 H31            2.1445    -2.4993    -0.0317 H       
  32 H32           -5.5696     0.4233     3.4810 H       
  33 H33           -6.6172     1.5536     2.5905 H       
  34 H34           -6.8227    -0.2022     2.3824 H       
@<TRIPOS>BOND
   1    1    2 ar
   2    1   12 1
   3    1    6 ar
   4    2    3 ar
   5    2   14 1
   6    3    4 ar
   7    3   17 1
   8    4    5 ar
   9    4    7 1
  10    5    6 ar
  11    5   11 1
  12    6   18 1
  13    7    8 1
  14    7   19 1
  15    7   20 1
  16    8    9 1
  17    8   21 1
  18    8   22 1
  19    9   10 1
  20    9   16 1
  21   10   11 1
  22   10   23 1
  23   10   24 1
  24   11   13 1
  25   11   25 1
  26   13   26 1
  27   13   27 1
  28   13   28 1
  29   14   15 1
  30   15   29 1
  31   15   30 1
  32   15   31 1
  33   16   32 1
  34   16   33 1
  35   16   34 1

#	End of record

