#	Name: ASD03430343
#	Creating user name:	WinNT
#	Creation time:	15. 06. 2019 20:40

#	Modifying user name:	WinNT
#	Modification time:	15. 06. 2019 20:40

#	Program:	/corina/corina34_cracker 3.40 0067  02.08.2006

@<TRIPOS>MOLECULE
ASD03430343
  57   60    0    0    0
SMALL
NO_CHARGES


@<TRIPOS>ATOM
   1 C1            -0.0167     1.3778     0.0096 C.ar    
   2 C2             0.0021    -0.0041     0.0020 C.ar    
   3 C3             1.2027    -0.6814    -0.0134 C.ar    
   4 C4             2.4093     0.0137    -0.0102 C.ar    
   5 C5             2.3858     1.4047    -0.0075 C.ar    
   6 C6             1.1790     2.0825     0.0020 C.ar    
   7 O7             3.4712    -0.8404     0.0027 O.3     
   8 C8             1.5516    -2.1451    -0.0498 C.3     
   9 C9             3.0381    -2.1437    -0.4323 C.3     
  10 C10            0.4247    -3.8626     0.9995 C.ar    
  11 C11            1.3128    -2.8232     1.2664 C.ar    
  12 C12            0.7205    -2.9032    -1.0448 C.2     
  13 N13            0.0984    -3.8823    -0.3586 N.am    
  14 O14            0.6271    -2.6782    -2.2330 O.2     
  15 C15            1.7760    -2.6089     2.5449 C.ar    
  16 C16            1.3606    -3.4290     3.5794 C.ar    
  17 C17            0.4794    -4.4638     3.3258 C.ar    
  18 C18            0.0123    -4.6827     2.0463 C.ar    
  19 C19           -0.8136    -4.8545    -0.9664 C.3     
  20 O20            0.6836     6.0014    -1.2105 O.3     
  21 C21            0.0696     5.5957     0.0144 C.3     
  22 C22           -0.1150     4.0768     0.0138 C.3     
  23 O23            1.1649     3.4414     0.0038 O.3     
  24 C24           -2.2425    -4.3092    -0.9237 C.3     
  25 O25           -2.3319    -3.1426    -1.7442 O.3     
  26 C26           -3.6326    -2.5515    -1.7742 C.3     
  27 O27           -3.3463    -1.7171    -4.0242 O.3     
  28 C28           -3.6110    -1.3172    -2.6781 C.3     
  29 C29           -3.3046    -0.6335    -4.9549 C.3     
  30 C30            0.9021     7.4099    -1.3125 C.3     
  31 H31           -0.9580     1.9072     0.0169 H       
  32 H32           -0.9268    -0.5551     0.0085 H       
  33 H33            3.3132     1.9581    -0.0125 H       
  34 H34            3.1605    -2.2525    -1.5100 H       
  35 H35            3.5756    -2.9280     0.1005 H       
  36 H36            2.4646    -1.8003     2.7408 H       
  37 H37            1.7242    -3.2612     4.5824 H       
  38 H38            0.1555    -5.1039     4.1331 H       
  39 H39           -0.6757    -5.4931     1.8560 H       
  40 H40           -0.5218    -5.0282    -2.0021 H       
  41 H41           -0.7660    -5.7925    -0.4133 H       
  42 H42            0.7046     5.8841     0.8521 H       
  43 H43           -0.9021     6.0798     0.1116 H       
  44 H44           -0.6626     3.7770     0.9073 H       
  45 H45           -0.6753     3.7793    -0.8726 H       
  46 H46           -2.9321    -5.0677    -1.2942 H       
  47 H47           -2.5028    -4.0521     0.1031 H       
  48 H48           -4.3509    -3.2735    -2.1624 H       
  49 H49           -3.9216    -2.2579    -0.7651 H       
  50 H50           -4.5777    -0.8158    -2.6315 H       
  51 H51           -2.8308    -0.6342    -2.3418 H       
  52 H52           -4.2649    -0.1179    -4.9555 H       
  53 H53           -2.5181     0.0636    -4.6659 H       
  54 H54           -3.0989    -1.0198    -5.9532 H       
  55 H55           -0.0524     7.9316    -1.2429 H       
  56 H56            1.5544     7.7360    -0.5024 H       
  57 H57            1.3710     7.6364    -2.2701 H       
@<TRIPOS>BOND
   1    1    2 ar
   2    1    6 ar
   3    1   31 1
   4    2    3 ar
   5    2   32 1
   6    3    4 ar
   7    3    8 1
   8    4    5 ar
   9    4    7 1
  10    5    6 ar
  11    5   33 1
  12    6   23 1
  13    7    9 1
  14    8    9 1
  15    8   11 1
  16    8   12 1
  17    9   34 1
  18    9   35 1
  19   10   11 ar
  20   10   13 1
  21   10   18 ar
  22   11   15 ar
  23   12   13 am
  24   12   14 2
  25   13   19 1
  26   15   16 ar
  27   15   36 1
  28   16   17 ar
  29   16   37 1
  30   17   18 ar
  31   17   38 1
  32   18   39 1
  33   19   24 1
  34   19   40 1
  35   19   41 1
  36   20   21 1
  37   20   30 1
  38   21   22 1
  39   21   42 1
  40   21   43 1
  41   22   23 1
  42   22   44 1
  43   22   45 1
  44   24   25 1
  45   24   46 1
  46   24   47 1
  47   25   26 1
  48   26   28 1
  49   26   48 1
  50   26   49 1
  51   27   28 1
  52   27   29 1
  53   28   50 1
  54   28   51 1
  55   29   52 1
  56   29   53 1
  57   29   54 1
  58   30   55 1
  59   30   56 1
  60   30   57 1

#	End of record

