#	Name: ASD03092506
#	Creating user name:	WinNT
#	Creation time:	15. 06. 2019 20:32

#	Modifying user name:	WinNT
#	Modification time:	15. 06. 2019 20:32

#	Program:	/corina/corina34_cracker 3.40 0067  02.08.2006

@<TRIPOS>MOLECULE
ASD03092506
  36   38    0    0    0
SMALL
NO_CHARGES


@<TRIPOS>ATOM
   1 O1            -0.0162     1.3449     0.0094 O.3     
   2 C2             0.0021    -0.0041     0.0020 C.2     
   3 C3             1.3061    -0.4089    -0.0126 C.2     
   4 C4             2.0900     0.7554    -0.0138 C.2     
   5 C5             1.2410     1.8066    -0.0001 C.2     
   6 C6            -1.1727    -0.8819     0.0093 C.2     
   7 O7            -1.0294    -2.0904     0.0018 O.2     
   8 N8            -2.4111    -0.3503     0.0242 N.am    
   9 C9            -3.5847    -1.2272     0.0314 C.3     
  10 N10           -8.2657     1.8986    -0.1798 N.pl3   
  11 C11           -8.4192     1.9992    -1.5357 C.2     
  12 C12           -7.4304     1.3387    -2.1584 C.2     
  13 C13           -6.5735     0.7684    -1.1161 C.ar    
  14 C14           -5.4125    -0.0072    -1.1308 C.ar    
  15 C15           -4.8374    -0.3897     0.0480 C.ar    
  16 C16           -5.3982    -0.0135     1.2611 C.ar    
  17 C17           -6.5434     0.7511     1.2986 C.ar    
  18 C18           -7.1459     1.1519     0.1104 C.ar    
  19 C19           -9.5337     2.7412    -2.2275 C.3     
  20 C20            1.8066    -1.8303    -0.0246 C.3     
  21 H21            3.1690     0.8024    -0.0232 H       
  22 H22            1.5287     2.8475     0.0024 H       
  23 H23           -2.5254     0.6130     0.0302 H       
  24 H24           -3.5770    -1.8518    -0.8618 H       
  25 H25           -3.5594    -1.8607     0.9180 H       
  26 H26           -8.8556     2.2973     0.4789 H       
  27 H27           -7.2926     1.2454    -3.2256 H       
  28 H28           -4.9712    -0.3043    -2.0706 H       
  29 H29           -4.9320    -0.3236     2.1846 H       
  30 H30           -6.9722     1.0384     2.2473 H       
  31 H31           -9.2322     3.7751    -2.3957 H       
  32 H32           -9.7482     2.2650    -3.1842 H       
  33 H33          -10.4267     2.7202    -1.6029 H       
  34 H34            1.9173    -2.1678    -1.0551 H       
  35 H35            2.7716    -1.8799     0.4797 H       
  36 H36            1.0928    -2.4712     0.4930 H       
@<TRIPOS>BOND
   1    1    2 1
   2    1    5 1
   3    2    3 2
   4    2    6 1
   5    3    4 1
   6    3   20 1
   7    4    5 2
   8    4   21 1
   9    5   22 1
  10    6    7 2
  11    6    8 am
  12    8    9 1
  13    8   23 1
  14    9   15 1
  15    9   24 1
  16    9   25 1
  17   10   11 1
  18   10   18 1
  19   10   26 1
  20   11   12 2
  21   11   19 1
  22   12   13 1
  23   12   27 1
  24   13   14 ar
  25   13   18 ar
  26   14   15 ar
  27   14   28 1
  28   15   16 ar
  29   16   17 ar
  30   16   29 1
  31   17   18 ar
  32   17   30 1
  33   19   31 1
  34   19   32 1
  35   19   33 1
  36   20   34 1
  37   20   35 1
  38   20   36 1

#	End of record

