#	Name: ASD03090377
#	Creating user name:	WinNT
#	Creation time:	15. 06. 2019 20:28

#	Modifying user name:	WinNT
#	Modification time:	15. 06. 2019 20:28

#	Program:	/corina/corina34_cracker 3.40 0067  02.08.2006

@<TRIPOS>MOLECULE
ASD03090377
  45   47    0    0    0
SMALL
NO_CHARGES


@<TRIPOS>ATOM
   1 C1            -0.1782     1.2220     0.2317 C.2     
   2 C2            -0.2155    -0.2521     0.2584 C.ar    
   3 C3             0.9765    -0.9827     0.2830 C.ar    
   4 C4             0.9388    -2.3528     0.3083 C.ar    
   5 C5            -0.2855    -3.0173     0.3095 C.ar    
   6 C6            -1.4746    -2.2922     0.2850 C.ar    
   7 C7            -1.4431    -0.9218     0.2650 C.ar    
   8 O8             0.8899     1.8032     0.2311 O.2     
   9 N9            -1.3279     1.9247     0.2023 N.am    
  10 S10           -0.3301    -4.7785     0.3414 S.3     
  11 C11           -2.1073    -5.1419     0.3321 C.3     
  12 F12           -2.6859    -4.6104    -0.8254 F       
  13 F13           -2.3000    -6.5274     0.3558 F       
  14 F14           -2.7065    -4.5684     1.4586 F       
  15 C15           -1.2909     3.3890     0.1758 C.3     
  16 N16           -6.5844     5.4288     0.0084 N.3     
  17 C17           -7.3596     5.2541     1.2382 C.3     
  18 C18           -6.5620     5.8422     2.4089 C.3     
  19 C19           -5.3312     4.9600     2.6306 C.3     
  20 C20           -4.6555     4.6913     1.3095 C.ar    
  21 C21           -3.3612     4.1954     1.3266 C.ar    
  22 C22           -2.6984     3.9266     0.1458 C.ar    
  23 C23           -3.3282     4.1521    -1.0648 C.ar    
  24 C24           -4.6141     4.6470    -1.0897 C.ar    
  25 C25           -5.2884     4.9235     0.1012 C.ar    
  26 C26           -7.2912     4.8566    -1.1452 C.3     
  27 H27            1.9260    -0.4680     0.2818 H       
  28 H28            1.8591    -2.9176     0.3270 H       
  29 H29           -2.4224    -2.8100     0.2856 H       
  30 H30           -2.3654    -0.3600     0.2502 H       
  31 H31           -2.1799     1.4610     0.1988 H       
  32 H32           -0.7807     3.7558     1.0665 H       
  33 H33           -0.7554     3.7229    -0.7130 H       
  34 H34           -8.3128     5.7748     1.1468 H       
  35 H35           -7.5352     4.1924     1.4121 H       
  36 H36           -6.2490     6.8582     2.1683 H       
  37 H37           -7.1779     5.8487     3.3083 H       
  38 H38           -4.6351     5.4692     3.2972 H       
  39 H39           -5.6380     4.0156     3.0801 H       
  40 H40           -2.8676     4.0179     2.2707 H       
  41 H41           -2.8125     3.9407    -1.9898 H       
  42 H42           -5.1032     4.8226    -2.0365 H       
  43 H43           -8.3058     5.2532    -1.1829 H       
  44 H44           -6.7637     5.1204    -2.0619 H       
  45 H45           -7.3286     3.7717    -1.0469 H       
@<TRIPOS>BOND
   1    1    2 1
   2    1    8 2
   3    1    9 am
   4    2    3 ar
   5    2    7 ar
   6    3    4 ar
   7    3   27 1
   8    4    5 ar
   9    4   28 1
  10    5    6 ar
  11    5   10 1
  12    6    7 ar
  13    6   29 1
  14    7   30 1
  15    9   15 1
  16    9   31 1
  17   10   11 1
  18   11   12 1
  19   11   13 1
  20   11   14 1
  21   15   22 1
  22   15   32 1
  23   15   33 1
  24   16   17 1
  25   16   25 1
  26   16   26 1
  27   17   18 1
  28   17   34 1
  29   17   35 1
  30   18   19 1
  31   18   36 1
  32   18   37 1
  33   19   20 1
  34   19   38 1
  35   19   39 1
  36   20   21 ar
  37   20   25 ar
  38   21   22 ar
  39   21   40 1
  40   22   23 ar
  41   23   24 ar
  42   23   41 1
  43   24   25 ar
  44   24   42 1
  45   26   43 1
  46   26   44 1
  47   26   45 1

#	End of record

