#	Name: ASD02500269
#	Creating user name:	WinNT
#	Creation time:	15. 06. 2019 20:22

#	Modifying user name:	WinNT
#	Modification time:	15. 06. 2019 20:22

#	Program:	/corina/corina34_cracker 3.40 0067  02.08.2006

@<TRIPOS>MOLECULE
ASD02500269
  66   70    0    0    0
SMALL
NO_CHARGES


@<TRIPOS>ATOM
   1 N1            -3.0258     5.5569    -0.6415 N.ar    
   2 C2            -4.1227     6.1811    -0.9958 C.ar    
   3 C3            -5.3073     6.0485    -0.2744 C.ar    
   4 C4            -5.3451     5.2509     0.8336 C.ar    
   5 C5            -4.1654     4.5818     1.2109 C.ar    
   6 C6            -4.1275     3.7456     2.3379 C.ar    
   7 C7            -2.9666     3.1162     2.6701 C.ar    
   8 C8            -1.8147     3.2911     1.9064 C.ar    
   9 C9            -1.8158     4.0944     0.8076 C.ar    
  10 C10           -2.9949     4.7613     0.4324 C.ar    
  11 S11           -0.3446     4.2984    -0.1403 S.o2    
  12 O12           -0.1160     5.6980    -0.2301 O.2     
  13 O13            0.6067     3.3883     0.3946 O.2     
  14 N14           -0.6758     3.7790    -1.6774 N.am    
  15 C15           -0.9370     2.4318    -1.9162 C.ar    
  16 C16           -0.5032     1.8373    -3.1031 C.ar    
  17 C17           -0.7615     0.5028    -3.3404 C.ar    
  18 C18           -1.4578    -0.2515    -2.3906 C.ar    
  19 C19           -1.8893     0.3486    -1.2051 C.ar    
  20 C20           -1.6239     1.6799    -0.9703 C.ar    
  21 C21           -1.7366    -1.6785    -2.6404 C.2     
  22 O22           -2.1306    -2.0389    -3.7329 O.2     
  23 N23           -1.5547    -2.5827    -1.6577 N.am    
  24 C24           -1.6933    -4.0204    -1.9291 C.3     
  25 C25           -0.4021    -4.7272    -1.4985 C.3     
  26 N26           -0.0610    -4.2932    -0.1364 N.am    
  27 C27            0.0777    -2.8555     0.1350 C.3     
  28 C28           -1.2080    -2.1490    -0.2969 C.3     
  29 C29            0.6646    -4.7686     2.1563 C.ar    
  30 C30            0.7142    -5.6745     3.2134 C.ar    
  31 C31            1.2306    -5.2604     4.4310 C.ar    
  32 C32            1.6796    -3.9542     4.5490 C.ar    
  33 C33            1.5999    -3.1072     3.4553 C.ar    
  34 N34            1.1051    -3.5263     2.3111 N.ar    
  35 C35            0.1210    -5.1975     0.8463 C.2     
  36 O36           -0.1607    -6.3644     0.6579 O.2     
  37 C37            0.2130    -7.0846     3.0357 C.3     
  38 F38            0.3705    -7.7899     4.2336 F       
  39 F39           -1.1411    -7.0575     2.6851 F       
  40 F40            0.9443    -7.7153     2.0235 F       
  41 O41            0.1733     2.5737    -4.0251 O.3     
  42 C42            0.5869     1.9009    -5.2160 C.3     
  43 H43           -4.1076     6.8152    -1.8698 H       
  44 H44           -6.1948     6.5763    -0.5909 H       
  45 H45           -6.2547     5.1370     1.4047 H       
  46 H46           -5.0139     3.6027     2.9382 H       
  47 H47           -2.9384     2.4731     3.5374 H       
  48 H48           -0.9060     2.7814     2.1909 H       
  49 H49           -0.6879     4.4130    -2.4115 H       
  50 H50           -0.4270     0.0418    -4.2580 H       
  51 H51           -2.4271    -0.2324    -0.4705 H       
  52 H52           -1.9542     2.1413    -0.0514 H       
  53 H53           -2.5351    -4.4199    -1.3635 H       
  54 H54           -1.8582    -4.1773    -2.9950 H       
  55 H55           -0.5541    -5.8065    -1.5112 H       
  56 H56            0.4055    -4.4610    -2.1803 H       
  57 H57            0.2426    -2.6987     1.2009 H       
  58 H58            0.9195    -2.4560    -0.4306 H       
  59 H59           -1.0524    -1.0702    -0.2853 H       
  60 H60           -2.0145    -2.4122     0.3875 H       
  61 H61            1.2818    -5.9398     5.2690 H       
  62 H62            2.0873    -3.6001     5.4843 H       
  63 H63            1.9488    -2.0890     3.5437 H       
  64 H64           -0.2884     1.5124    -5.7366 H       
  65 H65            1.1142     2.6008    -5.8643 H       
  66 H66            1.2505     1.0763    -4.9557 H       
@<TRIPOS>BOND
   1    1    2 ar
   2    1   10 ar
   3    2    3 ar
   4    2   43 1
   5    3    4 ar
   6    3   44 1
   7    4    5 ar
   8    4   45 1
   9    5    6 ar
  10    5   10 ar
  11    6    7 ar
  12    6   46 1
  13    7    8 ar
  14    7   47 1
  15    8    9 ar
  16    8   48 1
  17    9   10 ar
  18    9   11 1
  19   11   12 2
  20   11   13 2
  21   11   14 am
  22   14   15 1
  23   14   49 1
  24   15   16 ar
  25   15   20 ar
  26   16   17 ar
  27   16   41 1
  28   17   18 ar
  29   17   50 1
  30   18   19 ar
  31   18   21 1
  32   19   20 ar
  33   19   51 1
  34   20   52 1
  35   21   22 2
  36   21   23 am
  37   23   24 1
  38   23   28 1
  39   24   25 1
  40   24   53 1
  41   24   54 1
  42   25   26 1
  43   25   55 1
  44   25   56 1
  45   26   27 1
  46   26   35 am
  47   27   28 1
  48   27   57 1
  49   27   58 1
  50   28   59 1
  51   28   60 1
  52   29   30 ar
  53   29   34 ar
  54   29   35 1
  55   30   31 ar
  56   30   37 1
  57   31   32 ar
  58   31   61 1
  59   32   33 ar
  60   32   62 1
  61   33   34 ar
  62   33   63 1
  63   35   36 2
  64   37   38 1
  65   37   39 1
  66   37   40 1
  67   41   42 1
  68   42   64 1
  69   42   65 1
  70   42   66 1

#	End of record

