#	Name: ASD03330797
#	Creating user name:	WinNT
#	Creation time:	15. 06. 2019 20:38

#	Modifying user name:	WinNT
#	Modification time:	15. 06. 2019 20:38

#	Program:	/corina/corina34_cracker 3.40 0067  02.08.2006

@<TRIPOS>MOLECULE
ASD03330797
  60   62    0    0    0
SMALL
NO_CHARGES


@<TRIPOS>ATOM
   1 C1             0.1033     1.1109     0.6808 C.2     
   2 N2             0.3199    -0.2277     0.7788 N.pl3   
   3 C3             1.3163     1.7213     0.7841 C.2     
   4 N4             2.2523     0.7573     0.9251 N.2     
   5 C5             1.6640    -0.4159     0.9172 C.2     
   6 C6             2.3445    -1.7237     1.0389 C.ar    
   7 C7             1.5638     3.1735     0.7478 C.2     
   8 O8             0.6336     3.9457     0.6149 O.2     
   9 C9             3.0669     5.0897     0.8257 C.3     
  10 N10            2.8209     3.6459     0.8618 N.am    
  11 C11            4.4986     5.3514     0.3539 C.3     
  12 C12            2.8795     5.6659     2.2056 C.2     
  13 O13            2.5708     4.9418     3.1283 O.2     
  14 C14           -0.7191    -1.2608     0.7527 C.3     
  15 C15           -1.6758    -0.9818    -0.4108 C.3     
  16 C16           -2.7841    -0.0394     0.0475 C.3     
  17 N17           -2.2871     0.9150     1.0405 N.3     
  18 C18           -1.2345     1.7733     0.4768 C.3     
  19 C19            3.6445    -1.8838     0.5574 C.ar    
  20 C20            4.2747    -3.1060     0.6734 C.ar    
  21 C21           -3.3847     1.7210     1.5914 C.3     
  22 N22            3.0549     6.9858     2.4142 N.am    
  23 C23            3.6176    -4.1737     1.2670 C.ar    
  24 C24            4.6427     4.9138    -1.1051 C.3     
  25 C25            1.6909    -2.7994     1.6405 C.ar    
  26 C26            2.3269    -4.0190     1.7458 C.ar    
  27 C27            3.5834     5.6176    -1.9557 C.3     
  28 C28            6.0363     5.2874    -1.6143 C.3     
  29 C29            4.4526     3.3989    -1.2044 C.3     
  30 F30            4.2383    -5.3686     1.3781 F       
  31 Cl31           5.8919    -3.3076     0.0752 Cl      
  32 H32            2.3655     5.5607     0.1370 H       
  33 H33            3.5627     3.0300     0.9678 H       
  34 H34            4.7199     6.4154     0.4376 H       
  35 H35            5.1944     4.7857     0.9733 H       
  36 H36           -0.2571    -2.2388     0.6179 H       
  37 H37           -1.2727    -1.2446     1.6915 H       
  38 H38           -1.1247    -0.5215    -1.2308 H       
  39 H39           -2.1151    -1.9194    -0.7516 H       
  40 H40           -3.1673     0.5076    -0.8138 H       
  41 H41           -3.5921    -0.6244     0.4869 H       
  42 H42           -1.2434     2.7396     0.9809 H       
  43 H43           -1.4121     1.9153    -0.5892 H       
  44 H44            4.1562    -1.0529     0.0945 H       
  45 H45           -4.1121     1.0655     2.0702 H       
  46 H46           -2.9878     2.4215     2.3262 H       
  47 H47           -3.8687     2.2742     0.7866 H       
  48 H48            3.3018     7.5649     1.6763 H       
  49 H49            2.9343     7.3566     3.3024 H       
  50 H50            0.6865    -2.6788     2.0189 H       
  51 H51            1.8214    -4.8521     2.2114 H       
  52 H52            3.7188     6.6968    -1.8850 H       
  53 H53            3.6861     5.3058    -2.9951 H       
  54 H54            2.5906     5.3514    -1.5929 H       
  55 H55            6.7910     4.7861    -1.0083 H       
  56 H56            6.1390     4.9757    -2.6537 H       
  57 H57            6.1717     6.3667    -1.5436 H       
  58 H58            3.4154     3.1476    -0.9828 H       
  59 H59            4.6995     3.0671    -2.2129 H       
  60 H60            5.1076     2.9029    -0.4881 H       
@<TRIPOS>BOND
   1    1    2 1
   2    1    3 2
   3    1   18 1
   4    2   14 1
   5    2    5 1
   6    3    4 1
   7    3    7 1
   8    4    5 2
   9    5    6 1
  10    6   25 ar
  11    6   19 ar
  12    7    8 2
  13    7   10 am
  14    9   10 1
  15    9   11 1
  16    9   12 1
  17    9   32 1
  18   10   33 1
  19   11   24 1
  20   11   34 1
  21   11   35 1
  22   12   13 2
  23   12   22 am
  24   14   15 1
  25   14   36 1
  26   14   37 1
  27   15   16 1
  28   15   38 1
  29   15   39 1
  30   16   17 1
  31   16   40 1
  32   16   41 1
  33   17   18 1
  34   17   21 1
  35   18   42 1
  36   18   43 1
  37   19   20 ar
  38   19   44 1
  39   20   31 1
  40   20   23 ar
  41   21   45 1
  42   21   46 1
  43   21   47 1
  44   22   48 1
  45   22   49 1
  46   23   30 1
  47   23   26 ar
  48   24   27 1
  49   24   28 1
  50   24   29 1
  51   25   26 ar
  52   25   50 1
  53   26   51 1
  54   27   52 1
  55   27   53 1
  56   27   54 1
  57   28   55 1
  58   28   56 1
  59   28   57 1
  60   29   58 1
  61   29   59 1
  62   29   60 1

#	End of record

