#	Name: ASD01411163
#	Creating user name:	WinNT
#	Creation time:	15. 06. 2019 19:19

#	Modifying user name:	WinNT
#	Modification time:	15. 06. 2019 19:19

#	Program:	/corina/corina34_cracker 3.40 0067  02.08.2006

@<TRIPOS>MOLECULE
ASD01411163
  50   52    0    0    0
SMALL
NO_CHARGES


@<TRIPOS>ATOM
   1 C1            -0.0451     1.3079    -0.2027 C.ar    
   2 C2             0.0372    -0.0318    -0.5151 C.ar    
   3 C3             1.2677    -0.6906    -0.4491 C.ar    
   4 C4             2.4142     0.0184    -0.0646 C.ar    
   5 C5             2.3142     1.3724     0.2475 C.ar    
   6 C6             1.0870     2.0095     0.1772 C.ar    
   7 O7             3.4212     2.0678     0.6217 O.3     
   8 C8             3.2450     3.4525     0.9273 C.3     
   9 C9             4.5705     4.0532     1.3188 C.ar    
  10 N10            3.6471    -0.6276     0.0054 N.am    
  11 C11            4.7670     0.0135    -0.3836 C.2     
  12 C12            6.0791    -0.6578    -0.2732 C.ar    
  13 O13            4.6979     1.1440    -0.8252 O.2     
  14 C14            7.0027     5.1550     2.0372 C.ar    
  15 C15            6.1845     4.5952     3.0022 C.ar    
  16 C16            4.9692     4.0440     2.6425 C.ar    
  17 C17            5.3897     4.6081     0.3534 C.ar    
  18 C18            6.6057     5.1588     0.7119 C.ar    
  19 C19            7.2410     0.0034    -0.6752 C.ar    
  20 C20            8.4625    -0.6290    -0.5695 C.ar    
  21 C21            8.5375    -1.9159    -0.0668 C.ar    
  22 C22            7.3898    -2.5769     0.3334 C.ar    
  23 C23            6.1627    -1.9538     0.2389 C.ar    
  24 Cl24           8.5291     5.8479     2.4884 Cl      
  25 C25            1.3596    -2.1248    -0.7817 C.2     
  26 O26            2.4455    -2.6701    -0.8270 O.2     
  27 N27            0.2400    -2.8309    -1.0355 N.am    
  28 S28            0.3432    -4.4409    -1.4089 S.o2    
  29 O29           -1.0033    -4.8357    -1.6330 O.2     
  30 O30            1.3065    -4.4977    -2.4520 O.2     
  31 C31            0.9909    -5.2146     0.0985 C.3     
  32 H32           -0.9972     1.8148    -0.2588 H       
  33 H33           -0.8496    -0.5727    -0.8106 H       
  34 H34            1.0122     3.0592     0.4200 H       
  35 H35            2.8556     3.9712     0.0512 H       
  36 H36            2.5412     3.5557     1.7532 H       
  37 H37            3.6993    -1.5388     0.3341 H       
  38 H38            6.4939     4.5919     4.0370 H       
  39 H39            4.3307     3.6064     3.3956 H       
  40 H40            5.0796     4.6111    -0.6811 H       
  41 H41            7.2439     5.5956    -0.0419 H       
  42 H42            7.1837     1.0077    -1.0683 H       
  43 H43            9.3621    -0.1185    -0.8801 H       
  44 H44            9.4962    -2.4067     0.0131 H       
  45 H45            7.4553    -3.5814     0.7249 H       
  46 H46            5.2681    -2.4691     0.5562 H       
  47 H47           -0.6263    -2.3959    -0.9994 H       
  48 H48            0.3039    -5.0318     0.9248 H       
  49 H49            1.0923    -6.2884    -0.0589 H       
  50 H50            1.9658    -4.7886     0.3355 H       
@<TRIPOS>BOND
   1    1    2 ar
   2    1    6 ar
   3    1   32 1
   4    2    3 ar
   5    2   33 1
   6    3    4 ar
   7    3   25 1
   8    4    5 ar
   9    4   10 1
  10    5    6 ar
  11    5    7 1
  12    6   34 1
  13    7    8 1
  14    8    9 1
  15    8   35 1
  16    8   36 1
  17    9   17 ar
  18    9   16 ar
  19   10   11 am
  20   10   37 1
  21   11   12 1
  22   11   13 2
  23   12   19 ar
  24   12   23 ar
  25   14   15 ar
  26   14   18 ar
  27   14   24 1
  28   15   16 ar
  29   15   38 1
  30   16   39 1
  31   17   18 ar
  32   17   40 1
  33   18   41 1
  34   19   20 ar
  35   19   42 1
  36   20   21 ar
  37   20   43 1
  38   21   22 ar
  39   21   44 1
  40   22   23 ar
  41   22   45 1
  42   23   46 1
  43   25   26 2
  44   25   27 am
  45   27   28 am
  46   27   47 1
  47   28   29 2
  48   28   30 2
  49   28   31 1
  50   31   48 1
  51   31   49 1
  52   31   50 1

#	End of record

