#	Name: ASD04882034
#	Creating user name:	WinNT
#	Creation time:	15. 06. 2019 20:53

#	Modifying user name:	WinNT
#	Modification time:	15. 06. 2019 20:53

#	Program:	/corina/corina34_cracker 3.40 0067  02.08.2006

@<TRIPOS>MOLECULE
ASD04882034
  77   81    0    0    0
SMALL
NO_CHARGES


@<TRIPOS>ATOM
   1 C1             1.5172     1.4363     1.7945 C.ar    
   2 C2             1.4795     0.0561     1.8136 C.ar    
   3 C3             2.6605    -0.6681     1.9184 C.ar    
   4 C4             3.8755    -0.0007     2.0035 C.ar    
   5 C5             3.9061     1.3801     1.9838 C.ar    
   6 C6             2.7289     2.0978     1.8795 C.ar    
   7 C7             5.1591    -0.7820     2.1178 C.3     
   8 N8             2.6260    -2.0643     1.9385 N.3     
   9 C9             3.2416    -2.6238     0.7270 C.3     
  10 C10            3.2555    -4.1512     0.8240 C.3     
  11 N11            1.8798    -4.6417     0.9868 N.3     
  12 C12            1.2642    -4.0821     2.1982 C.3     
  13 C13            1.2503    -2.5548     2.1013 C.3     
  14 C14            1.8454    -6.0335     1.0068 C.ar    
  15 C15            2.1829    -6.7566    -0.1406 C.ar    
  16 C16            2.1486    -8.1381    -0.1204 C.ar    
  17 C17            1.7762    -8.8078     1.0485 C.ar    
  18 C18            1.4398    -8.0786     2.1925 C.ar    
  19 C19            1.4807    -6.7022     2.1699 C.ar    
  20 C20            1.7377   -10.2824     1.0746 C.2     
  21 N21            1.3784   -10.9273     2.2022 N.am    
  22 O22            2.0301   -10.9160     0.0788 O.2     
  23 C23            1.3402   -12.3915     2.2282 C.3     
  24 C24            0.9046   -12.8658     3.6160 C.3     
  25 C25            0.8647   -14.3951     3.6431 C.3     
  26 N26            0.4476   -14.8492     4.9720 N.am    
  27 C27           -0.9463   -15.0820     5.3679 C.3     
  28 C28           -0.9364   -15.1134     6.9124 C.3     
  29 C29            0.5187   -15.5438     7.2096 C.3     
  30 C30            1.2928   -15.1117     5.9837 C.2     
  31 O31            2.4999   -15.0099     5.9246 O.2     
  32 N32            2.5553    -6.0815    -1.3104 N.am    
  33 C33            3.3605    -6.6831    -2.2084 C.2     
  34 O34            3.7000    -7.8386    -2.0422 O.2     
  35 C35            3.8306    -5.9382    -3.3947 C.ar    
  36 C36            4.6648    -6.5587    -4.3267 C.ar    
  37 C37            3.4377    -4.6129    -3.5913 C.ar    
  38 C38            3.8793    -3.9231    -4.7006 C.ar    
  39 C39            4.7106    -4.5425    -5.6192 C.ar    
  40 C40            5.0999    -5.8586    -5.4321 C.ar    
  41 Cl41           5.2620    -3.6678    -7.0136 Cl      
  42 H42            0.5999     1.9998     1.7085 H       
  43 H43            0.5330    -0.4598     1.7476 H       
  44 H44            4.8505     1.8997     2.0500 H       
  45 H45            2.7556     3.1773     1.8639 H       
  46 H46            5.5090    -1.0537     1.1218 H       
  47 H47            5.9133    -0.1712     2.6138 H       
  48 H48            4.9833    -1.6864     2.7003 H       
  49 H49            2.6655    -2.3202    -0.1471 H       
  50 H50            4.2635    -2.2559     0.6353 H       
  51 H51            3.6853    -4.5694    -0.0862 H       
  52 H52            3.8541    -4.4557     1.6825 H       
  53 H53            0.2423    -4.4500     2.2900 H       
  54 H54            1.8402    -4.3858     3.0724 H       
  55 H55            0.8204    -2.1365     3.0115 H       
  56 H56            0.6516    -2.2503     1.2428 H       
  57 H57            2.4087    -8.6990    -1.0060 H       
  58 H58            1.1519    -8.5951     3.0962 H       
  59 H59            1.2207    -6.1409     3.0551 H       
  60 H60            1.1452   -10.4218     2.9966 H       
  61 H61            0.6305   -12.7497     1.4825 H       
  62 H62            2.3318   -12.7849     2.0044 H       
  63 H63            1.6143   -12.5076     4.3617 H       
  64 H64           -0.0870   -12.4724     3.8398 H       
  65 H65            0.1549   -14.7532     2.8974 H       
  66 H66            1.8563   -14.7884     3.4194 H       
  67 H67           -1.5803   -14.2702     5.0112 H       
  68 H68           -1.2962   -16.0360     4.9735 H       
  69 H69           -1.1428   -14.1254     7.3240 H       
  70 H70           -1.6460   -15.8485     7.2921 H       
  71 H71            0.8926   -15.0363     8.0988 H       
  72 H72            0.5791   -16.6252     7.3327 H       
  73 H73            2.2336    -5.1812    -1.4741 H       
  74 H74            4.9690    -7.5848    -4.1819 H       
  75 H75            2.7889    -4.1291    -2.8761 H       
  76 H76            3.5760    -2.8979    -4.8537 H       
  77 H77            5.7485    -6.3362    -6.1515 H       
@<TRIPOS>BOND
   1    1    2 ar
   2    1    6 ar
   3    1   42 1
   4    2    3 ar
   5    2   43 1
   6    3    4 ar
   7    3    8 1
   8    4    5 ar
   9    4    7 1
  10    5    6 ar
  11    5   44 1
  12    6   45 1
  13    7   46 1
  14    7   47 1
  15    7   48 1
  16    8    9 1
  17    8   13 1
  18    9   10 1
  19    9   49 1
  20    9   50 1
  21   10   11 1
  22   10   51 1
  23   10   52 1
  24   11   12 1
  25   11   14 1
  26   12   13 1
  27   12   53 1
  28   12   54 1
  29   13   55 1
  30   13   56 1
  31   14   15 ar
  32   14   19 ar
  33   15   16 ar
  34   15   32 1
  35   16   17 ar
  36   16   57 1
  37   17   18 ar
  38   17   20 1
  39   18   19 ar
  40   18   58 1
  41   19   59 1
  42   20   21 am
  43   20   22 2
  44   21   23 1
  45   21   60 1
  46   23   24 1
  47   23   61 1
  48   23   62 1
  49   24   25 1
  50   24   63 1
  51   24   64 1
  52   25   26 1
  53   25   65 1
  54   25   66 1
  55   26   27 1
  56   26   30 am
  57   27   28 1
  58   27   67 1
  59   27   68 1
  60   28   29 1
  61   28   69 1
  62   28   70 1
  63   29   30 1
  64   29   71 1
  65   29   72 1
  66   30   31 2
  67   32   33 am
  68   32   73 1
  69   33   34 2
  70   33   35 1
  71   35   36 ar
  72   35   37 ar
  73   36   40 ar
  74   36   74 1
  75   37   38 ar
  76   37   75 1
  77   38   39 ar
  78   38   76 1
  79   39   40 ar
  80   39   41 1
  81   40   77 1

#	End of record

