#	Name: ASD01900707
#	Creating user name:	WinNT
#	Creation time:	15. 06. 2019 19:52

#	Modifying user name:	WinNT
#	Modification time:	15. 06. 2019 19:52

#	Program:	/corina/corina34_cracker 3.40 0067  02.08.2006

@<TRIPOS>MOLECULE
ASD01900707
  54   58    0    0    0
SMALL
NO_CHARGES


@<TRIPOS>ATOM
   1 C1            -1.3257     2.1755    -0.5593 C.ar    
   2 C2            -1.3782     0.7950    -0.4122 C.ar    
   3 C3            -2.5727     0.1180    -0.5513 C.ar    
   4 C4            -3.7381     0.8151    -0.8408 C.ar    
   5 C5            -3.6822     2.2071    -0.9927 C.ar    
   6 O6            -4.9142     0.1625    -0.9677 O.3     
   7 C7            -5.9883     0.7438    -1.5299 C.2     
   8 C8            -6.0794     2.0839    -1.7252 C.2     
   9 C9            -4.9415     2.9254    -1.3155 C.2     
  10 C10           -7.1121    -0.1087    -1.9516 C.2     
  11 N11           -8.2092     0.4476    -2.5216 N.2     
  12 C12           -9.2218    -0.2681    -2.9075 C.2     
  13 N13           -9.2345    -1.6277    -2.7583 N.pl3   
  14 C14           -8.1452    -2.2586    -2.1835 C.2     
  15 C15           -7.0474    -1.4802    -1.7717 C.2     
  16 C16           -2.4804     2.8862    -0.8445 C.ar    
  17 C17          -10.1567    -2.5781    -3.0757 C.2     
  18 C18           -9.6792    -3.7947    -2.7165 C.2     
  19 C19           -8.4128    -3.6145    -2.1524 C.2     
  20 O20           -0.1422     2.8297    -0.4180 O.3     
  21 C21            1.0068     2.0347    -0.1184 C.3     
  22 C22            2.2351     2.9389     0.0028 C.3     
  23 N23            2.0650     3.8455     1.1461 N.3     
  24 C24            3.2607     4.6749     1.3425 C.3     
  25 C25            2.9945     5.7033     2.4442 C.3     
  26 C26            2.6382     4.9730     3.7420 C.3     
  27 C27            1.4191     4.0794     3.4974 C.3     
  28 C28            1.7310     3.0981     2.3652 C.3     
  29 N29           -5.0352     4.2318    -1.2399 N.2     
  30 O30           -3.9543     4.9908    -0.7295 O.3     
  31 H31           -0.4755     0.2464    -0.1871 H       
  32 H32           -2.6010    -0.9554    -0.4351 H       
  33 H33           -6.9615     2.5212    -2.1691 H       
  34 H34          -10.0736     0.2215    -3.3562 H       
  35 H35           -6.1807    -1.9396    -1.3198 H       
  36 H36           -2.4442     3.9595    -0.9594 H       
  37 H37          -11.1146    -2.3924    -3.5388 H       
  38 H38          -10.1882    -4.7387    -2.8439 H       
  39 H39           -7.7662    -4.3880    -1.7653 H       
  40 H40            0.8490     1.5082     0.8229 H       
  41 H41            1.1661     1.3106    -0.9174 H       
  42 H42            3.1238     2.3262     0.1541 H       
  43 H43            2.3478     3.5231    -0.9105 H       
  44 H44            4.0988     4.0410     1.6322 H       
  45 H45            3.5008     5.1919     0.4134 H       
  46 H46            3.8875     6.3085     2.6005 H       
  47 H47            2.1654     6.3464     2.1490 H       
  48 H48            3.4819     4.3597     4.0583 H       
  49 H49            2.4055     5.7021     4.5181 H       
  50 H50            1.1865     3.5244     4.4062 H       
  51 H51            0.5652     4.6969     3.2188 H       
  52 H52            0.8600     2.4698     2.1789 H       
  53 H53            2.5763     2.4716     2.6501 H       
  54 H54           -4.1162     5.9440    -0.7127 H       
@<TRIPOS>BOND
   1    1    2 ar
   2    1   20 1
   3    1   16 ar
   4    2    3 ar
   5    2   31 1
   6    3    4 ar
   7    3   32 1
   8    4    5 ar
   9    4    6 1
  10    5   16 ar
  11    5    9 1
  12    6    7 1
  13    7    8 2
  14    7   10 1
  15    8    9 1
  16    8   33 1
  17    9   29 2
  18   10   11 1
  19   10   15 2
  20   11   12 2
  21   12   13 1
  22   12   34 1
  23   13   14 1
  24   13   17 1
  25   14   15 1
  26   14   19 2
  27   15   35 1
  28   16   36 1
  29   17   18 2
  30   17   37 1
  31   18   19 1
  32   18   38 1
  33   19   39 1
  34   20   21 1
  35   21   22 1
  36   21   40 1
  37   21   41 1
  38   22   23 1
  39   22   42 1
  40   22   43 1
  41   23   24 1
  42   23   28 1
  43   24   25 1
  44   24   44 1
  45   24   45 1
  46   25   26 1
  47   25   46 1
  48   25   47 1
  49   26   27 1
  50   26   48 1
  51   26   49 1
  52   27   28 1
  53   27   50 1
  54   27   51 1
  55   28   52 1
  56   28   53 1
  57   29   30 1
  58   30   54 1

#	End of record

