#	Name: ASD02198298
#	Creating user name:	WinNT
#	Creation time:	15. 06. 2019 20:19

#	Modifying user name:	WinNT
#	Modification time:	15. 06. 2019 20:19

#	Program:	/corina/corina34_cracker 3.40 0067  02.08.2006

@<TRIPOS>MOLECULE
ASD02198298
  34   36    0    0    0
SMALL
NO_CHARGES


@<TRIPOS>ATOM
   1 C1             0.4907     1.5616     0.0826 C.2     
   2 C2             0.6447     0.1884     0.1457 C.2     
   3 S3             2.0774     2.2894     0.3202 S.3     
   4 C4             2.7826     0.7411     0.4777 C.2     
   5 N5             1.8827    -0.1922     0.3574 N.2     
   6 N6            -0.4078    -0.7006    -0.0006 N.pl3   
   7 C7            -0.7152     2.2526    -0.1377 C.2     
   8 C8            -0.7505     3.7291    -0.0401 C.ar    
   9 O9            -1.7309     1.6350    -0.4091 O.2     
  10 N10            4.1218     0.5114     0.7021 N.pl3   
  11 C11            4.5783    -0.7890     0.9361 C.ar    
  12 C12            5.8819    -1.1388     0.6079 C.ar    
  13 C13           -1.6790     4.4584    -0.7838 C.ar    
  14 C14            0.1406     4.3972     0.8004 C.ar    
  15 C15            0.1026     5.7736     0.8869 C.ar    
  16 C16           -0.8169     6.4913     0.1429 C.ar    
  17 C17           -1.7068     5.8344    -0.6884 C.ar    
  18 C18            6.3298    -2.4242     0.8409 C.ar    
  19 C19            5.4819    -3.3628     1.4000 C.ar    
  20 C20            4.1833    -3.0180     1.7275 C.ar    
  21 C21            3.7310    -1.7327     1.5029 C.ar    
  22 H22           -1.3057    -0.3678    -0.1557 H       
  23 H23           -0.2469    -1.6557     0.0520 H       
  24 H24            4.7484     1.2518     0.6976 H       
  25 H25            6.5444    -0.4065     0.1706 H       
  26 H26           -2.3741     3.9468    -1.4330 H       
  27 H27            0.8584     3.8380     1.3823 H       
  28 H28            0.7918     6.2919     1.5371 H       
  29 H29           -0.8432     7.5686     0.2146 H       
  30 H30           -2.4219     6.4003    -1.2670 H       
  31 H31            7.3432    -2.6969     0.5859 H       
  32 H32            5.8345    -4.3675     1.5808 H       
  33 H33            3.5235    -3.7536     2.1633 H       
  34 H34            2.7167    -1.4640     1.7589 H       
@<TRIPOS>BOND
   1    1    2 2
   2    1    3 1
   3    1    7 1
   4    2    6 1
   5    2    5 1
   6    3    4 1
   7    4    5 2
   8    4   10 1
   9    6   22 1
  10    6   23 1
  11    7    8 1
  12    7    9 2
  13    8   13 ar
  14    8   14 ar
  15   10   11 1
  16   10   24 1
  17   11   12 ar
  18   11   21 ar
  19   12   18 ar
  20   12   25 1
  21   13   17 ar
  22   13   26 1
  23   14   15 ar
  24   14   27 1
  25   15   16 ar
  26   15   28 1
  27   16   17 ar
  28   16   29 1
  29   17   30 1
  30   18   19 ar
  31   18   31 1
  32   19   20 ar
  33   19   32 1
  34   20   21 ar
  35   20   33 1
  36   21   34 1

#	End of record

