#	Name: ASD06170112
#	Creating user name:	WinNT
#	Creation time:	15. 06. 2019 21:05

#	Modifying user name:	WinNT
#	Modification time:	15. 06. 2019 21:05

#	Program:	/corina/corina34_cracker 3.40 0067  02.08.2006

@<TRIPOS>MOLECULE
ASD06170112
  71   75    0    0    0
SMALL
NO_CHARGES


@<TRIPOS>ATOM
   1 N1            -0.1027     1.3678    -0.3827 N.pl3   
   2 N2            -0.0407     0.0115    -0.0490 N.am    
   3 C3             1.2442    -0.3090     0.2094 C.2     
   4 C4             2.0276     0.9230     0.0251 C.2     
   5 C5             1.1301     1.9081    -0.3378 C.2     
   6 C6             3.4778     1.0751     0.1937 C.2     
   7 O7             4.0016     2.1578     0.0089 O.2     
   8 N8             4.2292     0.0155     0.5533 N.am    
   9 C9            -1.1284    -0.8659     0.0077 C.ar    
  10 C10           -2.0815    -0.8591    -1.0025 C.ar    
  11 C11           -3.1541    -1.7272    -0.9436 C.ar    
  12 C12           -3.2797    -2.6024     0.1196 C.ar    
  13 C13           -2.3327    -2.6113     1.1273 C.ar    
  14 C14           -1.2547    -1.7498     1.0715 C.ar    
  15 O15            1.6712    -1.4019     0.5319 O.2     
  16 C16            1.4726     3.3454    -0.6341 C.3     
  17 C17           -1.3263     2.0922    -0.7350 C.3     
  18 C18           -1.9542     2.6786     0.5310 C.3     
  19 C19           -3.2949     3.3278     0.1816 C.3     
  20 O20           -1.0786     3.6626     1.0852 O.3     
  21 C21            5.6260     0.1149     0.5515 C.ar    
  22 C22            6.2350     1.3464     0.7555 C.ar    
  23 C23            7.6137     1.4434     0.7536 C.ar    
  24 C24            8.3894     0.3088     0.5476 C.ar    
  25 C25            7.7803    -0.9200     0.3437 C.ar    
  26 C26            6.4024    -1.0186     0.3516 C.ar    
  27 F27            8.2072     2.6409     0.9514 F       
  28 O28            9.7460     0.4038     0.5456 O.3     
  29 N29           11.6318     0.9644     4.1706 N.ar    
  30 C30           10.3212     0.9602     4.1020 C.ar    
  31 C31            9.6512     0.7746     2.8995 C.ar    
  32 C32           10.3729     0.5878     1.7336 C.ar    
  33 C33           11.7834     0.5942     1.8194 C.ar    
  34 C34           12.5825     0.4117     0.6809 C.ar    
  35 C35           13.9422     0.4242     0.8009 C.ar    
  36 C36           14.5479     0.6177     2.0506 C.ar    
  37 C37           13.7939     0.7972     3.1743 C.ar    
  38 C38           12.3922     0.7897     3.0831 C.ar    
  39 O39           15.9035     0.6262     2.1444 O.3     
  40 C40           16.4626     0.8277     3.4440 C.3     
  41 O41           14.7169     0.2469    -0.3024 O.3     
  42 C42           14.0402     0.0543    -1.5462 C.3     
  43 H43            3.8024    -0.8159     0.8132 H       
  44 H44           -1.9841    -0.1756    -1.8329 H       
  45 H45           -3.8958    -1.7222    -1.7287 H       
  46 H46           -4.1194    -3.2802     0.1633 H       
  47 H47           -2.4339    -3.2958     1.9565 H       
  48 H48           -0.5131    -1.7604     1.8566 H       
  49 H49            1.4151     3.9294     0.2845 H       
  50 H50            2.4834     3.4022    -1.0380 H       
  51 H51            0.7671     3.7442    -1.3630 H       
  52 H52           -1.0845     2.8984    -1.4276 H       
  53 H53           -2.0311     1.4073    -1.2065 H       
  54 H54           -2.1144     1.8834     1.2590 H       
  55 H55           -3.9628     2.5773    -0.2411 H       
  56 H56           -3.7423     3.7456     1.0835 H       
  57 H57           -3.1348     4.1231    -0.5464 H       
  58 H58           -0.8914     4.4020     0.4908 H       
  59 H59            5.6315     2.2277     0.9151 H       
  60 H60            8.3835    -1.8013     0.1830 H       
  61 H61            5.9289    -1.9770     0.1979 H       
  62 H62            9.7477     1.1051     5.0057 H       
  63 H63            8.5715     0.7754     2.8746 H       
  64 H64           12.1243     0.2617    -0.2855 H       
  65 H65           14.2736     0.9451     4.1306 H       
  66 H66           16.1359     1.7914     3.8346 H       
  67 H67           16.1278     0.0330     4.1108 H       
  68 H68           17.5505     0.8123     3.3779 H       
  69 H69           14.7733    -0.0745    -2.3426 H       
  70 H70           13.4115    -0.8340    -1.4840 H       
  71 H71           13.4197     0.9243    -1.7608 H       
@<TRIPOS>BOND
   1    1    2 1
   2    1    5 1
   3    1   17 1
   4    2    3 am
   5    2    9 1
   6    3    4 1
   7    3   15 2
   8    4    5 2
   9    4    6 1
  10    5   16 1
  11    6    7 2
  12    6    8 am
  13    8   21 1
  14    8   43 1
  15    9   10 ar
  16    9   14 ar
  17   10   11 ar
  18   10   44 1
  19   11   12 ar
  20   11   45 1
  21   12   13 ar
  22   12   46 1
  23   13   14 ar
  24   13   47 1
  25   14   48 1
  26   16   49 1
  27   16   50 1
  28   16   51 1
  29   17   18 1
  30   17   52 1
  31   17   53 1
  32   18   19 1
  33   18   20 1
  34   18   54 1
  35   19   55 1
  36   19   56 1
  37   19   57 1
  38   20   58 1
  39   21   22 ar
  40   21   26 ar
  41   22   23 ar
  42   22   59 1
  43   23   24 ar
  44   23   27 1
  45   24   25 ar
  46   24   28 1
  47   25   26 ar
  48   25   60 1
  49   26   61 1
  50   28   32 1
  51   29   30 ar
  52   29   38 ar
  53   30   31 ar
  54   30   62 1
  55   31   32 ar
  56   31   63 1
  57   32   33 ar
  58   33   34 ar
  59   33   38 ar
  60   34   35 ar
  61   34   64 1
  62   35   36 ar
  63   35   41 1
  64   36   37 ar
  65   36   39 1
  66   37   38 ar
  67   37   65 1
  68   39   40 1
  69   40   66 1
  70   40   67 1
  71   40   68 1
  72   41   42 1
  73   42   69 1
  74   42   70 1
  75   42   71 1

#	End of record

