#	Name: ASD01917230
#	Creating user name:	WinNT
#	Creation time:	15. 06. 2019 20:08

#	Modifying user name:	WinNT
#	Modification time:	15. 06. 2019 20:08

#	Program:	/corina/corina34_cracker 3.40 0067  02.08.2006

@<TRIPOS>MOLECULE
ASD01917230
  45   48    0    0    0
SMALL
NO_CHARGES


@<TRIPOS>ATOM
   1 C1             0.1524     0.6923    -0.4946 C.ar    
   2 C2             0.3207    -0.6714    -0.3034 C.ar    
   3 C3             1.5904    -1.1881    -0.0901 C.ar    
   4 C4             2.6837    -0.3439    -0.0687 C.ar    
   5 C5             2.5133     1.0149    -0.2592 C.ar    
   6 C6             1.2489     1.5323    -0.4723 C.ar    
   7 C7             3.7076     1.9336    -0.2343 C.3     
   8 O8             4.2409     2.0574    -1.5543 O.3     
   9 C9             5.3300     2.8573    -1.7078 C.2     
  10 N10            5.9332     3.5249    -0.7458 N.2     
  11 N11            6.9968     4.2296    -1.2944 N.pl3   
  12 C12            7.0307     3.9528    -2.6428 C.2     
  13 C13            5.9995     3.1024    -2.9147 C.2     
  14 C14            7.9603     5.1363    -0.6677 C.3     
  15 C15            9.2781     5.0837    -1.4404 C.3     
  16 N16            9.0860     5.1736    -2.8836 N.am    
  17 C17            8.0709     4.5312    -3.5095 C.2     
  18 O18            8.0216     4.4370    -4.7213 O.2     
  19 C19            9.9742     5.9446    -3.6419 C.ar    
  20 C20           11.2990     5.5499    -3.7747 C.ar    
  21 C21           12.1738     6.3124    -4.5236 C.ar    
  22 C22           11.7308     7.4696    -5.1417 C.ar    
  23 C23           10.4103     7.8652    -5.0101 C.ar    
  24 C24            9.5306     7.1025    -4.2673 C.ar    
  25 F25           12.5883     8.2140    -5.8737 F       
  26 O26           -0.7565    -1.4997    -0.3244 O.3     
  27 C27           -0.5083    -2.8921    -0.1202 C.3     
  28 H28           -0.8345     1.0964    -0.6653 H       
  29 H29            1.7240    -2.2493     0.0594 H       
  30 H30            3.6724    -0.7457     0.0973 H       
  31 H31            1.1184     2.5940    -0.6208 H       
  32 H32            3.4033     2.9154     0.1281 H       
  33 H33            4.4691     1.5217     0.4280 H       
  34 H34            5.7424     2.6976    -3.8824 H       
  35 H35            7.5682     6.1531    -0.6857 H       
  36 H36            8.1310     4.8294     0.3642 H       
  37 H37            9.9094     5.9113    -1.1169 H       
  38 H38            9.7844     4.1463    -1.2102 H       
  39 H39           11.6450     4.6476    -3.2925 H       
  40 H40           13.2043     6.0060    -4.6268 H       
  41 H41           10.0669     8.7683    -5.4927 H       
  42 H42            8.5008     7.4114    -4.1649 H       
  43 H43            0.1594    -3.2602    -0.8992 H       
  44 H44           -0.0447    -3.0393     0.8552 H       
  45 H45           -1.4504    -3.4389    -0.1610 H       
@<TRIPOS>BOND
   1    1    2 ar
   2    1    6 ar
   3    1   28 1
   4    2    3 ar
   5    2   26 1
   6    3    4 ar
   7    3   29 1
   8    4    5 ar
   9    4   30 1
  10    5    6 ar
  11    5    7 1
  12    6   31 1
  13    7    8 1
  14    7   32 1
  15    7   33 1
  16    8    9 1
  17    9   10 2
  18    9   13 1
  19   10   11 1
  20   11   12 1
  21   11   14 1
  22   12   13 2
  23   12   17 1
  24   13   34 1
  25   14   15 1
  26   14   35 1
  27   14   36 1
  28   15   16 1
  29   15   37 1
  30   15   38 1
  31   16   17 am
  32   16   19 1
  33   17   18 2
  34   19   20 ar
  35   19   24 ar
  36   20   21 ar
  37   20   39 1
  38   21   22 ar
  39   21   40 1
  40   22   23 ar
  41   22   25 1
  42   23   24 ar
  43   23   41 1
  44   24   42 1
  45   26   27 1
  46   27   43 1
  47   27   44 1
  48   27   45 1

#	End of record

