#	Name: ASD02440008
#	Creating user name:	WinNT
#	Creation time:	15. 06. 2019 20:21

#	Modifying user name:	WinNT
#	Modification time:	15. 06. 2019 20:21

#	Program:	/corina/corina34_cracker 3.40 0067  02.08.2006

@<TRIPOS>MOLECULE
ASD02440008
  32   34    0    0    0
SMALL
NO_CHARGES


@<TRIPOS>ATOM
   1 Cl1           -0.2244     0.4746     0.5508 Cl      
   2 C2             0.0120     2.1189     0.0469 C.2     
   3 C3             1.2671     2.5739    -0.1814 C.2     
   4 N4             2.3430     1.7261    -0.0110 N.pl3   
   5 C5             3.3399     2.0438     0.9028 C.ar    
   6 C6             4.5035     1.2797     0.9556 C.ar    
   7 C7             5.4858     1.5893     1.8529 C.ar    
   8 C8             5.3220     2.6757     2.7199 C.ar    
   9 C9             4.1517     3.4412     2.6642 C.ar    
  10 C10            3.1760     3.1294     1.7605 C.ar    
  11 C11            6.3781     3.0121     3.6886 C.2     
  12 O12            7.4004     2.3418     3.7364 O.co2   
  13 O13            6.2335     3.9621     4.4458 O.co2   
  14 C14            1.4965     3.9727    -0.6127 C.2     
  15 O15            2.6252     4.3721    -0.8156 O.2     
  16 C16            0.3427     4.8793    -0.7951 C.ar    
  17 C17           -0.9569     4.3986    -0.5560 C.ar    
  18 C18           -1.1480     2.9933    -0.1314 C.2     
  19 O19           -2.2683     2.5680     0.0780 O.2     
  20 C20           -2.0459     5.2439    -0.7245 C.ar    
  21 C21           -1.8448     6.5553    -1.1273 C.ar    
  22 C22           -0.5679     7.0277    -1.3624 C.ar    
  23 C23            0.5289     6.1965    -1.1986 C.ar    
  24 H24            2.4030     0.9084    -0.5294 H       
  25 H25            4.6290     0.4413     0.2864 H       
  26 H26            6.3875     0.9963     1.8935 H       
  27 H27            4.0221     4.2802     3.3318 H       
  28 H28            2.2728     3.7198     1.7166 H       
  29 H29           -3.0466     4.8807    -0.5427 H       
  30 H30           -2.6921     7.2119    -1.2585 H       
  31 H31           -0.4236     8.0510    -1.6761 H       
  32 H32            1.5249     6.5708    -1.3840 H       
@<TRIPOS>BOND
   1    1    2 1
   2    2    3 2
   3    2   18 1
   4    3    4 1
   5    3   14 1
   6    4    5 1
   7    4   24 1
   8    5    6 ar
   9    5   10 ar
  10    6    7 ar
  11    6   25 1
  12    7    8 ar
  13    7   26 1
  14    8    9 ar
  15    8   11 1
  16    9   10 ar
  17    9   27 1
  18   10   28 1
  19   11   12 ar
  20   11   13 ar
  21   14   15 2
  22   14   16 1
  23   16   17 ar
  24   16   23 ar
  25   17   18 1
  26   17   20 ar
  27   18   19 2
  28   20   21 ar
  29   20   29 1
  30   21   22 ar
  31   21   30 1
  32   22   23 ar
  33   22   31 1
  34   23   32 1

#	End of record

