#	Name: ASD01815914
#	Creating user name:	WinNT
#	Creation time:	15. 06. 2019 19:34

#	Modifying user name:	WinNT
#	Modification time:	15. 06. 2019 19:34

#	Program:	/corina/corina34_cracker 3.40 0067  02.08.2006

@<TRIPOS>MOLECULE
ASD01815914
  58   64    0    0    0
SMALL
NO_CHARGES


@<TRIPOS>ATOM
   1 C1             0.1064     1.4781     0.3815 C.ar    
   2 C2             0.0863     0.0931     0.3728 C.ar    
   3 C3             1.2566    -0.6272     0.2336 C.ar    
   4 C4             2.4729     0.0371     0.1002 C.ar    
   5 C5             2.4904     1.4412     0.1094 C.ar    
   6 C6             1.3032     2.1567     0.2504 C.ar    
   7 N7             3.6499    -0.6796    -0.0392 N.pl3   
   8 C8             4.8507    -0.0941    -0.1710 C.2     
   9 C9             4.9913     1.2716    -0.1761 C.2     
  10 C10            3.7896     2.1249    -0.0333 C.2     
  11 C11            6.1081     2.2037    -0.2951 C.2     
  12 N12            5.5738     3.4421    -0.2248 N.am    
  13 N13            4.1876     3.3643    -0.0685 N.2     
  14 C14            6.3048     4.6339    -0.2984 C.ar    
  15 O15            7.2875     1.9210    -0.4305 O.2     
  16 C16            3.5814    -2.1429    -0.0425 C.3     
  17 C17            3.4349    -2.6358    -1.4591 C.ar    
  18 C18            4.5543    -2.7846    -2.2571 C.ar    
  19 C19            4.4232    -3.2357    -3.5560 C.ar    
  20 C20            3.1659    -3.5401    -4.0600 C.ar    
  21 C21            2.0438    -3.3900    -3.2562 C.ar    
  22 C22            2.1819    -2.9435    -1.9565 C.ar    
  23 N23            3.0295    -3.9976    -5.3781 N.pl3   
  24 C24            1.8696    -4.3278    -5.9899 C.2     
  25 F25            1.3218     3.5075     0.2586 F       
  26 F26            1.2210    -1.9777     0.2273 F       
  27 C27            2.1663    -4.7196    -7.2507 C.2     
  28 C28            3.5526    -4.6262    -7.4159 C.2     
  29 N29            4.0700    -4.1880    -6.2965 N.2     
  30 C30            7.1393     4.8727    -1.3808 C.ar    
  31 C31            7.8594     6.0500    -1.4514 C.ar    
  32 C32            7.7513     6.9929    -0.4455 C.ar    
  33 C33            6.9224     6.7635     0.6365 C.ar    
  34 C34            6.1919     5.5874     0.7134 C.ar    
  35 N35            5.3504     5.3527     1.8101 N.pl3   
  36 C36            5.1582     6.1850     2.8581 C.2     
  37 C37            4.2757     5.5941     3.6969 C.2     
  38 C38            3.9162     4.3601     3.1444 C.2     
  39 N39            4.5553     4.2169     2.0110 N.2     
  40 H40           -0.8163     2.0294     0.4866 H       
  41 H41           -0.8537    -0.4287     0.4761 H       
  42 H42            5.7292    -0.7136    -0.2753 H       
  43 H43            4.4945    -2.5504     0.3913 H       
  44 H44            2.7232    -2.4678     0.5458 H       
  45 H45            5.5321    -2.5477    -1.8645 H       
  46 H46            5.2978    -3.3511    -4.1790 H       
  47 H47            1.0645    -3.6257    -3.6457 H       
  48 H48            1.3094    -2.8266    -1.3307 H       
  49 H49            0.8837    -4.2868    -5.5509 H       
  50 H50            1.4580    -5.0467    -7.9976 H       
  51 H51            4.1008    -4.8695    -8.3141 H       
  52 H52            7.2264     4.1383    -2.1679 H       
  53 H53            8.5088     6.2342    -2.2944 H       
  54 H54            8.3166     7.9112    -0.5055 H       
  55 H55            6.8408     7.5021     1.4203 H       
  56 H56            5.6253     7.1483     3.0004 H       
  57 H57            3.9130     6.0029     4.6284 H       
  58 H58            3.2268     3.6498     3.5764 H       
@<TRIPOS>BOND
   1    1    2 ar
   2    1    6 ar
   3    1   40 1
   4    2    3 ar
   5    2   41 1
   6    3    4 ar
   7    3   26 1
   8    4    5 ar
   9    4    7 1
  10    5    6 ar
  11    5   10 1
  12    6   25 1
  13    7    8 1
  14    7   16 1
  15    8    9 2
  16    8   42 1
  17    9   10 1
  18    9   11 1
  19   10   13 2
  20   11   12 am
  21   11   15 2
  22   12   13 1
  23   12   14 1
  24   14   30 ar
  25   14   34 ar
  26   16   17 1
  27   16   43 1
  28   16   44 1
  29   17   18 ar
  30   17   22 ar
  31   18   19 ar
  32   18   45 1
  33   19   20 ar
  34   19   46 1
  35   20   21 ar
  36   20   23 1
  37   21   22 ar
  38   21   47 1
  39   22   48 1
  40   23   24 1
  41   23   29 1
  42   24   27 2
  43   24   49 1
  44   27   28 1
  45   27   50 1
  46   28   29 2
  47   28   51 1
  48   30   31 ar
  49   30   52 1
  50   31   32 ar
  51   31   53 1
  52   32   33 ar
  53   32   54 1
  54   33   34 ar
  55   33   55 1
  56   34   35 1
  57   35   36 1
  58   35   39 1
  59   36   37 2
  60   36   56 1
  61   37   38 1
  62   37   57 1
  63   38   39 2
  64   38   58 1

#	End of record

