#	Name: ASD01911583
#	Creating user name:	WinNT
#	Creation time:	15. 06. 2019 19:58

#	Modifying user name:	WinNT
#	Modification time:	15. 06. 2019 19:58

#	Program:	/corina/corina34_cracker 3.40 0067  02.08.2006

@<TRIPOS>MOLECULE
ASD01911583
  43   45    0    0    0
SMALL
NO_CHARGES


@<TRIPOS>ATOM
   1 N1             0.2425     1.6174     1.2568 N.am    
   2 C2             0.3191     0.3740     0.7426 C.2     
   3 C3             1.5404    -0.4165     0.9161 C.2     
   4 C4             1.5995    -1.7499     1.2198 C.2     
   5 S5             3.1916     0.1808     0.7630 S.3     
   6 C6             3.8060    -1.4283     1.1311 C.2     
   7 N7             2.8002    -2.2446     1.3253 N.2     
   8 C8             5.1900    -1.7891     1.2023 C.1     
   9 C9             6.3246    -2.0849     1.2606 C.1     
  10 C10            7.7086    -2.4457     1.3318 C.ar    
  11 C11            8.0774    -3.7601     1.6337 C.ar    
  12 C12            9.4122    -4.1000     1.7000 C.ar    
  13 C13           10.3857    -3.1437     1.4690 C.ar    
  14 C14           10.0285    -1.8406     1.1696 C.ar    
  15 C15            8.6979    -1.4866     1.0941 C.ar    
  16 O16           -0.6263    -0.0923     0.1341 O.2     
  17 C17           -0.9242     2.4731     0.9923 C.3     
  18 C18            1.3205     2.1525     2.1022 C.3     
  19 C19            1.7339     3.5228     1.5548 C.3     
  20 N20            0.5467     4.3810     1.4448 N.3     
  21 C21           -0.4270     3.8314     0.4863 C.3     
  22 C22            0.9221     5.7556     1.0875 C.3     
  23 C23           -0.3420     6.5947     0.8910 C.3     
  24 O24           -1.0670     6.6590     2.1207 O.3     
  25 H25            0.7128    -2.3498     1.3624 H       
  26 H26            7.3189    -4.5073     1.8149 H       
  27 H27            9.6987    -5.1148     1.9331 H       
  28 H28           11.4295    -3.4158     1.5230 H       
  29 H29           10.7939    -1.0998     0.9910 H       
  30 H30            8.4207    -0.4693     0.8604 H       
  31 H31           -1.5547     2.0084     0.2343 H       
  32 H32           -1.4932     2.6108     1.9118 H       
  33 H33            0.9635     2.2600     3.1265 H       
  34 H34            2.1747     1.4758     2.0784 H       
  35 H35            2.4538     3.9828     2.2317 H       
  36 H36            2.1863     3.3999     0.5708 H       
  37 H37            0.0517     3.7011    -0.4842 H       
  38 H38           -1.2680     4.5178     0.3883 H       
  39 H39            1.5241     6.1872     1.8871 H       
  40 H40            1.4993     5.7459     0.1629 H       
  41 H41           -0.0648     7.6019     0.5796 H       
  42 H42           -0.9668     6.1365     0.1244 H       
  43 H43           -1.8823     7.1766     2.0700 H       
@<TRIPOS>BOND
   1    1    2 am
   2    1   18 1
   3    1   17 1
   4    2    3 1
   5    2   16 2
   6    3    4 2
   7    3    5 1
   8    4    7 1
   9    4   25 1
  10    5    6 1
  11    6    7 2
  12    6    8 1
  13    8    9 3
  14    9   10 1
  15   10   11 ar
  16   10   15 ar
  17   11   12 ar
  18   11   26 1
  19   12   13 ar
  20   12   27 1
  21   13   14 ar
  22   13   28 1
  23   14   15 ar
  24   14   29 1
  25   15   30 1
  26   17   21 1
  27   17   31 1
  28   17   32 1
  29   18   19 1
  30   18   33 1
  31   18   34 1
  32   19   20 1
  33   19   35 1
  34   19   36 1
  35   20   21 1
  36   20   22 1
  37   21   37 1
  38   21   38 1
  39   22   23 1
  40   22   39 1
  41   22   40 1
  42   23   24 1
  43   23   41 1
  44   23   42 1
  45   24   43 1

#	End of record

