#	Name: ASD02030452
#	Creating user name:	WinNT
#	Creation time:	15. 06. 2019 20:15

#	Modifying user name:	WinNT
#	Modification time:	15. 06. 2019 20:15

#	Program:	/corina/corina34_cracker 3.40 0067  02.08.2006

@<TRIPOS>MOLECULE
ASD02030452
  29   29    0    0    0
SMALL
NO_CHARGES


@<TRIPOS>ATOM
   1 C1            -0.0184     1.5028     0.0103 C.2     
   2 C2             0.0021    -0.0041     0.0020 C.3     
   3 N3             1.1728     2.2123     0.0027 N.pl3   
   4 N4            -1.1470     2.1341     0.0191 N.2     
   5 N5            -1.1660     3.5349     0.0268 N.pl3   
   6 O6            -1.3386    -0.4987     0.0122 O.3     
   7 C7            -1.4321    -1.9246     0.0054 C.3     
   8 C8            -2.9048    -2.3392     0.0172 C.3     
   9 C9            -2.3827     4.2156     0.0363 C.ar    
  10 C10           -2.4035     5.6056     0.0439 C.ar    
  11 C11           -3.6113     6.2764     0.0528 C.ar    
  12 C12           -4.7994     5.5655     0.0546 C.ar    
  13 C13           -4.7816     4.1829     0.0474 C.ar    
  14 C14           -3.5780     3.5059     0.0323 C.ar    
  15 Cl15          -3.6393     8.0121     0.0624 Cl      
  16 H16            0.5123    -0.3556    -0.8948 H       
  17 H17            0.5293    -0.3651     0.8851 H       
  18 H18            2.0193     1.7388    -0.0079 H       
  19 H19            1.1597     3.1822     0.0081 H       
  20 H20           -0.3326     4.0313     0.0255 H       
  21 H21           -0.9516    -2.3160    -0.8913 H       
  22 H22           -0.9346    -2.3255     0.8885 H       
  23 H23           -2.9761    -3.4269     0.0121 H       
  24 H24           -3.3852    -1.9478     0.9140 H       
  25 H25           -3.4022    -1.9383    -0.8659 H       
  26 H26           -1.4768     6.1603     0.0433 H       
  27 H27           -5.7423     6.0921     0.0619 H       
  28 H28           -5.7103     3.6317     0.0492 H       
  29 H29           -3.5654     2.4260     0.0222 H       
@<TRIPOS>BOND
   1    1    2 1
   2    1    3 1
   3    1    4 2
   4    2    6 1
   5    2   16 1
   6    2   17 1
   7    3   18 1
   8    3   19 1
   9    4    5 1
  10    5    9 1
  11    5   20 1
  12    6    7 1
  13    7    8 1
  14    7   21 1
  15    7   22 1
  16    8   23 1
  17    8   24 1
  18    8   25 1
  19    9   10 ar
  20    9   14 ar
  21   10   11 ar
  22   10   26 1
  23   11   12 ar
  24   11   15 1
  25   12   13 ar
  26   12   27 1
  27   13   14 ar
  28   13   28 1
  29   14   29 1

#	End of record

