#	Name: ASD09740121
#	Creating user name:	WinNT
#	Creation time:	15. 06. 2019 21:22

#	Modifying user name:	WinNT
#	Modification time:	15. 06. 2019 21:22

#	Program:	/corina/corina34_cracker 3.40 0067  02.08.2006

@<TRIPOS>MOLECULE
ASD09740121
  43   46    0    0    0
SMALL
NO_CHARGES


@<TRIPOS>ATOM
   1 N1            -0.0144     1.2085     0.0087 N.2     
   2 O2             0.0021    -0.0041     0.0020 O.3     
   3 C3             1.2062     1.6798    -0.0004 C.2     
   4 N4             2.0457     0.6234    -0.0141 N.2     
   5 C5             1.2698    -0.4440    -0.0124 C.2     
   6 C6             1.7125    -1.8547    -0.0235 C.ar    
   7 C7             1.5955     3.1123     0.0028 C.ar    
   8 C8             0.6162     4.1028     0.0172 C.ar    
   9 C9             0.9839     5.4333     0.0201 C.ar    
  10 C10            2.3217     5.7837     0.0087 C.ar    
  11 C11            3.2983     4.8040    -0.0060 C.ar    
  12 C12            2.9420     3.4708    -0.0028 C.ar    
  13 C13            3.0746    -2.1607    -0.0374 C.ar    
  14 C14            2.5589    -4.4995    -0.0450 C.ar    
  15 C15            1.1956    -4.2068    -0.0249 C.ar    
  16 C16            0.7710    -2.8826    -0.0144 C.ar    
  17 C17            3.4883    -3.4778    -0.0478 C.ar    
  18 C18            0.1993    -5.3067    -0.0225 C.ar    
  19 C19           -1.1632    -5.0159    -0.0025 C.ar    
  20 C20           -0.8420     3.7225     0.0291 C.3     
  21 C21            0.6229    -6.6339    -0.0460 C.ar    
  22 C22           -0.3080    -7.6529    -0.0441 C.ar    
  23 C23           -1.6593    -7.3585    -0.0193 C.ar    
  24 C24           -2.0854    -6.0427    -0.0008 C.ar    
  25 C25            4.9599    -3.8021    -0.0627 C.3     
  26 F26            5.6991    -2.6143    -0.0634 F       
  27 F27            5.2837    -4.5522     1.0729 F       
  28 F28            5.2630    -4.5407    -1.2115 F       
  29 H29            0.2254     6.2021     0.0309 H       
  30 H30            2.6050     6.8259     0.0111 H       
  31 H31            4.3416     5.0831    -0.0156 H       
  32 H32            3.7052     2.7068    -0.0140 H       
  33 H33            3.8058    -1.3658    -0.0403 H       
  34 H34            2.8890    -5.5278    -0.0532 H       
  35 H35           -0.2839    -2.6515     0.0012 H       
  36 H36           -1.4970    -3.9889     0.0120 H       
  37 H37           -1.1838     3.6255     1.0596 H       
  38 H38           -1.4229     4.4946    -0.4753 H       
  39 H39           -0.9739     2.7723    -0.4884 H       
  40 H40            1.6778    -6.8648    -0.0661 H       
  41 H41            0.0193    -8.6819    -0.0623 H       
  42 H42           -2.3843    -8.1590    -0.0183 H       
  43 H43           -3.1417    -5.8185     0.0185 H       
@<TRIPOS>BOND
   1    1    2 1
   2    1    3 2
   3    2    5 1
   4    3    4 1
   5    3    7 1
   6    4    5 2
   7    5    6 1
   8    6   13 ar
   9    6   16 ar
  10    7    8 ar
  11    7   12 ar
  12    8    9 ar
  13    8   20 1
  14    9   10 ar
  15    9   29 1
  16   10   11 ar
  17   10   30 1
  18   11   12 ar
  19   11   31 1
  20   12   32 1
  21   13   17 ar
  22   13   33 1
  23   14   15 ar
  24   14   17 ar
  25   14   34 1
  26   15   16 ar
  27   15   18 1
  28   16   35 1
  29   17   25 1
  30   18   19 ar
  31   18   21 ar
  32   19   24 ar
  33   19   36 1
  34   20   37 1
  35   20   38 1
  36   20   39 1
  37   21   22 ar
  38   21   40 1
  39   22   23 ar
  40   22   41 1
  41   23   24 ar
  42   23   42 1
  43   24   43 1
  44   25   26 1
  45   25   27 1
  46   25   28 1

#	End of record

