#	Name: ASD08550002
#	Creating user name:	WinNT
#	Creation time:	15. 06. 2019 21:19

#	Modifying user name:	WinNT
#	Modification time:	15. 06. 2019 21:19

#	Program:	/corina/corina34_cracker 3.40 0067  02.08.2006

@<TRIPOS>MOLECULE
ASD08550002
  44   46    0    0    0
SMALL
NO_CHARGES


@<TRIPOS>ATOM
   1 C1            -2.1032     1.3735     0.9116 C.ar    
   2 C2            -2.0880    -0.0081     0.9103 C.ar    
   3 C3            -1.2340    -0.6915     0.0645 C.ar    
   4 C4            -0.3907     0.0025    -0.7851 C.ar    
   5 C5            -0.3972     1.3823    -0.7931 C.ar    
   6 C6            -1.2593     2.0777     0.0531 C.ar    
   7 C7            -1.2707     3.5606     0.0489 C.2     
   8 C8            -0.1081     4.4686     0.1411 C.2     
   9 C9            -0.6872     5.7116     0.0910 C.2     
  10 O10           -2.0032     5.5142    -0.0155 O.3     
  11 N11           -2.3121     4.3482    -0.0430 N.2     
  12 Cl12          -3.1753     2.2308     1.9743 Cl      
  13 C13            0.0232     7.0395     0.1458 C.3     
  14 C14            1.3189     4.1244     0.2579 C.2     
  15 N15            1.9012     4.0676     1.4721 N.am    
  16 O16            1.9720     3.8913    -0.7413 O.2     
  17 C17            3.2316     3.6529     1.5908 C.ar    
  18 C18            4.1537     3.9818     0.6057 C.ar    
  19 C19            3.6349     2.9161     2.6970 C.ar    
  20 C20            4.9494     2.5081     2.8112 C.ar    
  21 C21            5.8638     2.8328     1.8260 C.ar    
  22 C22            5.4667     3.5708     0.7260 C.ar    
  23 C23            7.2975     2.3868     1.9545 C.3     
  24 C24            7.6630     1.4959     0.7655 C.3     
  25 C25            8.2131     3.6125     1.9738 C.3     
  26 H26           -2.7440    -0.5551     1.5712 H       
  27 H27           -1.2248    -1.7715     0.0672 H       
  28 H28            0.2743    -0.5370    -1.4432 H       
  29 H29            0.2617     1.9224    -1.4568 H       
  30 H30            0.2781     7.3573    -0.8652 H       
  31 H31           -0.6288     7.7817     0.6064 H       
  32 H32            0.9343     6.9401     0.7359 H       
  33 H33            1.3976     4.3143     2.2635 H       
  34 H34            3.8443     4.5582    -0.2537 H       
  35 H35            2.9213     2.6628     3.4671 H       
  36 H36            5.2635     1.9352     3.6711 H       
  37 H37            6.1833     3.8227    -0.0417 H       
  38 H38            7.4219     1.8258     2.8807 H       
  39 H39            8.7000     1.1733     0.8584 H       
  40 H40            7.0107     0.6227     0.7518 H       
  41 H41            7.5386     2.0569    -0.1607 H       
  42 H42            7.9528     4.2472     2.8208 H       
  43 H43            9.2501     3.2899     2.0667 H       
  44 H44            8.0887     4.1735     1.0475 H       
@<TRIPOS>BOND
   1    1    2 ar
   2    1   12 1
   3    1    6 ar
   4    2    3 ar
   5    2   26 1
   6    3    4 ar
   7    3   27 1
   8    4    5 ar
   9    4   28 1
  10    5    6 ar
  11    5   29 1
  12    6    7 1
  13    7    8 1
  14    7   11 2
  15    8    9 2
  16    8   14 1
  17    9   10 1
  18    9   13 1
  19   10   11 1
  20   13   30 1
  21   13   31 1
  22   13   32 1
  23   14   15 am
  24   14   16 2
  25   15   17 1
  26   15   33 1
  27   17   18 ar
  28   17   19 ar
  29   18   22 ar
  30   18   34 1
  31   19   20 ar
  32   19   35 1
  33   20   21 ar
  34   20   36 1
  35   21   22 ar
  36   21   23 1
  37   22   37 1
  38   23   24 1
  39   23   25 1
  40   23   38 1
  41   24   39 1
  42   24   40 1
  43   24   41 1
  44   25   42 1
  45   25   43 1
  46   25   44 1

#	End of record

