#	Name: ASD03740057
#	Creating user name:	WinNT
#	Creation time:	15. 06. 2019 20:46

#	Modifying user name:	WinNT
#	Modification time:	15. 06. 2019 20:46

#	Program:	/corina/corina34_cracker 3.40 0067  02.08.2006

@<TRIPOS>MOLECULE
ASD03740057
  54   57    0    0    0
SMALL
NO_CHARGES


@<TRIPOS>ATOM
   1 C1            -0.0168     1.3849     0.0097 C.ar    
   2 C2             0.0021    -0.0041     0.0020 C.ar    
   3 C3             1.1850    -0.6877    -0.0125 C.ar    
   4 C4             2.3894     0.0113    -0.0203 C.ar    
   5 C5             2.3718     1.4195    -0.0131 C.ar    
   6 C6             1.1486     2.0963     0.0023 C.ar    
   7 N7             3.7063    -0.3680    -0.0346 N.pl3   
   8 N8             4.5133     0.7743    -0.0364 N.2     
   9 C9             3.7704     1.8474    -0.0241 C.2     
  10 O10            4.2163     3.1315    -0.0222 O.3     
  11 C11            4.1915    -1.7503    -0.0454 C.3     
  12 C12            4.3443    -2.2179    -1.4698 C.ar    
  13 C13            5.6318     3.3268    -0.0344 C.3     
  14 C14            5.9400     4.8254    -0.0302 C.3     
  15 C15            7.4556     5.0345    -0.0433 C.3     
  16 N16            7.7515     6.4734    -0.0393 N.3     
  17 C17            5.5441    -2.0357    -2.1320 C.ar    
  18 C18            5.6848    -2.4644    -3.4384 C.ar    
  19 C19            4.6247    -3.0760    -4.0834 C.ar    
  20 C20            3.4242    -3.2581    -3.4203 C.ar    
  21 C21            9.1987     6.7187     0.1892 C.3     
  22 C22            3.2865    -2.8340    -2.1120 C.ar    
  23 Cl23           4.8005    -3.6142    -5.7245 Cl      
  24 C24            7.4851     7.0754    -1.3711 C.3     
  25 C25            8.3156     8.3767    -1.3829 C.3     
  26 C26            9.4430     8.1420    -0.3564 C.3     
  27 C27            9.5160     6.6585     1.6612 C.2     
  28 O28            8.6341     6.4336     2.4629 O.2     
  29 N29           10.7797     6.8546     2.0868 N.am    
  30 H30           -0.9621     1.9071     0.0170 H       
  31 H31           -0.9296    -0.5502     0.0080 H       
  32 H32            1.1859    -1.7677    -0.0176 H       
  33 H33            1.1256     3.1760     0.0077 H       
  34 H34            5.1565    -1.8005     0.4590 H       
  35 H35            3.4771    -2.3902     0.4724 H       
  36 H36            6.0702     2.8632     0.8494 H       
  37 H37            6.0537     2.8716    -0.9305 H       
  38 H38            5.5016     5.2889    -0.9140 H       
  39 H39            5.5182     5.2806     0.8659 H       
  40 H40            7.8940     4.5709     0.8405 H       
  41 H41            7.8774     4.5793    -0.9394 H       
  42 H42            6.3715    -1.5579    -1.6284 H       
  43 H43            6.6221    -2.3216    -3.9557 H       
  44 H44            2.5963    -3.7355    -3.9233 H       
  45 H45            9.7986     5.9916    -0.3581 H       
  46 H46            2.3494    -2.9761    -1.5942 H       
  47 H47            7.8169     6.4054    -2.1643 H       
  48 H48            6.4243     7.3004    -1.4813 H       
  49 H49            8.7357     8.5487    -2.3739 H       
  50 H50            7.6983     9.2226    -1.0805 H       
  51 H51            9.3790     8.8727     0.4498 H       
  52 H52           10.4164     8.1988    -0.8436 H       
  53 H53           11.4850     7.0344     1.4456 H       
  54 H54           10.9839     6.8158     3.0343 H       
@<TRIPOS>BOND
   1    1    2 ar
   2    1    6 ar
   3    1   30 1
   4    2    3 ar
   5    2   31 1
   6    3    4 ar
   7    3   32 1
   8    4    5 ar
   9    4    7 1
  10    5    6 ar
  11    5    9 1
  12    6   33 1
  13    7    8 1
  14    7   11 1
  15    8    9 2
  16    9   10 1
  17   10   13 1
  18   11   12 1
  19   11   34 1
  20   11   35 1
  21   12   17 ar
  22   12   22 ar
  23   13   14 1
  24   13   36 1
  25   13   37 1
  26   14   15 1
  27   14   38 1
  28   14   39 1
  29   15   16 1
  30   15   40 1
  31   15   41 1
  32   16   21 1
  33   16   24 1
  34   17   18 ar
  35   17   42 1
  36   18   19 ar
  37   18   43 1
  38   19   20 ar
  39   19   23 1
  40   20   22 ar
  41   20   44 1
  42   21   27 1
  43   21   26 1
  44   21   45 1
  45   22   46 1
  46   24   25 1
  47   24   47 1
  48   24   48 1
  49   25   26 1
  50   25   49 1
  51   25   50 1
  52   26   51 1
  53   26   52 1
  54   27   28 2
  55   27   29 am
  56   29   53 1
  57   29   54 1

#	End of record

