#	Name: ASD01811643
#	Creating user name:	WinNT
#	Creation time:	15. 06. 2019 19:27

#	Modifying user name:	WinNT
#	Modification time:	15. 06. 2019 19:27

#	Program:	/corina/corina34_cracker 3.40 0067  02.08.2006

@<TRIPOS>MOLECULE
ASD01811643
  55   59    0    0    0
SMALL
NO_CHARGES


@<TRIPOS>ATOM
   1 C1            -0.0167     1.3784     0.0096 C.ar    
   2 C2             0.0021    -0.0041     0.0020 C.ar    
   3 C3             1.2024    -0.6840    -0.0134 C.ar    
   4 C4             2.4054     0.0169    -0.0208 C.ar    
   5 C5             2.3747     1.4099    -0.0129 C.ar    
   6 C6             1.1741     2.0834     0.0020 C.ar    
   7 N7             3.7266    -0.4372    -0.0349 N.am    
   8 C8             4.6129     0.5791    -0.0351 C.2     
   9 C9             3.8084     1.8453    -0.0211 C.3     
  10 C10            4.1336     2.7493    -1.2186 C.3     
  11 N11            5.3108     3.5312    -0.7898 N.am    
  12 C12            5.3516     3.5581     0.6808 C.3     
  13 C13            4.1498     2.7300     1.1897 C.3     
  14 O14            5.8223     0.4875    -0.0443 O.2     
  15 S15            6.4054     4.2574    -1.7982 S.o2    
  16 C16            5.7329     5.9193    -2.0746 C.3     
  17 O17            7.5990     4.3239    -1.0301 O.2     
  18 O18            6.3445     3.4898    -2.9925 O.2     
  19 C19            4.1049    -1.8524    -0.0474 C.3     
  20 C20            4.2233    -2.3281    -1.4725 C.ar    
  21 C21            5.3691    -2.0501    -2.2004 C.ar    
  22 C22            5.4817    -2.4851    -3.5076 C.ar    
  23 C23            4.4409    -3.2035    -4.0914 C.ar    
  24 C24            3.2918    -3.4796    -3.3542 C.ar    
  25 C25            3.1908    -3.0455    -2.0475 C.ar    
  26 F26            6.3770    -1.3527    -1.6321 F       
  27 C27            4.5558    -3.6730    -5.4953 C.2     
  28 C28            5.6527    -3.4675    -6.3545 C.2     
  29 N29            5.3797    -4.0285    -7.5026 N.2     
  30 N30            4.1084    -4.6096    -7.4227 N.pl3   
  31 C31            3.6204    -4.3870    -6.1857 C.2     
  32 C32            3.4281    -5.3384    -8.4961 C.3     
  33 H33           -0.9585     1.9068     0.0169 H       
  34 H34           -0.9273    -0.5542     0.0085 H       
  35 H35            1.2090    -1.7640    -0.0194 H       
  36 H36            1.1616     3.1634     0.0078 H       
  37 H37            4.3761     2.1471    -2.0942 H       
  38 H38            3.2951     3.4120    -1.4328 H       
  39 H39            6.2829     3.1152     1.0338 H       
  40 H40            5.2701     4.5857     1.0350 H       
  41 H41            3.3119     3.3800     1.4415 H       
  42 H42            4.4367     2.1190     2.0456 H       
  43 H43            5.6497     6.4408    -1.1211 H       
  44 H44            6.3978     6.4750    -2.7358 H       
  45 H45            4.7471     5.8407    -2.5330 H       
  46 H46            5.0626    -1.9770     0.4580 H       
  47 H47            3.3431    -2.4368     0.4686 H       
  48 H48            6.3745    -2.2681    -4.0752 H       
  49 H49            2.4823    -4.0360    -3.8031 H       
  50 H50            2.3000    -3.2600    -1.4758 H       
  51 H51            6.5610    -2.9379    -6.1076 H       
  52 H52            2.6602    -4.7098    -5.8112 H       
  53 H53            3.6808    -6.3969    -8.4334 H       
  54 H54            2.3500    -5.2155    -8.3922 H       
  55 H55            3.7472    -4.9452    -9.4613 H       
@<TRIPOS>BOND
   1    1    2 ar
   2    1    6 ar
   3    1   33 1
   4    2    3 ar
   5    2   34 1
   6    3    4 ar
   7    3   35 1
   8    4    5 ar
   9    4    7 1
  10    5    6 ar
  11    5    9 1
  12    6   36 1
  13    7    8 am
  14    7   19 1
  15    8    9 1
  16    8   14 2
  17    9   10 1
  18    9   13 1
  19   10   11 1
  20   10   37 1
  21   10   38 1
  22   11   12 1
  23   11   15 am
  24   12   13 1
  25   12   39 1
  26   12   40 1
  27   13   41 1
  28   13   42 1
  29   15   16 1
  30   15   17 2
  31   15   18 2
  32   16   43 1
  33   16   44 1
  34   16   45 1
  35   19   20 1
  36   19   46 1
  37   19   47 1
  38   20   21 ar
  39   20   25 ar
  40   21   22 ar
  41   21   26 1
  42   22   23 ar
  43   22   48 1
  44   23   24 ar
  45   23   27 1
  46   24   25 ar
  47   24   49 1
  48   25   50 1
  49   27   28 1
  50   27   31 2
  51   28   29 2
  52   28   51 1
  53   29   30 1
  54   30   31 1
  55   30   32 1
  56   31   52 1
  57   32   53 1
  58   32   54 1
  59   32   55 1

#	End of record

