#	Name: ASD01030017
#	Creating user name:	WinNT
#	Creation time:	15. 06. 2019 18:58

#	Modifying user name:	WinNT
#	Modification time:	15. 06. 2019 18:58

#	Program:	/corina/corina34_cracker 3.40 0067  02.08.2006

@<TRIPOS>MOLECULE
ASD01030017
  23   22    0    0    0
SMALL
NO_CHARGES


@<TRIPOS>ATOM
   1 C1            -0.0157     1.3058     0.0092 C.2     
   2 C2             0.0021    -0.0041     0.0020 C.2     
   3 P3             1.5428     2.2341    -0.0007 P.3     
   4 O4             2.7805     1.2046    -0.0180 O.3     
   5 O5             1.6029     3.1678    -1.3109 O.3     
   6 O6             1.6212     3.0794     1.2116 O.2     
   7 C7             4.1433     1.6243     0.0757 C.3     
   8 C8             5.0586     0.3992     0.0292 C.3     
   9 C9             2.6584     4.0998    -1.5546 C.3     
  10 C10            2.4075     4.8190    -2.8815 C.3     
  11 H11           -0.9582     1.8330     0.0166 H       
  12 H12           -0.9258    -0.5567     0.0079 H       
  13 H13            0.9446    -0.5313    -0.0098 H       
  14 H14            4.3781     2.2852    -0.7587 H       
  15 H15            4.2958     2.1564     1.0147 H       
  16 H16            4.8238    -0.2617     0.8636 H       
  17 H17            4.9060    -0.1329    -0.9098 H       
  18 H18            6.0981     0.7194     0.1006 H       
  19 H19            2.6920     4.8302    -0.7461 H       
  20 H20            3.6086     3.5681    -1.6035 H       
  21 H21            2.3738     4.0887    -3.6899 H       
  22 H22            1.4572     5.3508    -2.8325 H       
  23 H23            3.2125     5.5299    -3.0674 H       
@<TRIPOS>BOND
   1    1    2 2
   2    1    3 1
   3    1   11 1
   4    2   12 1
   5    2   13 1
   6    3    4 1
   7    3    5 1
   8    3    6 2
   9    4    7 1
  10    5    9 1
  11    7    8 1
  12    7   14 1
  13    7   15 1
  14    8   16 1
  15    8   17 1
  16    8   18 1
  17    9   10 1
  18    9   19 1
  19    9   20 1
  20   10   21 1
  21   10   22 1
  22   10   23 1

#	End of record

