#	Name: ASD03330601
#	Creating user name:	WinNT
#	Creation time:	15. 06. 2019 20:37

#	Modifying user name:	WinNT
#	Modification time:	15. 06. 2019 20:37

#	Program:	/corina/corina34_cracker 3.40 0067  02.08.2006

@<TRIPOS>MOLECULE
ASD03330601
  67   70    0    0    0
SMALL
NO_CHARGES


@<TRIPOS>ATOM
   1 C1            -0.3252     1.1696     0.8412 C.2     
   2 N2            -0.3556    -0.1695     1.0746 N.pl3   
   3 C3             0.9801     1.5549     0.8897 C.2     
   4 N4             1.7260     0.4549     1.1324 N.2     
   5 C5             0.9332    -0.5858     1.2391 C.2     
   6 C6             1.3647    -1.9768     1.4956 C.ar    
   7 C7             1.4882     2.9263     0.7093 C.2     
   8 O8             0.7131     3.8385     0.4943 O.2     
   9 C9             3.3169     4.5331     0.6031 C.3     
  10 N10            2.8118     3.1696     0.7825 N.am    
  11 C11            3.4957     4.8184    -0.8894 C.3     
  12 C12            2.1299     4.8043    -1.5786 C.3     
  13 C13            4.1449     6.1918    -1.0718 C.3     
  14 C14            4.3914     3.7445    -1.5102 C.3     
  15 C15            4.6436     4.6735     1.3039 C.2     
  16 N16            5.1808     5.8954     1.4911 N.am    
  17 O17            5.2279     3.6871     1.6994 O.2     
  18 C18            6.5032     6.0275     2.1074 C.3     
  19 C19           -1.5662    -0.9923     1.1464 C.3     
  20 C20           -2.4705    -0.6605    -0.0447 C.3     
  21 C21           -3.3820     0.5099     0.3100 C.3     
  22 N22           -2.7064     1.4516     1.2048 N.3     
  23 C23           -1.5220     2.0419     0.5639 C.3     
  24 C24           -3.6312     2.4959     1.6655 C.3     
  25 C25            0.9233    -4.1544     2.4067 C.ar    
  26 C26            2.1736    -4.5829     1.9770 C.ar    
  27 C27            3.0212    -3.7056     1.3111 C.ar    
  28 C28            2.6220    -2.4089     1.0701 C.ar    
  29 C29            0.5179    -2.8590     2.1688 C.ar    
  30 N30            2.5826    -5.8998     2.2207 N.pl3   
  31 C31            3.7708    -6.4486     1.8587 C.2     
  32 C32            3.7725    -7.7352     2.2780 C.2     
  33 C33            2.5517    -7.9831     2.9151 C.2     
  34 N34            1.8414    -6.8845     2.8869 N.2     
  35 H35            2.6057     5.2426     1.0260 H       
  36 H36            3.4299     2.4421     0.9539 H       
  37 H37            1.4918     5.5694    -1.1363 H       
  38 H38            2.2573     5.0076    -2.6419 H       
  39 H39            1.6674     3.8258    -1.4487 H       
  40 H40            5.1035     6.2123    -0.5536 H       
  41 H41            4.3017     6.3814    -2.1337 H       
  42 H42            3.4917     6.9602    -0.6582 H       
  43 H43            3.9290     2.7661    -1.3802 H       
  44 H44            4.5188     3.9478    -2.5735 H       
  45 H45            5.3645     3.7546    -1.0192 H       
  46 H46            4.6918     6.6872     1.2178 H       
  47 H47            6.4835     5.5926     3.1067 H       
  48 H48            7.2416     5.5057     1.4986 H       
  49 H49            6.7686     7.0825     2.1755 H       
  50 H50           -1.2925    -2.0468     1.1134 H       
  51 H51           -2.0955    -0.7812     2.0756 H       
  52 H52           -1.8550    -0.3932    -0.9037 H       
  53 H53           -3.0780    -1.5310    -0.2921 H       
  54 H54           -3.6697     1.0290    -0.6042 H       
  55 H55           -4.2777     0.1296     0.8012 H       
  56 H56           -1.3477     3.0391     0.9681 H       
  57 H57           -1.6841     2.1069    -0.5121 H       
  58 H58           -4.4600     2.0357     2.2035 H       
  59 H59           -3.1037     3.1817     2.3285 H       
  60 H60           -4.0161     3.0451     0.8063 H       
  61 H61            0.2668    -4.8387     2.9236 H       
  62 H62            3.9922    -4.0417     0.9785 H       
  63 H63            3.2809    -1.7277     0.5522 H       
  64 H64           -0.4537    -2.5265     2.5033 H       
  65 H65            4.5698    -5.9486     1.3315 H       
  66 H66            4.5748    -8.4456     2.1442 H       
  67 H67            2.2490    -8.9203     3.3584 H       
@<TRIPOS>BOND
   1    1    2 1
   2    1    3 2
   3    1   23 1
   4    2   19 1
   5    2    5 1
   6    3    4 1
   7    3    7 1
   8    4    5 2
   9    5    6 1
  10    6   29 ar
  11    6   28 ar
  12    7    8 2
  13    7   10 am
  14    9   10 1
  15    9   11 1
  16    9   15 1
  17    9   35 1
  18   10   36 1
  19   11   12 1
  20   11   13 1
  21   11   14 1
  22   12   37 1
  23   12   38 1
  24   12   39 1
  25   13   40 1
  26   13   41 1
  27   13   42 1
  28   14   43 1
  29   14   44 1
  30   14   45 1
  31   15   16 am
  32   15   17 2
  33   16   18 1
  34   16   46 1
  35   18   47 1
  36   18   48 1
  37   18   49 1
  38   19   20 1
  39   19   50 1
  40   19   51 1
  41   20   21 1
  42   20   52 1
  43   20   53 1
  44   21   22 1
  45   21   54 1
  46   21   55 1
  47   22   23 1
  48   22   24 1
  49   23   56 1
  50   23   57 1
  51   24   58 1
  52   24   59 1
  53   24   60 1
  54   25   26 ar
  55   25   29 ar
  56   25   61 1
  57   26   27 ar
  58   26   30 1
  59   27   28 ar
  60   27   62 1
  61   28   63 1
  62   29   64 1
  63   30   31 1
  64   30   34 1
  65   31   32 2
  66   31   65 1
  67   32   33 1
  68   32   66 1
  69   33   34 2
  70   33   67 1

#	End of record

