#	Name: ASD03430041
#	Creating user name:	WinNT
#	Creation time:	15. 06. 2019 20:40

#	Modifying user name:	WinNT
#	Modification time:	15. 06. 2019 20:40

#	Program:	/corina/corina34_cracker 3.40 0067  02.08.2006

@<TRIPOS>MOLECULE
ASD03430041
  74   81    0    0    0
SMALL
NO_CHARGES


@<TRIPOS>ATOM
   1 C1            -0.0167     1.3821     0.0096 C.ar    
   2 C2             0.0021    -0.0041     0.0020 C.ar    
   3 C3             1.2028    -0.6818    -0.0162 C.ar    
   4 C4             2.4087     0.0129    -0.0162 C.ar    
   5 C5             2.3861     1.4039    -0.0119 C.ar    
   6 C6             1.1815     2.0867     0.0020 C.ar    
   7 O7             3.4713    -0.8419    -0.0074 O.3     
   8 C8             1.5511    -2.1458    -0.0509 C.3     
   9 C9             3.0363    -2.1458    -0.4380 C.3     
  10 C10            0.4268    -3.8598     1.0070 C.ar    
  11 C11            1.3158    -2.8198     1.2682 C.ar    
  12 C12            0.7167    -2.9064    -1.0410 C.2     
  13 N13            0.0966    -3.8836    -0.3502 N.am    
  14 O14            0.6192    -2.6843    -2.2294 O.2     
  15 C15            1.7821    -2.6009     2.5448 C.ar    
  16 C16            1.3690    -3.4172     3.5832 C.ar    
  17 C17            0.4871    -4.4527     3.3353 C.ar    
  18 C18            0.0170    -4.6765     2.0576 C.ar    
  19 C19           -0.8166    -4.8579    -0.9526 C.3     
  20 O20           -1.2113     2.0356     0.0189 O.3     
  21 C21           -1.1865     3.4165     0.3963 C.3     
  22 C22           -0.0349     4.0988    -0.3543 C.3     
  23 O23            1.1866     3.4483     0.0115 O.3     
  24 C24           -2.2457    -4.3132    -0.9075 C.3     
  25 C25           -3.2015    -5.3700    -1.4166 C.3     
  26 C26           -4.6422    -4.8454    -1.5314 C.3     
  27 C27           -4.7041    -3.4872    -2.2368 C.3     
  28 C28           -3.6019    -2.5339    -1.7514 C.3     
  29 O29           -2.3309    -3.1426    -1.7169 O.3     
  30 C30           -6.0068    -2.7943    -1.7561 C.3     
  31 C31           -5.6147    -1.9300    -0.5432 C.3     
  32 C32           -4.0893    -2.0982    -0.3566 C.3     
  33 O33           -2.9123    -5.7791    -2.7647 O.3     
  34 C34           -4.1524    -6.3523    -3.2255 C.3     
  35 O35           -5.2299    -5.8056    -2.4506 O.3     
  36 C36           -4.3579    -6.0129    -4.7032 C.3     
  37 C37           -4.1127    -7.8718    -3.0508 C.3     
  38 C38           -5.9509    -0.4623    -0.8147 C.3     
  39 C39           -6.3523    -2.4150     0.7065 C.3     
  40 H40           -0.9268    -0.5550     0.0107 H       
  41 H41            3.3148     1.9551    -0.0190 H       
  42 H42            3.1554    -2.2571    -1.5158 H       
  43 H43            3.5752    -2.9292     0.0949 H       
  44 H44            2.4713    -1.7916     2.7361 H       
  45 H45            1.7349    -3.2459     4.5848 H       
  46 H46            0.1649    -5.0898     4.1457 H       
  47 H47           -0.6714    -5.4876     1.8718 H       
  48 H48           -0.5276    -5.0346    -1.9886 H       
  49 H49           -0.7671    -5.7943    -0.3969 H       
  50 H50           -2.1315     3.8882     0.1269 H       
  51 H51           -1.0261     3.5010     1.4711 H       
  52 H52           -0.1916     4.0078    -1.4291 H       
  53 H53            0.0118     5.1519    -0.0769 H       
  54 H54           -2.5029    -4.0585     0.1206 H       
  55 H55           -3.1769    -6.2372    -0.7567 H       
  56 H56           -5.1472    -4.8248    -0.5656 H       
  57 H57           -4.6773    -3.6039    -3.3202 H       
  58 H58           -3.5683    -1.6574    -2.3985 H       
  59 H59           -6.4108    -2.1651    -2.5492 H       
  60 H60           -6.7419    -3.5429    -1.4604 H       
  61 H61           -3.8759    -2.8701     0.3828 H       
  62 H62           -3.6313    -1.1521    -0.0683 H       
  63 H63           -3.5458    -6.4412    -5.2907 H       
  64 H64           -5.3083    -6.4255    -5.0419 H       
  65 H65           -4.3661    -4.9303    -4.8296 H       
  66 H66           -3.9463    -8.1126    -2.0008 H       
  67 H67           -5.0610    -8.2998    -3.3759 H       
  68 H68           -3.3026    -8.2856    -3.6512 H       
  69 H69           -7.0212    -0.3621    -0.9949 H       
  70 H70           -5.6699     0.1405     0.0489 H       
  71 H71           -5.4012    -0.1198    -1.6913 H       
  72 H72           -6.0864    -3.4532     0.9054 H       
  73 H73           -6.0682    -1.7975     1.5586 H       
  74 H74           -7.4277    -2.3398     0.5457 H       
@<TRIPOS>BOND
   1    1    2 ar
   2    1    6 ar
   3    1   20 1
   4    2    3 ar
   5    2   40 1
   6    3    4 ar
   7    3    8 1
   8    4    5 ar
   9    4    7 1
  10    5    6 ar
  11    5   41 1
  12    6   23 1
  13    7    9 1
  14    8    9 1
  15    8   11 1
  16    8   12 1
  17    9   42 1
  18    9   43 1
  19   10   11 ar
  20   10   13 1
  21   10   18 ar
  22   11   15 ar
  23   12   13 am
  24   12   14 2
  25   13   19 1
  26   15   16 ar
  27   15   44 1
  28   16   17 ar
  29   16   45 1
  30   17   18 ar
  31   17   46 1
  32   18   47 1
  33   19   24 1
  34   19   48 1
  35   19   49 1
  36   20   21 1
  37   21   22 1
  38   21   50 1
  39   21   51 1
  40   22   23 1
  41   22   52 1
  42   22   53 1
  43   24   25 1
  44   24   29 1
  45   24   54 1
  46   25   26 1
  47   25   33 1
  48   25   55 1
  49   26   27 1
  50   26   35 1
  51   26   56 1
  52   27   28 1
  53   27   30 1
  54   27   57 1
  55   28   29 1
  56   28   32 1
  57   28   58 1
  58   30   31 1
  59   30   59 1
  60   30   60 1
  61   31   32 1
  62   31   38 1
  63   31   39 1
  64   32   61 1
  65   32   62 1
  66   33   34 1
  67   34   35 1
  68   34   36 1
  69   34   37 1
  70   36   63 1
  71   36   64 1
  72   36   65 1
  73   37   66 1
  74   37   67 1
  75   37   68 1
  76   38   69 1
  77   38   70 1
  78   38   71 1
  79   39   72 1
  80   39   73 1
  81   39   74 1

#	End of record

