#	Name: ASD01328036
#	Creating user name:	WinNT
#	Creation time:	15. 06. 2019 19:16

#	Modifying user name:	WinNT
#	Modification time:	15. 06. 2019 19:16

#	Program:	/corina/corina34_cracker 3.40 0067  02.08.2006

@<TRIPOS>MOLECULE
ASD01328036
  38   40    0    0    0
SMALL
NO_CHARGES


@<TRIPOS>ATOM
   1 S1            -0.0211     1.7022     0.0114 S.3     
   2 C2             0.0021    -0.0041     0.0020 C.2     
   3 N3             1.1983    -0.4573    -0.0118 N.2     
   4 C4             2.2084     0.4332    -0.0167 C.ar    
   5 C5             1.7390     1.7516    -0.0051 C.ar    
   6 C6             3.6006     0.2150    -0.0312 C.ar    
   7 C7             4.4639     1.2687    -0.0333 C.ar    
   8 C8             3.9920     2.5733    -0.0213 C.ar    
   9 C9             2.6367     2.8166    -0.0080 C.ar    
  10 C10            5.9492     1.0143    -0.0484 C.3     
  11 C11           -1.2322    -0.8687     0.0092 C.3     
  12 C12           -1.8516    -0.8627     1.4091 C.3     
  13 O13           -0.9287    -1.4282     2.3422 O.3     
  14 C14           -3.1379    -1.6944     1.3934 C.3     
  15 O15           -3.7618    -1.6341     2.6776 O.3     
  16 C16           -4.0878    -1.1255     0.3350 C.3     
  17 O17           -5.2614    -1.9373     0.2608 O.3     
  18 C18           -3.3819    -1.1213    -1.0235 C.3     
  19 O19           -2.1784    -0.3564    -0.9312 O.3     
  20 C20           -4.3027    -0.4989    -2.0750 C.3     
  21 O21           -3.6920    -0.6004    -3.3630 O.3     
  22 H22            3.9855    -0.7940    -0.0403 H       
  23 H23            4.6883     3.3989    -0.0225 H       
  24 H24            2.2701     3.8325     0.0007 H       
  25 H25            6.2979     0.9586    -1.0796 H       
  26 H26            6.4624     1.8273     0.4652 H       
  27 H27            6.1618     0.0729     0.4583 H       
  28 H28           -0.9631    -1.8888    -0.2649 H       
  29 H29           -2.0827     0.1618     1.7008 H       
  30 H30           -0.0881    -0.9538     2.4006 H       
  31 H31           -2.8994    -2.7303     1.1522 H       
  32 H32           -3.2127    -1.9727     3.3980 H       
  33 H33           -4.3660    -0.1068     0.6050 H       
  34 H34           -5.7568    -1.9892     1.0897 H       
  35 H35           -3.1410    -2.1448    -1.3111 H       
  36 H36           -5.2558    -1.0277    -2.0822 H       
  37 H37           -4.4714     0.5508    -1.8346 H       
  38 H38           -4.2213    -0.2250    -4.0799 H       
@<TRIPOS>BOND
   1    1    2 1
   2    1    5 1
   3    2    3 2
   4    2   11 1
   5    3    4 1
   6    4    5 ar
   7    4    6 ar
   8    5    9 ar
   9    6    7 ar
  10    6   22 1
  11    7    8 ar
  12    7   10 1
  13    8    9 ar
  14    8   23 1
  15    9   24 1
  16   10   25 1
  17   10   26 1
  18   10   27 1
  19   11   12 1
  20   11   19 1
  21   11   28 1
  22   12   13 1
  23   12   14 1
  24   12   29 1
  25   13   30 1
  26   14   15 1
  27   14   16 1
  28   14   31 1
  29   15   32 1
  30   16   17 1
  31   16   18 1
  32   16   33 1
  33   17   34 1
  34   18   19 1
  35   18   20 1
  36   18   35 1
  37   20   21 1
  38   20   36 1
  39   20   37 1
  40   21   38 1

#	End of record

