#	Name: ASD01410734
#	Creating user name:	WinNT
#	Creation time:	15. 06. 2019 19:18

#	Modifying user name:	WinNT
#	Modification time:	15. 06. 2019 19:18

#	Program:	/corina/corina34_cracker 3.40 0067  02.08.2006

@<TRIPOS>MOLECULE
ASD01410734
 127  134    0    0    0
SMALL
NO_CHARGES


@<TRIPOS>ATOM
   1 C1             1.4833     0.0804     2.2531 C.3     
   2 C2             1.2677    -1.3271     2.8559 C.3     
   3 N3             0.6852    -1.0721     4.1895 N.am    
   4 C4            -0.0221     0.2138     4.1491 C.3     
   5 C5             0.2121     0.8220     2.7492 C.3     
   6 O6             2.6677     0.6864     2.7747 O.3     
   7 C7            -1.4963    -0.0049     4.3729 C.2     
   8 O8            -1.9230    -1.1263     4.5500 O.2     
   9 N9            -2.3405     1.0456     4.3761 N.am    
  10 C10            2.6222    -2.0132     3.0652 C.3     
  11 C11            1.7586    -3.0599     5.2193 C.3     
  12 C12            0.8291    -1.8795     5.2539 C.2     
  13 O13            0.1967    -1.6505     6.2631 O.2     
  14 C14            0.9627    -4.3328     5.5144 C.3     
  15 O15            0.0593    -4.5901     4.4375 O.3     
  16 C16           -3.7833     0.8255     4.5039 C.3     
  17 C17           -4.4222     0.0396     3.3881 C.2     
  18 N18           -3.9871     0.1918     2.1216 N.am    
  19 O19           -5.3279    -0.7300     3.6297 O.2     
  20 S20           -4.7702    -0.5738     0.8794 S.o2    
  21 C21           -6.4181     0.1839     0.8478 C.3     
  22 C22           -4.3470     0.6369     5.9137 C.3     
  23 C23           -4.6129     1.9368     5.1503 C.3     
  24 C24           -7.4428    -0.3943    -0.1303 C.3     
  25 C25           -7.5892    -0.6501     1.3710 C.3     
  26 O26           -4.0314    -0.2091    -0.2783 O.2     
  27 O27           -4.8524    -1.9289     1.2992 O.2     
  28 C28           -5.4990    -0.3203     6.0801 C.2     
  29 C29           -5.3765    -1.3628     6.8639 C.2     
  30 C30            3.2414     1.6612     2.0265 C.ar    
  31 C31            4.4593     2.2602     2.4247 C.ar    
  32 C32            2.6595     2.0880     0.8617 C.ar    
  33 C33            3.2725     3.0970     0.1064 C.ar    
  34 N34            4.4086     3.6542     0.4901 N.ar    
  35 C35            5.0249     3.2753     1.6142 C.ar    
  36 C36            2.6346     3.5483    -1.1481 C.2     
  37 C37            6.2323     3.8758     2.0118 C.ar    
  38 C38            6.8451     3.4657     3.1748 C.ar    
  39 C39            6.2802     2.4593     3.9635 C.ar    
  40 C40            5.1095     1.8658     3.6031 C.ar    
  41 Cl41           6.9467     5.1261     1.0422 Cl      
  42 O42            8.0120     4.0455     3.5599 O.3     
  43 C43            8.5990     3.5770     4.7756 C.3     
  44 C44            0.1716    -4.1506     6.8112 C.3     
  45 N45            3.0964     4.4730    -1.9407 N.2     
  46 C46            9.8970     4.3416     5.0430 C.3     
  47 N47            9.5907     5.7586     5.2800 N.3     
  48 C48           10.7745     6.4785     5.7716 C.3     
  49 C49            2.3947     4.7441    -3.0145 C.2     
  50 C50            1.2723     4.0311    -3.1736 C.2     
  51 S51            1.1314     2.9166    -1.8154 S.3     
  52 C52            2.8242     5.7931    -4.0076 C.3     
  53 C53            3.6029     5.1298    -5.1454 C.3     
  54 C54            1.5884     6.4937    -4.5759 C.3     
  55 C55           10.4279     7.9593     5.9480 C.3     
  56 O56            9.3132     8.0804     6.8357 O.3     
  57 C57            8.1427     7.3917     6.3874 C.3     
  58 C58            8.4661     5.9052     6.2156 C.3     
  59 C59           -0.2212    -5.9763     4.2326 C.3     
  60 N60            2.4033    -3.1910     3.9146 N.am    
  61 O61            3.4495    -4.5259     2.3123 O.3     
  62 C62            3.8482    -5.8641     1.9139 C.3     
  63 C63            2.6073    -6.7506     1.7911 C.3     
  64 C64            4.5661    -5.8017     0.5643 C.3     
  65 C65            4.7913    -6.4499     2.9667 C.3     
  66 C66            2.8011    -4.4053     3.4861 C.2     
  67 O67            2.5746    -5.3913     4.1592 O.2     
  68 H68            1.5139     0.0397     1.1642 H       
  69 H69            0.5987    -1.9256     2.2375 H       
  70 H70            0.3762     0.8801     4.9142 H       
  71 H71            0.3946     1.8942     2.8205 H       
  72 H72           -0.6342     0.6169     2.0935 H       
  73 H73           -1.9929     1.9474     4.2939 H       
  74 H74            3.0316    -2.3227     2.1036 H       
  75 H75            3.3115    -1.3267     3.5568 H       
  76 H76            2.5249    -2.9332     5.9841 H       
  77 H77            1.6483    -5.1733     5.6221 H       
  78 H78           -3.2154     0.7499     1.9376 H       
  79 H79           -6.4449     1.2585     1.0279 H       
  80 H80           -3.6444     0.6765     6.7461 H       
  81 H81           -4.0853     2.8315     5.4808 H       
  82 H82           -5.6209     2.0992     4.7687 H       
  83 H83           -8.1440     0.3000    -0.5933 H       
  84 H84           -7.1267    -1.2299    -0.7548 H       
  85 H85           -7.3695    -1.6540     1.7343 H       
  86 H86           -8.3868    -0.1241     1.8958 H       
  87 H87           -6.4257    -0.1468     5.5532 H       
  88 H88           -6.2021    -2.0488     6.9831 H       
  89 H89           -4.4498    -1.5363     7.3908 H       
  90 H90            1.7318     1.6481     0.5265 H       
  91 H91            6.7767     2.1517     4.8719 H       
  92 H92            4.6837     1.0896     4.2217 H       
  93 H93            7.9051     3.7396     5.6003 H       
  94 H94            8.8159     2.5125     4.6878 H       
  95 H95           -0.5141    -3.3101     6.7035 H       
  96 H96           -0.3955    -5.0574     7.0214 H       
  97 H97            0.8607    -3.9543     7.6327 H       
  98 H98           10.3900     3.9246     5.9211 H       
  99 H99           10.5560     4.2519     4.1794 H       
 100 H100          11.0829     6.0603     6.7298 H       
 101 H101          11.5866     6.3780     5.0516 H       
 102 H102           0.5762     4.1204    -3.9945 H       
 103 H103           3.4605     6.5253    -3.5104 H       
 104 H104           2.9666     4.3977    -5.6426 H       
 105 H105           3.9135     5.8886    -5.8637 H       
 106 H106           4.4832     4.6307    -4.7405 H       
 107 H107           0.9522     5.7615    -5.0731 H       
 108 H108           1.0337     6.9663    -3.7653 H       
 109 H109           1.8991     7.2524    -5.2942 H       
 110 H110          11.2854     8.4864     6.3663 H       
 111 H111          10.1712     8.3907     4.9804 H       
 112 H112           7.3474     7.5085     7.1236 H       
 113 H113           7.8196     7.8067     5.4327 H       
 114 H114           7.5932     5.3862     5.8196 H       
 115 H115           8.7376     5.4778     7.1808 H       
 116 H116          -0.6688    -6.3936     5.1346 H       
 117 H117          -0.9138    -6.0874     3.3984 H       
 118 H118           0.7052    -6.5052     4.0087 H       
 119 H119           1.9354    -6.3332     1.0411 H       
 120 H120           2.9065    -7.7551     1.4920 H       
 121 H121           2.0958    -6.7950     2.7526 H       
 122 H122           5.4501    -5.1701     0.6518 H       
 123 H123           4.8654    -6.8063     0.2652 H       
 124 H124           3.8942    -5.3844    -0.1857 H       
 125 H125           4.2798    -6.4943     3.9282 H       
 126 H126           5.0906    -7.4544     2.6676 H       
 127 H127           5.6753    -5.8183     3.0542 H       
@<TRIPOS>BOND
   1    1    2 1
   2    1    6 1
   3    1    5 1
   4    1   68 1
   5    2    3 1
   6    2   10 1
   7    2   69 1
   8    3    4 1
   9    3   12 am
  10    4    5 1
  11    4    7 1
  12    4   70 1
  13    5   71 1
  14    5   72 1
  15    6   30 1
  16    7    8 2
  17    7    9 am
  18    9   16 1
  19    9   73 1
  20   10   60 1
  21   10   74 1
  22   10   75 1
  23   11   12 1
  24   11   14 1
  25   11   60 1
  26   11   76 1
  27   12   13 2
  28   14   15 1
  29   14   44 1
  30   14   77 1
  31   15   59 1
  32   16   17 1
  33   16   22 1
  34   16   23 1
  35   17   18 am
  36   17   19 2
  37   18   20 am
  38   18   78 1
  39   20   21 1
  40   20   26 2
  41   20   27 2
  42   21   24 1
  43   21   25 1
  44   21   79 1
  45   22   23 1
  46   22   28 1
  47   22   80 1
  48   23   81 1
  49   23   82 1
  50   24   25 1
  51   24   83 1
  52   24   84 1
  53   25   85 1
  54   25   86 1
  55   28   29 2
  56   28   87 1
  57   29   88 1
  58   29   89 1
  59   30   31 ar
  60   30   32 ar
  61   31   35 ar
  62   31   40 ar
  63   32   33 ar
  64   32   90 1
  65   33   34 ar
  66   33   36 1
  67   34   35 ar
  68   35   37 ar
  69   36   45 2
  70   36   51 1
  71   37   38 ar
  72   37   41 1
  73   38   39 ar
  74   38   42 1
  75   39   40 ar
  76   39   91 1
  77   40   92 1
  78   42   43 1
  79   43   46 1
  80   43   93 1
  81   43   94 1
  82   44   95 1
  83   44   96 1
  84   44   97 1
  85   45   49 1
  86   46   47 1
  87   46   98 1
  88   46   99 1
  89   47   48 1
  90   47   58 1
  91   48   55 1
  92   48  100 1
  93   48  101 1
  94   49   50 2
  95   49   52 1
  96   50   51 1
  97   50  102 1
  98   52   53 1
  99   52   54 1
 100   52  103 1
 101   53  104 1
 102   53  105 1
 103   53  106 1
 104   54  107 1
 105   54  108 1
 106   54  109 1
 107   55   56 1
 108   55  110 1
 109   55  111 1
 110   56   57 1
 111   57   58 1
 112   57  112 1
 113   57  113 1
 114   58  114 1
 115   58  115 1
 116   59  116 1
 117   59  117 1
 118   59  118 1
 119   60   66 am
 120   61   62 1
 121   61   66 1
 122   62   63 1
 123   62   64 1
 124   62   65 1
 125   63  119 1
 126   63  120 1
 127   63  121 1
 128   64  122 1
 129   64  123 1
 130   64  124 1
 131   65  125 1
 132   65  126 1
 133   65  127 1
 134   66   67 2

#	End of record

