#	Name: ASD03430132
#	Creating user name:	WinNT
#	Creation time:	15. 06. 2019 20:40

#	Modifying user name:	WinNT
#	Modification time:	15. 06. 2019 20:40

#	Program:	/corina/corina34_cracker 3.40 0067  02.08.2006

@<TRIPOS>MOLECULE
ASD03430132
  61   68    0    0    0
SMALL
NO_CHARGES


@<TRIPOS>ATOM
   1 C1             1.7701     0.2914    -1.5704 C.ar    
   2 C2             1.5577    -1.0030    -1.1498 C.ar    
   3 C3             2.5424    -1.6759    -0.4575 C.ar    
   4 C4             3.7529    -1.0505    -0.1696 C.ar    
   5 C5             3.9628     0.2521    -0.6059 C.ar    
   6 C6             2.9765     0.9310    -1.3115 C.ar    
   7 O7             4.5721    -1.8712     0.5476 O.3     
   8 C8             2.6323    -3.0681     0.1056 C.3     
   9 C9             4.1305    -3.2338     0.3971 C.3     
  10 C10            0.9299    -4.2928     1.0639 C.ar    
  11 C11            1.7995    -3.2435     1.3402 C.ar    
  12 C12            2.1360    -4.1066    -0.8594 C.2     
  13 N13            1.1512    -4.7763    -0.2283 N.am    
  14 O14            2.5416    -4.3037    -1.9854 O.2     
  15 C15            1.7609    -2.6023     2.5714 C.ar    
  16 C16            0.8444    -3.0150     3.5401 C.ar    
  17 C17           -0.0173    -4.0576     3.2661 C.ar    
  18 C18            0.0208    -4.6935     2.0412 C.ar    
  19 C19            2.6902    -1.4836     2.8562 C.2     
  20 C20            0.8945     1.2773    -2.3187 C.3     
  21 C21            1.6348     2.6133    -2.0732 C.3     
  22 O22            2.9875     2.1884    -1.8351 O.3     
  23 C23            0.4004    -5.8826    -0.8272 C.3     
  24 C24           -0.8292    -5.3312    -1.5519 C.3     
  25 C25           -1.6262    -6.4877    -2.1858 C.3     
  26 C26           -3.0311    -6.3764    -1.5449 C.3     
  27 C27           -3.0517    -4.9039    -1.0616 C.3     
  28 O28           -1.6985    -4.6780    -0.6118 O.3     
  29 C29            2.3184    -0.2064     2.8011 C.2     
  30 S30            3.6513     0.8624     3.1913 S.3     
  31 C31            4.7550    -0.4846     3.4383 C.ar    
  32 C32            4.0878    -1.6917     3.2265 C.ar    
  33 C33            6.1075    -0.4936     3.7969 C.ar    
  34 C34            6.7786    -1.6854     3.9339 C.ar    
  35 C35            6.1179    -2.8868     3.7170 C.ar    
  36 C36            4.8000    -2.8994     3.3753 C.ar    
  37 H37            0.6182    -1.4916    -1.3622 H       
  38 H38            4.9016     0.7421    -0.3940 H       
  39 H39            4.6368    -3.7146    -0.4399 H       
  40 H40            4.2857    -3.7949     1.3187 H       
  41 H41            0.8101    -2.5208     4.4998 H       
  42 H42           -0.7261    -4.3785     4.0151 H       
  43 H43           -0.6592    -5.5079     1.8389 H       
  44 H44            0.8615     1.0399    -3.3820 H       
  45 H45           -0.1098     1.3051    -1.8960 H       
  46 H46            1.5803     3.2526    -2.9544 H       
  47 H47            1.2308     3.1237    -1.1989 H       
  48 H48            1.0357    -6.4095    -1.5391 H       
  49 H49            0.0824    -6.5715    -0.0447 H       
  50 H50           -0.5193    -4.6275    -2.3244 H       
  51 H51           -1.6888    -6.3606    -3.2665 H       
  52 H52           -1.1693    -7.4461    -1.9392 H       
  53 H53           -3.8114    -6.5539    -2.2849 H       
  54 H54           -3.1306    -7.0631    -0.7043 H       
  55 H55           -3.2996    -4.2333    -1.8844 H       
  56 H56           -3.7555    -4.7798    -0.2386 H       
  57 H57            1.3231     0.1281     2.5480 H       
  58 H58            6.6257     0.4386     3.9663 H       
  59 H59            7.8226    -1.6871     4.2105 H       
  60 H60            6.6520    -3.8191     3.8258 H       
  61 H61            4.2982    -3.8413     3.2099 H       
@<TRIPOS>BOND
   1    1    2 ar
   2    1    6 ar
   3    1   20 1
   4    2    3 ar
   5    2   37 1
   6    3    4 ar
   7    3    8 1
   8    4    5 ar
   9    4    7 1
  10    5    6 ar
  11    5   38 1
  12    6   22 1
  13    7    9 1
  14    8    9 1
  15    8   11 1
  16    8   12 1
  17    9   39 1
  18    9   40 1
  19   10   11 ar
  20   10   13 1
  21   10   18 ar
  22   11   15 ar
  23   12   13 am
  24   12   14 2
  25   13   23 1
  26   15   16 ar
  27   15   19 1
  28   16   17 ar
  29   16   41 1
  30   17   18 ar
  31   17   42 1
  32   18   43 1
  33   19   29 2
  34   19   32 1
  35   20   21 1
  36   20   44 1
  37   20   45 1
  38   21   22 1
  39   21   46 1
  40   21   47 1
  41   23   24 1
  42   23   48 1
  43   23   49 1
  44   24   25 1
  45   24   28 1
  46   24   50 1
  47   25   26 1
  48   25   51 1
  49   25   52 1
  50   26   27 1
  51   26   53 1
  52   26   54 1
  53   27   28 1
  54   27   55 1
  55   27   56 1
  56   29   30 1
  57   29   57 1
  58   30   31 1
  59   31   32 ar
  60   31   33 ar
  61   32   36 ar
  62   33   34 ar
  63   33   58 1
  64   34   35 ar
  65   34   59 1
  66   35   36 ar
  67   35   60 1
  68   36   61 1

#	End of record

