#	Name: ASD01810250
#	Creating user name:	WinNT
#	Creation time:	15. 06. 2019 19:24

#	Modifying user name:	WinNT
#	Modification time:	15. 06. 2019 19:24

#	Program:	/corina/corina34_cracker 3.40 0067  02.08.2006

@<TRIPOS>MOLECULE
ASD01810250
  45   48    0    0    0
SMALL
NO_CHARGES


@<TRIPOS>ATOM
   1 C1             0.0982     1.4760     0.3584 C.ar    
   2 C2             0.0801     0.0884     0.3505 C.ar    
   3 C3             1.2499    -0.6304     0.2196 C.ar    
   4 C4             2.4673     0.0387     0.0929 C.ar    
   5 C5             2.4808     1.4431     0.1008 C.ar    
   6 C6             1.2891     2.1563     0.2346 C.ar    
   7 N7             3.6442    -0.6674    -0.0382 N.pl3   
   8 C8             4.8372    -0.0726    -0.1623 C.2     
   9 C9             4.9772     1.3008    -0.1678 C.2     
  10 C10            3.7745     2.1384    -0.0340 C.2     
  11 O11            3.8447     3.3549    -0.0334 O.2     
  12 C12            6.3049     1.9160    -0.3049 C.2     
  13 O13            6.4286     3.2584    -0.3088 O.3     
  14 O14            7.2915     1.2144    -0.4147 O.2     
  15 C15            3.5869    -2.1313    -0.0413 C.3     
  16 C16            3.4437    -2.6254    -1.4578 C.ar    
  17 C17            4.5585    -2.7705    -2.2623 C.ar    
  18 N18            4.4464    -3.2011    -3.5025 N.ar    
  19 C19            3.2682    -3.5115    -4.0270 C.ar    
  20 C20            2.1030    -3.3895    -3.2727 C.ar    
  21 C21            2.1920    -2.9445    -1.9652 C.ar    
  22 C22            3.1904    -3.9920    -5.4284 C.ar    
  23 F23            1.2168    -1.9809     0.2146 F       
  24 C24            4.3498    -4.1162    -6.1890 C.ar    
  25 C25            4.2701    -4.5661    -7.4989 C.ar    
  26 C26            3.0354    -4.8910    -8.0474 C.ar    
  27 C27            1.8850    -4.7668    -7.2915 C.ar    
  28 C28            1.9566    -4.3257    -5.9854 C.ar    
  29 N29            5.4306    -4.6920    -8.2663 N.pl3   
  30 H30           -0.8265     2.0250     0.4575 H       
  31 H31           -0.8599    -0.4342     0.4483 H       
  32 H32            1.3004     3.2362     0.2403 H       
  33 H33            5.7194    -0.6877    -0.2612 H       
  34 H34            7.3220     3.6166    -0.4014 H       
  35 H35            4.5033    -2.5317     0.3923 H       
  36 H36            2.7314    -2.4626     0.5473 H       
  37 H37            5.5345    -2.5272    -1.8691 H       
  38 H38            1.1444    -3.6422    -3.7012 H       
  39 H39            1.3062    -2.8399    -1.3562 H       
  40 H40            5.3083    -3.8628    -5.7607 H       
  41 H41            2.9744    -5.2411    -9.0673 H       
  42 H42            0.9276    -5.0201    -7.7224 H       
  43 H43            1.0555    -4.2299    -5.3978 H       
  44 H44            6.2923    -4.4649    -7.8833 H       
  45 H45            5.3746    -5.0066    -9.1822 H       
@<TRIPOS>BOND
   1    1    2 ar
   2    1    6 ar
   3    1   30 1
   4    2    3 ar
   5    2   31 1
   6    3    4 ar
   7    3   23 1
   8    4    5 ar
   9    4    7 1
  10    5    6 ar
  11    5   10 1
  12    6   32 1
  13    7    8 1
  14    7   15 1
  15    8    9 2
  16    8   33 1
  17    9   10 1
  18    9   12 1
  19   10   11 2
  20   12   13 1
  21   12   14 2
  22   13   34 1
  23   15   16 1
  24   15   35 1
  25   15   36 1
  26   16   17 ar
  27   16   21 ar
  28   17   18 ar
  29   17   37 1
  30   18   19 ar
  31   19   20 ar
  32   19   22 1
  33   20   21 ar
  34   20   38 1
  35   21   39 1
  36   22   24 ar
  37   22   28 ar
  38   24   25 ar
  39   24   40 1
  40   25   26 ar
  41   25   29 1
  42   26   27 ar
  43   26   41 1
  44   27   28 ar
  45   27   42 1
  46   28   43 1
  47   29   44 1
  48   29   45 1

#	End of record

