#	Name: ASD01885447
#	Creating user name:	WinNT
#	Creation time:	15. 06. 2019 19:49

#	Modifying user name:	WinNT
#	Modification time:	15. 06. 2019 19:49

#	Program:	/corina/corina34_cracker 3.40 0067  02.08.2006

@<TRIPOS>MOLECULE
ASD01885447
  38   40    0    0    0
SMALL
NO_CHARGES


@<TRIPOS>ATOM
   1 C1            -0.0169     1.3920     0.0097 C.ar    
   2 C2             0.0021    -0.0041     0.0020 C.ar    
   3 N3            -1.1141    -0.7731     0.0202 N.2     
   4 C4            -2.1908    -0.5678    -0.6467 C.2     
   5 C5            -2.3522     0.6326    -1.5420 C.3     
   6 C6            -2.2799     1.8710    -0.6849 C.2     
   7 N7            -1.1827     2.1468     0.0191 N.am    
   8 C8             1.1873     2.0915     0.0020 C.ar    
   9 C9             2.4012     1.4088    -0.0188 C.ar    
  10 C10            2.4112     0.0104    -0.0319 C.ar    
  11 C11            1.2376    -0.6789    -0.0216 C.ar    
  12 C12           -3.2990    -1.5327    -0.5340 C.ar    
  13 O13           -3.2292     2.6245    -0.6376 O.2     
  14 C14           -4.4921    -1.3462    -1.2451 C.ar    
  15 C15           -5.5034    -2.2753    -1.1091 C.ar    
  16 N16           -5.3583    -3.3251    -0.3242 N.ar    
  17 C17           -4.2529    -3.5394     0.3630 C.ar    
  18 C18           -3.1877    -2.6662     0.2831 C.ar    
  19 C19            3.6729     2.1588    -0.0273 C.2     
  20 O20            3.6617     3.3746    -0.0162 O.2     
  21 N21            4.8461     1.4958    -0.0474 N.am    
  22 C22            6.0132     2.1842    -0.0552 C.1     
  23 C23            7.0244     2.7806    -0.0620 C.1     
  24 C24           -4.1496    -4.7587     1.2427 C.3     
  25 H25           -1.5520     0.6499    -2.2819 H       
  26 H26           -3.3183     0.5891    -2.0449 H       
  27 H27           -1.1998     2.9346     0.5847 H       
  28 H28            1.1799     3.1714     0.0117 H       
  29 H29            3.3503    -0.5227    -0.0503 H       
  30 H30            1.2543    -1.7587    -0.0314 H       
  31 H31           -4.6182    -0.4885    -1.8892 H       
  32 H32           -6.4268    -2.1407    -1.6529 H       
  33 H33           -2.2858    -2.8482     0.8485 H       
  34 H34            4.8550     0.5259    -0.0562 H       
  35 H35            7.9288     3.3140    -0.0681 H       
  36 H36           -3.7390    -5.5882     0.6671 H       
  37 H37           -3.4949    -4.5430     2.0871 H       
  38 H38           -5.1402    -5.0265     1.6101 H       
@<TRIPOS>BOND
   1    1    2 ar
   2    1    8 ar
   3    1    7 1
   4    2    3 1
   5    2   11 ar
   6    3    4 2
   7    4    5 1
   8    4   12 1
   9    5    6 1
  10    5   25 1
  11    5   26 1
  12    6    7 am
  13    6   13 2
  14    7   27 1
  15    8    9 ar
  16    8   28 1
  17    9   10 ar
  18    9   19 1
  19   10   11 ar
  20   10   29 1
  21   11   30 1
  22   12   14 ar
  23   12   18 ar
  24   14   15 ar
  25   14   31 1
  26   15   16 ar
  27   15   32 1
  28   16   17 ar
  29   17   18 ar
  30   17   24 1
  31   18   33 1
  32   19   20 2
  33   19   21 am
  34   21   22 1
  35   21   34 1
  36   22   23 3
  37   23   35 1
  38   24   36 1
  39   24   37 1
  40   24   38 1

#	End of record

