#	Name: ASD01948338
#	Creating user name:	WinNT
#	Creation time:	15. 06. 2019 20:14

#	Modifying user name:	WinNT
#	Modification time:	15. 06. 2019 20:14

#	Program:	/corina/corina34_cracker 3.40 0067  02.08.2006

@<TRIPOS>MOLECULE
ASD01948338
  49   51    0    0    0
SMALL
NO_CHARGES


@<TRIPOS>ATOM
   1 C1             0.3799     1.8528     0.0592 C.2     
   2 N2             0.4583     0.4973    -0.0707 N.am    
   3 C3             1.6464    -0.1343    -0.0650 C.2     
   4 C4             2.7668     1.9708     0.2082 C.2     
   5 C5             1.4994     2.6012     0.1978 C.2     
   6 C6             3.4627     3.8441    -1.7377 C.ar    
   7 C7             4.2432     3.6972    -0.5994 C.ar    
   8 N8             3.9235     2.7191     0.3485 N.pl3   
   9 C9             3.7810     4.8105    -2.6726 C.ar    
  10 C10            4.8764     5.6315    -2.4763 C.ar    
  11 C11            5.6573     5.4893    -1.3428 C.ar    
  12 C12            5.3446     4.5244    -0.4035 C.ar    
  13 N13            1.4038     3.9962     0.3302 N.am    
  14 S14           -0.0810     4.7294     0.3176 S.o2    
  15 C15           -0.8929     4.1335     1.8262 C.3     
  16 O16            1.6898    -1.3496    -0.1835 O.2     
  17 C17           -0.7720    -0.2842    -0.2186 C.3     
  18 F18            6.1069     4.3853     0.7032 F       
  19 I19            5.3541     7.0945    -3.8977 I       
  20 O20            0.2119     6.1158     0.4233 O.2     
  21 O21           -0.7224     4.2019    -0.8355 O.2     
  22 C22            2.8315     0.5941     0.0754 C.2     
  23 C23           -2.2955     4.6638     2.1303 C.3     
  24 C24           -2.1089     3.2198     1.6603 C.3     
  25 C25            0.0345     3.8673     3.0137 C.3     
  26 C26            0.6916     5.1779     3.4513 C.3     
  27 O27            1.6331     4.9139     4.4934 O.3     
  28 C28            4.1635    -0.1109     0.0826 C.3     
  29 F29            4.4833    -0.4901     1.3907 F       
  30 F30            4.0934    -1.2484    -0.7288 F       
  31 F31            5.1501     0.7514    -0.4075 F       
  32 H32           -0.5863     2.3352     0.0469 H       
  33 H33            2.6097     3.2005    -1.8948 H       
  34 H34            4.5121     2.5652     1.1040 H       
  35 H35            3.1735     4.9247    -3.5583 H       
  36 H36            6.5124     6.1317    -1.1925 H       
  37 H37            2.2076     4.5302     0.4291 H       
  38 H38           -1.0188    -0.3768    -1.2762 H       
  39 H39           -0.6258    -1.2763     0.2086 H       
  40 H40           -1.5869     0.2190     0.3020 H       
  41 H41           -2.5577     4.8228     3.1763 H       
  42 H42           -2.7303     5.3708     1.4238 H       
  43 H43           -2.4210     2.9768     0.6446 H       
  44 H44           -2.2483     2.4287     2.3971 H       
  45 H45           -0.5438     3.4567     3.8414 H       
  46 H46            0.8052     3.1547     2.7201 H       
  47 H47            1.2061     5.6276     2.6021 H       
  48 H48           -0.0729     5.8631     3.8174 H       
  49 H49            2.0889     5.7015     4.8205 H       
@<TRIPOS>BOND
   1    1    2 1
   2    1    5 2
   3    1   32 1
   4    2    3 am
   5    2   17 1
   6    3   22 1
   7    3   16 2
   8    4    5 1
   9    4    8 1
  10    4   22 2
  11    5   13 1
  12    6    7 ar
  13    6    9 ar
  14    6   33 1
  15    7    8 1
  16    7   12 ar
  17    8   34 1
  18    9   10 ar
  19    9   35 1
  20   10   11 ar
  21   10   19 1
  22   11   12 ar
  23   11   36 1
  24   12   18 1
  25   13   14 am
  26   13   37 1
  27   14   15 1
  28   14   20 2
  29   14   21 2
  30   15   23 1
  31   15   25 1
  32   15   24 1
  33   17   38 1
  34   17   39 1
  35   17   40 1
  36   22   28 1
  37   23   24 1
  38   23   41 1
  39   23   42 1
  40   24   43 1
  41   24   44 1
  42   25   26 1
  43   25   45 1
  44   25   46 1
  45   26   27 1
  46   26   47 1
  47   26   48 1
  48   27   49 1
  49   28   29 1
  50   28   30 1
  51   28   31 1

#	End of record

