#	Name: ASD01815987
#	Creating user name:	WinNT
#	Creation time:	15. 06. 2019 19:34

#	Modifying user name:	WinNT
#	Modification time:	15. 06. 2019 19:34

#	Program:	/corina/corina34_cracker 3.40 0067  02.08.2006

@<TRIPOS>MOLECULE
ASD01815987
  52   56    0    0    0
SMALL
NO_CHARGES


@<TRIPOS>ATOM
   1 C1            -0.2744     1.1398     0.0076 C.ar    
   2 C2            -0.1599    -0.2410     0.0041 C.ar    
   3 C3             1.0808    -0.8436    -0.0179 C.ar    
   4 C4             2.2328    -0.0653    -0.0368 C.ar    
   5 C5             2.1134     1.3345    -0.0332 C.ar    
   6 C6             0.8566     1.9301    -0.0109 C.ar    
   7 N7             3.4808    -0.6637    -0.0585 N.pl3   
   8 C8             4.6269     0.0358    -0.0769 C.2     
   9 C9             4.6350     1.4085    -0.0760 C.2     
  10 C10            3.3484     2.1412    -0.0536 C.2     
  11 C11            5.6629     2.4446    -0.0931 C.2     
  12 N12            5.0072     3.6253    -0.0817 N.am    
  13 N13            3.6265     3.4133    -0.0581 N.2     
  14 C14            5.6236     4.8830    -0.0917 C.ar    
  15 O15            6.8715     2.2777    -0.1129 O.2     
  16 C16            3.5547    -2.1268    -0.0608 C.3     
  17 C17            6.0037     5.4621    -1.2950 C.ar    
  18 C18            6.6114     6.7025    -1.3018 C.ar    
  19 C19            6.8425     7.3686    -0.1120 C.ar    
  20 C20            6.4659     6.7962     1.0890 C.ar    
  21 C21            5.8513     5.5573     1.1032 C.ar    
  22 F22            5.4829     4.9980     2.2765 F       
  23 C23            3.4170    -2.6421    -1.4948 C.3     
  24 C24            3.2288    -4.6462    -2.8440 C.3     
  25 C25            4.4058    -4.2109    -3.7199 C.3     
  26 C26            4.4681    -2.6815    -3.7592 C.3     
  27 C27            4.5996    -2.1469    -2.3304 C.3     
  28 N28            3.4017    -4.1105    -1.4878 N.3     
  29 C29            2.3633    -4.6219    -0.5833 C.3     
  30 H30           -1.2519     1.5989     0.0204 H       
  31 H31           -1.0507    -0.8515     0.0191 H       
  32 H32            1.1574    -1.9209    -0.0200 H       
  33 H33            0.7664     3.0063    -0.0086 H       
  34 H34            5.5670    -0.4956    -0.0926 H       
  35 H35            4.5143    -2.4428     0.3482 H       
  36 H36            2.7481    -2.5323     0.5500 H       
  37 H37            5.8246     4.9430    -2.2249 H       
  38 H38            6.9070     7.1529    -2.2379 H       
  39 H39            7.3185     8.3379    -0.1210 H       
  40 H40            6.6481     7.3189     2.0164 H       
  41 H41            2.4872    -2.2714    -1.9263 H       
  42 H42            2.2998    -4.2661    -3.2690 H       
  43 H43            3.1902    -5.7348    -2.8024 H       
  44 H44            5.3338    -4.6023    -3.3031 H       
  45 H45            4.2693    -4.5956    -4.7305 H       
  46 H46            5.3308    -2.3670    -4.3466 H       
  47 H47            3.5565    -2.2913    -4.2117 H       
  48 H48            4.6015    -1.0571    -2.3483 H       
  49 H49            5.5307    -2.5059    -1.8918 H       
  50 H50            1.4017    -4.1825    -0.8488 H       
  51 H51            2.3045    -5.7065    -0.6739 H       
  52 H52            2.6130    -4.3560     0.4438 H       
@<TRIPOS>BOND
   1    1    2 ar
   2    1    6 ar
   3    1   30 1
   4    2    3 ar
   5    2   31 1
   6    3    4 ar
   7    3   32 1
   8    4    5 ar
   9    4    7 1
  10    5    6 ar
  11    5   10 1
  12    6   33 1
  13    7    8 1
  14    7   16 1
  15    8    9 2
  16    8   34 1
  17    9   10 1
  18    9   11 1
  19   10   13 2
  20   11   12 am
  21   11   15 2
  22   12   13 1
  23   12   14 1
  24   14   17 ar
  25   14   21 ar
  26   16   23 1
  27   16   35 1
  28   16   36 1
  29   17   18 ar
  30   17   37 1
  31   18   19 ar
  32   18   38 1
  33   19   20 ar
  34   19   39 1
  35   20   21 ar
  36   20   40 1
  37   21   22 1
  38   23   28 1
  39   23   27 1
  40   23   41 1
  41   24   25 1
  42   24   28 1
  43   24   42 1
  44   24   43 1
  45   25   26 1
  46   25   44 1
  47   25   45 1
  48   26   27 1
  49   26   46 1
  50   26   47 1
  51   27   48 1
  52   27   49 1
  53   28   29 1
  54   29   50 1
  55   29   51 1
  56   29   52 1

#	End of record

