#	Name: ASD09740092
#	Creating user name:	WinNT
#	Creation time:	15. 06. 2019 21:22

#	Modifying user name:	WinNT
#	Modification time:	15. 06. 2019 21:22

#	Program:	/corina/corina34_cracker 3.40 0067  02.08.2006

@<TRIPOS>MOLECULE
ASD09740092
  38   41    0    0    0
SMALL
NO_CHARGES


@<TRIPOS>ATOM
   1 O1             0.0036     1.2039    -0.2019 O.3     
   2 N2             0.0143    -0.0072    -0.1406 N.2     
   3 C3             1.2415     1.6827    -0.0008 C.2     
   4 N4             2.0283     0.6397     0.1931 N.2     
   5 C5             1.2249    -0.4401     0.1003 C.2     
   6 C6             1.6388    -1.8590     0.2454 C.ar    
   7 C7             1.6459     3.1025     0.0026 C.ar    
   8 C8             0.7076    -2.8936     0.1271 C.ar    
   9 C9             2.9708    -2.1956     0.4981 C.ar    
  10 C10            3.3127    -3.5269     0.6255 C.ar    
  11 N11            2.4015    -4.4736     0.5118 N.ar    
  12 C12            1.1347    -4.1986     0.2685 C.ar    
  13 C13            0.6949     4.1018    -0.2189 C.ar    
  14 C14            1.0752     5.4251    -0.2153 C.ar    
  15 C15            2.4051     5.7677     0.0087 C.ar    
  16 C16            3.3547     4.7748     0.2292 C.ar    
  17 C17            2.9795     3.4500     0.2329 C.ar    
  18 N18            2.7866     7.1069     0.0118 N.3     
  19 C19            4.1253     7.2764    -0.5823 C.3     
  20 C20            3.9840     8.2743    -1.7508 C.3     
  21 C21            2.6867     9.0474    -1.3953 C.3     
  22 C22            1.8257     7.9333    -0.7495 C.3     
  23 H23           -0.3313    -2.6756    -0.0717 H       
  24 H24            3.7222    -1.4255     0.5920 H       
  25 H25            4.3400    -3.7969     0.8206 H       
  26 H26            0.4214    -5.0050     0.1830 H       
  27 H27           -0.3374     3.8365    -0.3932 H       
  28 H28            0.3405     6.1980    -0.3868 H       
  29 H29            4.3863     5.0438     0.4021 H       
  30 H30            3.7169     2.6798     0.4045 H       
  31 H31            4.8143     7.6735     0.1632 H       
  32 H32            4.4898     6.3189    -0.9544 H       
  33 H33            4.8382     8.9505    -1.7857 H       
  34 H34            3.8705     7.7459    -2.6974 H       
  35 H35            2.8911     9.8458    -0.6820 H       
  36 H36            2.2080     9.4403    -2.2923 H       
  37 H37            1.3383     7.3358    -1.5199 H       
  38 H38            1.0840     8.3675    -0.0790 H       
@<TRIPOS>BOND
   1    1    2 1
   2    1    3 1
   3    2    5 2
   4    3    4 2
   5    3    7 1
   6    4    5 1
   7    5    6 1
   8    6    8 ar
   9    6    9 ar
  10    7   13 ar
  11    7   17 ar
  12    8   12 ar
  13    8   23 1
  14    9   10 ar
  15    9   24 1
  16   10   11 ar
  17   10   25 1
  18   11   12 ar
  19   12   26 1
  20   13   14 ar
  21   13   27 1
  22   14   15 ar
  23   14   28 1
  24   15   16 ar
  25   15   18 1
  26   16   17 ar
  27   16   29 1
  28   17   30 1
  29   18   19 1
  30   18   22 1
  31   19   20 1
  32   19   31 1
  33   19   32 1
  34   20   21 1
  35   20   33 1
  36   20   34 1
  37   21   22 1
  38   21   35 1
  39   21   36 1
  40   22   37 1
  41   22   38 1

#	End of record

