#	Name: ASD03091970
#	Creating user name:	WinNT
#	Creation time:	15. 06. 2019 20:31

#	Modifying user name:	WinNT
#	Modification time:	15. 06. 2019 20:31

#	Program:	/corina/corina34_cracker 3.40 0067  02.08.2006

@<TRIPOS>MOLECULE
ASD03091970
  51   54    0    0    0
SMALL
NO_CHARGES


@<TRIPOS>ATOM
   1 C1             0.0130     1.6815    -0.3060 C.ar    
   2 C2            -1.2257     2.2779    -0.1504 C.ar    
   3 C3            -2.3653     1.4964    -0.1238 C.ar    
   4 C4            -2.2798     0.1195    -0.2516 C.ar    
   5 C5            -1.0520    -0.4915    -0.4075 C.ar    
   6 C6             0.1012     0.2863    -0.4353 C.ar    
   7 O7             1.1552     2.4108    -0.3318 O.3     
   8 C8             2.3268     1.8102     0.2202 C.3     
   9 N9             2.5151     0.4561    -0.3013 N.am    
  10 C10            1.4414    -0.3146    -0.5934 C.2     
  11 C11           -3.5339    -0.7155    -0.2199 C.3     
  12 C12           -3.1827    -2.1592    -0.4722 C.ar    
  13 C13           -3.1323    -2.6514    -1.7625 C.ar    
  14 C14           -2.9006    -3.0083     0.5871 C.ar    
  15 C15           -2.5821    -4.3282     0.3083 C.ar    
  16 C16           -2.5563    -4.7515    -1.0086 C.ar    
  17 N17           -2.8258    -3.9134    -1.9918 N.ar    
  18 O18            1.5755    -1.4618    -0.9733 O.2     
  19 C19            3.8681    -0.0664    -0.5075 C.3     
  20 C20            4.0659    -1.3242     0.3426 C.3     
  21 O21            5.3656    -1.8647     0.0960 O.3     
  22 C22            4.0595    -0.4229    -1.9849 C.3     
  23 C23            5.4487    -1.0399    -2.1741 C.3     
  24 C24            5.5855    -2.2600    -1.2596 C.3     
  25 O25            3.9492     0.7593    -2.7801 O.3     
  26 C26           -3.7135     2.1480     0.0463 C.3     
  27 C27           -4.0955     2.1504     1.5279 C.3     
  28 Cl28          -2.1583    -6.4017    -1.3721 Cl      
  29 H29           -1.3019     3.3505    -0.0498 H       
  30 H30           -0.9870    -1.5650    -0.5067 H       
  31 H31            3.1952     2.4169    -0.0365 H       
  32 H32            2.2296     1.7661     1.3049 H       
  33 H33           -4.0078    -0.6223     0.7573 H       
  34 H34           -4.2211    -0.3685    -0.9916 H       
  35 H35           -3.3468    -1.9950    -2.5928 H       
  36 H36           -2.9281    -2.6496     1.6055 H       
  37 H37           -2.3565    -5.0172     1.1088 H       
  38 H38            4.5985     0.6889    -0.2175 H       
  39 H39            3.9731    -1.0679     1.3980 H       
  40 H40            3.3090    -2.0632     0.0799 H       
  41 H41            3.2974    -1.1406    -2.2885 H       
  42 H42            5.5724    -1.3473    -3.2125 H       
  43 H43            6.2117    -0.3050    -1.9174 H       
  44 H44            6.5873    -2.6779    -1.3584 H       
  45 H45            4.8484    -3.0113    -1.5432 H       
  46 H46            4.0602     0.6071    -3.7285 H       
  47 H47           -3.6700     3.1739    -0.3193 H       
  48 H48           -4.4601     1.5917    -0.5205 H       
  49 H49           -4.1390     1.1244     1.8935 H       
  50 H50           -3.3489     2.7067     2.0947 H       
  51 H51           -5.0706     2.6216     1.6509 H       
@<TRIPOS>BOND
   1    1    6 ar
   2    1    7 1
   3    1    2 ar
   4    2    3 ar
   5    2   29 1
   6    3    4 ar
   7    3   26 1
   8    4    5 ar
   9    4   11 1
  10    5    6 ar
  11    5   30 1
  12    6   10 1
  13    7    8 1
  14    8    9 1
  15    8   31 1
  16    8   32 1
  17    9   10 am
  18    9   19 1
  19   10   18 2
  20   11   12 1
  21   11   33 1
  22   11   34 1
  23   12   14 ar
  24   12   13 ar
  25   13   17 ar
  26   13   35 1
  27   14   15 ar
  28   14   36 1
  29   15   16 ar
  30   15   37 1
  31   16   17 ar
  32   16   28 1
  33   19   22 1
  34   19   20 1
  35   19   38 1
  36   20   21 1
  37   20   39 1
  38   20   40 1
  39   21   24 1
  40   22   23 1
  41   22   25 1
  42   22   41 1
  43   23   24 1
  44   23   42 1
  45   23   43 1
  46   24   44 1
  47   24   45 1
  48   25   46 1
  49   26   27 1
  50   26   47 1
  51   26   48 1
  52   27   49 1
  53   27   50 1
  54   27   51 1

#	End of record

