#	Name: ASD01328022
#	Creating user name:	WinNT
#	Creation time:	15. 06. 2019 19:16

#	Modifying user name:	WinNT
#	Modification time:	15. 06. 2019 19:16

#	Program:	/corina/corina34_cracker 3.40 0067  02.08.2006

@<TRIPOS>MOLECULE
ASD01328022
  80   84    0    0    0
SMALL
NO_CHARGES


@<TRIPOS>ATOM
   1 C1            -0.0301     2.0998     0.1121 C.3     
   2 C2            -0.4533     0.5997     0.2044 C.3     
   3 C3             0.0022     0.0115    -1.1473 C.3     
   4 C4             1.4853     2.2337     0.0329 C.3     
   5 C5             1.8353     3.6803    -0.1760 C.3     
   6 C6             2.1206     1.8683     1.4170 C.3     
   7 C7             2.1092     1.3544    -1.0895 C.3     
   8 C8             3.5815     1.3767    -1.0413 C.3     
   9 C9             4.2452     0.2890    -0.0765 C.3     
  10 C10            3.6218    -1.0156    -0.2308 C.3     
  11 C11            4.1995    -1.7167    -1.4316 C.3     
  12 C12            4.0192    -1.8781     1.0520 C.3     
  13 C13            3.6967    -1.1553     2.3305 C.3     
  14 C14            5.4654    -2.1750     1.0119 C.3     
  15 C15            5.9046    -3.2035     2.0726 C.3     
  16 C16            5.1081    -4.5354     1.9397 C.3     
  17 C17            5.4473    -4.9761     0.5483 C.2     
  18 C18            5.5853    -5.5245     2.8858 C.2     
  19 C19            4.7603    -6.4250     3.4044 C.2     
  20 C20            3.2305    -6.4655     3.2072 C.3     
  21 C21            2.8399    -7.8584     2.8246 C.3     
  22 C22            2.5505    -6.0322     4.4404 C.3     
  23 C23            2.8332    -5.5190     1.9853 C.3     
  24 C24            3.6739    -4.2003     2.1006 C.3     
  25 H25            3.5020    -3.7324     3.1311 H       
  26 C26            3.2108    -3.1689     1.0147 C.2     
  27 C27            2.1866    -3.4163     0.3482 C.2     
  28 C28            1.6397    -2.4135    -0.6800 C.3     
  29 C29            2.0870    -1.0579    -0.2946 C.3     
  30 C30            1.5290     0.0250    -1.2589 C.3     
  31 C31            1.7693    -0.3449    -2.7661 C.3     
  32 O32            4.5705    -5.1195    -0.2707 O.2     
  33 O33            6.7251    -5.2115     0.2116 O.3     
  34 O34           -0.6109     2.7077    -0.9829 O.3     
  35 O35           -1.8676     0.5059     0.2876 O.3     
  36 H36            1.7804     1.9096    -1.9762 H       
  37 H37            1.6681    -0.8460     0.7082 H       
  38 H38           -0.3638     2.6224     1.0498 H       
  39 H39            0.0858     0.1577     0.9947 H       
  40 H40           -0.3399    -1.0537    -1.1878 H       
  41 H41           -0.4324     0.5496    -1.9501 H       
  42 H42            1.4562     4.2701     0.6586 H       
  43 H43            2.9185     3.7874    -0.2342 H       
  44 H44            1.3850     4.0327    -1.1040 H       
  45 H45            1.9745     0.8065     1.6149 H       
  46 H46            3.1875     2.0908     1.3971 H       
  47 H47            1.6421     2.4535     2.2023 H       
  48 H48            4.0067     1.0821    -2.0248 H       
  49 H49            4.0562     2.3513    -0.8355 H       
  50 H50            5.3297     0.2704    -0.3699 H       
  51 H51            4.2760     0.7701     0.9391 H       
  52 H52            5.2863    -1.7399    -1.3509 H       
  53 H53            3.8167    -2.7363    -1.4761 H       
  54 H54            3.9138    -1.1815    -2.3372 H       
  55 H55            2.6268    -0.9512     2.3726 H       
  56 H56            3.9820    -1.7753     3.1803 H       
  57 H57            4.2474    -0.2153     2.3653 H       
  58 H58            5.9290    -2.4280     0.0870 H       
  59 H59            6.0079    -1.2271     1.2658 H       
  60 H60            6.9529    -3.3866     2.0675 H       
  61 H61            5.6777    -2.8181     3.0760 H       
  62 H62            6.6121    -5.6490     3.1277 H       
  63 H63            5.1777    -7.0805     4.1330 H       
  64 H64            3.1321    -8.5482     3.6164 H       
  65 H65            1.7605    -7.9066     2.6807 H       
  66 H66            3.3427    -8.1351     1.8979 H       
  67 H67            2.8533    -5.0138     4.6837 H       
  68 H68            1.4713    -6.0643     4.2907 H       
  69 H69            2.8237    -6.6979     5.2591 H       
  70 H70            3.0407    -6.0386     1.0671 H       
  71 H71            1.7618    -5.2443     2.1098 H       
  72 H72            1.7117    -4.3461     0.3675 H       
  73 H73            1.9062    -2.6939    -1.7013 H       
  74 H74            0.5477    -2.4692    -0.5230 H       
  75 H75            1.1573     0.2970    -3.3998 H       
  76 H76            2.8215    -0.2016    -3.0121 H       
  77 H77            1.4959    -1.3868    -2.9326 H       
  78 H78            6.8947    -5.4939    -0.6976 H       
  79 H79           -1.5778     2.6971    -0.9718 H       
  80 H80           -2.2471     0.9551     1.0552 H       
@<TRIPOS>BOND
   1    1    2 1
   2    1    4 1
   3    1   34 1
   4    1   38 1
   5    2    3 1
   6    2   35 1
   7    2   39 1
   8    3   30 1
   9    3   40 1
  10    3   41 1
  11    4    5 1
  12    4    6 1
  13    4    7 1
  14    5   42 1
  15    5   43 1
  16    5   44 1
  17    6   45 1
  18    6   46 1
  19    6   47 1
  20    7    8 1
  21    7   30 1
  22    7   36 1
  23    8    9 1
  24    8   48 1
  25    8   49 1
  26    9   10 1
  27    9   50 1
  28    9   51 1
  29   10   11 1
  30   10   12 1
  31   10   29 1
  32   11   52 1
  33   11   53 1
  34   11   54 1
  35   12   13 1
  36   12   14 1
  37   12   26 1
  38   13   55 1
  39   13   56 1
  40   13   57 1
  41   14   15 1
  42   14   58 1
  43   14   59 1
  44   15   16 1
  45   15   60 1
  46   15   61 1
  47   16   17 1
  48   16   18 1
  49   16   24 1
  50   17   32 2
  51   17   33 1
  52   18   19 2
  53   18   62 1
  54   19   20 1
  55   19   63 1
  56   20   21 1
  57   20   22 1
  58   20   23 1
  59   21   64 1
  60   21   65 1
  61   21   66 1
  62   22   67 1
  63   22   68 1
  64   22   69 1
  65   23   24 1
  66   23   70 1
  67   23   71 1
  68   24   25 1
  69   24   26 1
  70   26   27 2
  71   27   28 1
  72   27   72 1
  73   28   29 1
  74   28   73 1
  75   28   74 1
  76   29   37 1
  77   29   30 1
  78   30   31 1
  79   31   75 1
  80   31   76 1
  81   31   77 1
  82   33   78 1
  83   34   79 1
  84   35   80 1

#	End of record

