#	Name: ASD05430308
#	Creating user name:	WinNT
#	Creation time:	15. 06. 2019 21:00

#	Modifying user name:	WinNT
#	Modification time:	15. 06. 2019 21:00

#	Program:	/corina/corina34_cracker 3.40 0067  02.08.2006

@<TRIPOS>MOLECULE
ASD05430308
  70   75    0    0    0
SMALL
NO_CHARGES


@<TRIPOS>ATOM
   1 C1            -0.0162     1.5163     0.0504 C.ar    
   2 C2            -0.0098     0.1267    -0.0668 C.ar    
   3 C3             1.1944    -0.5627    -0.1307 C.ar    
   4 C4             2.3884     0.1230    -0.0783 C.ar    
   5 C5             2.3897     1.5170     0.0392 C.ar    
   6 C6             1.1777     2.2110     0.1031 C.ar    
   7 O7             4.8506     0.2286     0.4193 O.3     
   8 C8             4.8290     1.5752     0.1844 C.2     
   9 C9             3.6639     2.2511     0.0959 C.2     
  10 C10            6.0763    -0.3136     0.9215 C.3     
  11 C11            6.9707     0.6648     1.6941 C.3     
  12 N12            7.1652     1.8581     0.8678 N.pl3   
  13 C13            6.1275     2.2640     0.0313 C.2     
  14 N14           -1.2213    -0.5760    -0.1197 N.pl3   
  15 N15           -2.5144    -0.0302    -0.0674 N.2     
  16 C16           -3.3512    -1.0321    -0.1472 C.2     
  17 N17           -2.6605    -2.1673    -0.2459 N.2     
  18 C18           -1.3775    -1.9089    -0.2366 C.2     
  19 C19           -4.8539    -0.9207    -0.1299 C.3     
  20 C20            8.3989     2.6414     0.9078 C.3     
  21 C21            8.6971     3.1464    -0.5081 C.3     
  22 O22            7.5589     3.8202    -1.0351 O.3     
  23 N23            6.3118     3.1915    -0.8495 N.2     
  24 C24            8.2258     3.8137     1.8389 C.ar    
  25 C25            9.2686     4.6995     2.0362 C.ar    
  26 C26            7.9082     5.9645     3.5467 C.ar    
  27 C27            6.8637     5.0817     3.3453 C.ar    
  28 C28            7.0225     4.0064     2.4913 C.ar    
  29 C29            9.1099     5.7748     2.8902 C.ar    
  30 C30           -1.1284     3.6105     0.2270 C.3     
  31 O31           -1.1966     2.1882     0.1071 O.3     
  32 C32            6.0652    -1.7709     1.3856 C.3     
  33 C33            6.7694    -1.3877     0.0824 C.3     
  34 O34            9.2874     1.3247     2.7292 O.3     
  35 C35            9.5522     1.7617     1.3947 C.3     
  36 C36            9.6880     0.5450     0.4771 C.3     
  37 S37            7.7004     7.3725     4.6649 Du      
  38 F38            9.1388     7.0651     5.3194 F       
  39 F39            7.0013     6.4087     5.7486 F       
  40 F40            8.3994     8.3364     3.5812 F       
  41 F41            7.5155     8.6249     5.6596 F       
  42 F42            6.2619     7.6799     4.0104 F       
  43 H43            1.1948    -1.6389    -0.2214 H       
  44 H44            3.3231    -0.4157    -0.1275 H       
  45 H45            1.1742     3.2872     0.1935 H       
  46 H46            3.6668     3.3307     0.0667 H       
  47 H47            6.4887     0.9415     2.6317 H       
  48 H48            7.9343     0.1985     1.8991 H       
  49 H49           -0.5830    -2.6375    -0.3032 H       
  50 H50           -5.2217    -0.8077    -1.1497 H       
  51 H51           -5.2800    -1.8213     0.3123 H       
  52 H52           -5.1471    -0.0525     0.4604 H       
  53 H53            9.5420     3.8344    -0.4762 H       
  54 H54            8.9456     2.3005    -1.1490 H       
  55 H55           10.2074     4.5512     1.5233 H       
  56 H56            5.9236     5.2321     3.8553 H       
  57 H57            6.2062     3.3170     2.3335 H       
  58 H58            9.9248     6.4664     3.0449 H       
  59 H59           -2.1375     4.0210     0.2616 H       
  60 H60           -0.5978     3.8729     1.1422 H       
  61 H61           -0.5978     4.0225    -0.6314 H       
  62 H62            6.6918    -2.0324     2.2382 H       
  63 H63            5.1249    -2.3167     1.3079 H       
  64 H64            6.2925    -1.6815    -0.8527 H       
  65 H65            7.8594    -1.3972     0.0776 H       
  66 H66            9.9787     0.7612     3.1030 H       
  67 H67           10.4790     2.3352     1.3773 H       
  68 H68           10.5096    -0.0817     0.8240 H       
  69 H69            8.7612    -0.0285     0.4945 H       
  70 H70            9.8900     0.8783    -0.5408 H       
@<TRIPOS>BOND
   1    1    2 ar
   2    1    6 ar
   3    1   31 1
   4    2    3 ar
   5    2   14 1
   6    3    4 ar
   7    3   43 1
   8    4    5 ar
   9    4   44 1
  10    5    6 ar
  11    5    9 1
  12    6   45 1
  13    7    8 1
  14    7   10 1
  15    8    9 2
  16    8   13 1
  17    9   46 1
  18   10   11 1
  19   10   32 1
  20   10   33 1
  21   11   12 1
  22   11   47 1
  23   11   48 1
  24   12   13 1
  25   12   20 1
  26   13   23 2
  27   14   15 1
  28   14   18 1
  29   15   16 2
  30   16   17 1
  31   16   19 1
  32   17   18 2
  33   18   49 1
  34   19   50 1
  35   19   51 1
  36   19   52 1
  37   20   21 1
  38   20   24 1
  39   20   35 1
  40   21   22 1
  41   21   53 1
  42   21   54 1
  43   22   23 1
  44   24   25 ar
  45   24   28 ar
  46   25   29 ar
  47   25   55 1
  48   26   27 ar
  49   26   37 1
  50   26   29 ar
  51   27   28 ar
  52   27   56 1
  53   28   57 1
  54   29   58 1
  55   30   31 1
  56   30   59 1
  57   30   60 1
  58   30   61 1
  59   32   33 1
  60   32   62 1
  61   32   63 1
  62   33   64 1
  63   33   65 1
  64   34   35 1
  65   34   66 1
  66   35   36 1
  67   35   67 1
  68   36   68 1
  69   36   69 1
  70   36   70 1
  71   37   38 1
  72   37   39 1
  73   37   40 1
  74   37   41 1
  75   37   42 1

#	End of record

