#	Name: ASD01510051
#	Creating user name:	WinNT
#	Creation time:	15. 06. 2019 19:21

#	Modifying user name:	WinNT
#	Modification time:	15. 06. 2019 19:21

#	Program:	/corina/corina34_cracker 3.40 0067  02.08.2006

@<TRIPOS>MOLECULE
ASD01510051
  48   50    0    0    0
SMALL
NO_CHARGES


@<TRIPOS>ATOM
   1 C1            -2.2803    -2.7229     0.0063 C.2     
   2 C2            -1.1375    -2.0419     0.0023 C.2     
   3 C3             0.1458    -2.7594    -0.0174 C.2     
   4 O4             0.1625    -3.9753    -0.0301 O.2     
   5 N5             1.3036    -2.0695    -0.0215 N.am    
   6 C6             2.5147    -2.7443     0.0682 C.ar    
   7 C7             3.7210    -2.0514    -0.0428 C.ar    
   8 C8             4.9021    -2.7634     0.0525 C.ar    
   9 N9             4.8554    -4.0727     0.2450 N.ar    
  10 C10            3.6946    -4.7051     0.3468 C.ar    
  11 N11            2.5411    -4.0577     0.2663 N.ar    
  12 S12            3.6855    -6.4485     0.6020 S.3     
  13 C13            5.4190    -6.7621     0.6342 C.ar    
  14 C14            6.1316    -6.7159     1.8323 C.ar    
  15 O15            5.4998    -6.4281     2.9975 O.3     
  16 C16            6.3011    -6.4003     4.1803 C.3     
  17 N17            7.4380    -6.9581     1.8164 N.ar    
  18 C18            8.0625    -7.2403     0.6832 C.ar    
  19 N19            7.4199    -7.2933    -0.4735 N.ar    
  20 C20            6.1118    -7.0685    -0.5370 C.ar    
  21 O21            5.4613    -7.1247    -1.7259 O.3     
  22 C22            6.2453    -7.4326    -2.8803 C.3     
  23 N23            9.4265    -7.4865     0.7084 N.3     
  24 C24            9.9340    -7.7791    -0.6399 C.3     
  25 C25           11.4497    -7.9853    -0.5752 C.3     
  26 O26           11.7440    -9.0326     0.3532 O.3     
  27 C27           11.2645    -8.7803     1.6767 C.3     
  28 C28            9.7470    -8.5821     1.6348 C.3     
  29 H29           -2.2655    -3.8028    -0.0049 H       
  30 H30           -3.2229    -2.1960     0.0253 H       
  31 H31           -1.1524    -0.9621     0.0136 H       
  32 H32            1.2913    -1.1018    -0.0870 H       
  33 H33            3.7316    -0.9829    -0.2001 H       
  34 H34            5.8527    -2.2574    -0.0295 H       
  35 H35            7.0791    -5.6442     4.0745 H       
  36 H36            5.6740    -6.1587     5.0385 H       
  37 H37            6.7615    -7.3769     4.3303 H       
  38 H38            7.0199    -6.6761    -3.0058 H       
  39 H39            6.7096    -8.4106    -2.7540 H       
  40 H40            5.6042    -7.4459    -3.7618 H       
  41 H41            9.4594    -8.6842    -1.0190 H       
  42 H42            9.7083    -6.9439    -1.3030 H       
  43 H43           11.8223    -8.2587    -1.5624 H       
  44 H44           11.9288    -7.0628    -0.2472 H       
  45 H45           11.5032    -9.6286     2.3182 H       
  46 H46           11.7383    -7.8809     2.0702 H       
  47 H47            9.3848    -8.3331     2.6322 H       
  48 H48            9.2694    -9.5000     1.2921 H       
@<TRIPOS>BOND
   1    1    2 2
   2    1   29 1
   3    1   30 1
   4    2    3 1
   5    2   31 1
   6    3    4 2
   7    3    5 am
   8    5    6 1
   9    5   32 1
  10    6    7 ar
  11    6   11 ar
  12    7    8 ar
  13    7   33 1
  14    8    9 ar
  15    8   34 1
  16    9   10 ar
  17   10   11 ar
  18   10   12 1
  19   12   13 1
  20   13   14 ar
  21   13   20 ar
  22   14   15 1
  23   14   17 ar
  24   15   16 1
  25   16   35 1
  26   16   36 1
  27   16   37 1
  28   17   18 ar
  29   18   19 ar
  30   18   23 1
  31   19   20 ar
  32   20   21 1
  33   21   22 1
  34   22   38 1
  35   22   39 1
  36   22   40 1
  37   23   24 1
  38   23   28 1
  39   24   25 1
  40   24   41 1
  41   24   42 1
  42   25   26 1
  43   25   43 1
  44   25   44 1
  45   26   27 1
  46   27   28 1
  47   27   45 1
  48   27   46 1
  49   28   47 1
  50   28   48 1

#	End of record

