#	Name: ASD08150639
#	Creating user name:	WinNT
#	Creation time:	15. 06. 2019 21:16

#	Modifying user name:	WinNT
#	Modification time:	15. 06. 2019 21:16

#	Program:	/corina/corina34_cracker 3.40 0067  02.08.2006

@<TRIPOS>MOLECULE
ASD08150639
  59   64    0    0    0
SMALL
NO_CHARGES


@<TRIPOS>ATOM
   1 N1             0.0332     1.4923    -0.9191 N.am    
   2 C2             0.0923     0.3680    -1.6589 C.2     
   3 C3             1.2799    -0.3876    -1.7333 C.2     
   4 C4             2.3866     0.0105    -1.0555 C.2     
   5 C5             2.3279     1.1928    -0.2762 C.ar    
   6 C6             3.4468     1.6503     0.4458 C.ar    
   7 N7             3.3898     2.7414     1.1639 N.ar    
   8 C8             2.2754     3.4830     1.2553 C.ar    
   9 C9             1.1015     3.0984     0.5618 C.ar    
  10 C10            1.1299     1.9222    -0.2239 C.ar    
  11 C11           -0.0549     3.8776     0.6643 C.ar    
  12 C12           -0.0396     5.0214     1.4459 C.ar    
  13 C13            1.1257     5.3957     2.1293 C.ar    
  14 C14            2.2584     4.6484     2.0390 C.ar    
  15 O15           -0.8949    -0.0011    -2.2720 O.2     
  16 C16           -1.2619     5.8541     1.5598 C.ar    
  17 C17           -1.1574     2.2290    -0.8660 C.ar    
  18 C18           -1.3351     3.3228    -1.7034 C.ar    
  19 C19           -2.5081     4.0483    -1.6516 C.ar    
  20 C20           -3.5111     3.6846    -0.7618 C.ar    
  21 C21           -3.3332     2.5905     0.0757 C.ar    
  22 C22           -2.1622     1.8620     0.0199 C.ar    
  23 N23           -4.6990     4.4196    -0.7089 N.3     
  24 C24           -1.2188     7.0927     2.2088 C.ar    
  25 C25           -2.3829     7.8328     2.2894 C.ar    
  26 C26           -3.5492     7.3269     1.7279 C.ar    
  27 N27           -3.5568     6.1512     1.1210 N.ar    
  28 C28           -2.4675     5.4168     1.0173 C.ar    
  29 C29           -5.7053     3.7359     0.1165 C.3     
  30 C30           -6.9657     4.6013     0.1962 C.3     
  31 O31           -7.4401     4.8667    -1.1267 O.3     
  32 C32           -6.4855     5.5324    -1.9579 C.3     
  33 C33           -5.2203     4.6765    -2.0593 C.3     
  34 O34           -4.6956     8.0483     1.8034 O.3     
  35 C35           -5.8875     7.4246     1.3212 C.3     
  36 H36            1.3093    -1.2865    -2.3313 H       
  37 H37            3.2985    -0.5656    -1.1089 H       
  38 H38            4.3689     1.0895     0.4060 H       
  39 H39           -0.9531     3.5903     0.1379 H       
  40 H40            1.1242     6.2897     2.7352 H       
  41 H41            3.1472     4.9514     2.5725 H       
  42 H42           -0.5552     3.6058    -2.3948 H       
  43 H43           -2.6461     4.8991    -2.3025 H       
  44 H44           -4.1128     2.3076     0.7674 H       
  45 H45           -2.0257     1.0088     0.6678 H       
  46 H46           -0.2982     7.4613     2.6366 H       
  47 H47           -2.3865     8.7932     2.7834 H       
  48 H48           -2.5124     4.4619     0.5147 H       
  49 H49           -5.9520     2.7740    -0.3328 H       
  50 H50           -5.3077     3.5788     1.1192 H       
  51 H51           -7.7349     4.0731     0.7596 H       
  52 H52           -6.7304     5.5421     0.6940 H       
  53 H53           -6.9075     5.6776    -2.9524 H       
  54 H54           -6.2363     6.5002    -1.5227 H       
  55 H55           -4.4687     5.2058    -2.6450 H       
  56 H56           -5.4593     3.7296    -2.5434 H       
  57 H57           -5.7307     7.0839     0.2977 H       
  58 H58           -6.1331     6.5720     1.9543 H       
  59 H59           -6.7077     8.1421     1.3437 H       
@<TRIPOS>BOND
   1    1    2 am
   2    1   10 1
   3    1   17 1
   4    2    3 1
   5    2   15 2
   6    3    4 2
   7    3   36 1
   8    4    5 1
   9    4   37 1
  10    5    6 ar
  11    5   10 ar
  12    6    7 ar
  13    6   38 1
  14    7    8 ar
  15    8    9 ar
  16    8   14 ar
  17    9   10 ar
  18    9   11 ar
  19   11   12 ar
  20   11   39 1
  21   12   13 ar
  22   12   16 1
  23   13   14 ar
  24   13   40 1
  25   14   41 1
  26   16   24 ar
  27   16   28 ar
  28   17   18 ar
  29   17   22 ar
  30   18   19 ar
  31   18   42 1
  32   19   20 ar
  33   19   43 1
  34   20   21 ar
  35   20   23 1
  36   21   22 ar
  37   21   44 1
  38   22   45 1
  39   23   29 1
  40   23   33 1
  41   24   25 ar
  42   24   46 1
  43   25   26 ar
  44   25   47 1
  45   26   27 ar
  46   26   34 1
  47   27   28 ar
  48   28   48 1
  49   29   30 1
  50   29   49 1
  51   29   50 1
  52   30   31 1
  53   30   51 1
  54   30   52 1
  55   31   32 1
  56   32   33 1
  57   32   53 1
  58   32   54 1
  59   33   55 1
  60   33   56 1
  61   34   35 1
  62   35   57 1
  63   35   58 1
  64   35   59 1

#	End of record

