#	Name: ASD01420153
#	Creating user name:	WinNT
#	Creation time:	15. 06. 2019 19:20

#	Modifying user name:	WinNT
#	Modification time:	15. 06. 2019 19:20

#	Program:	/corina/corina34_cracker 3.40 0067  02.08.2006

@<TRIPOS>MOLECULE
ASD01420153
  47   49    0    0    0
SMALL
NO_CHARGES


@<TRIPOS>ATOM
   1 C1             2.0878     0.2416     1.2262 C.ar    
   2 C2             1.2007    -0.6843     0.7187 C.ar    
   3 C3             0.4200    -0.3847    -0.3894 C.ar    
   4 C4             0.5223     0.8477    -0.9983 C.ar    
   5 C5             2.2070     1.4891     0.6286 C.ar    
   6 O6             2.9682     2.5710     0.8938 O.3     
   7 C7             1.4160     1.7933    -0.4937 C.ar    
   8 C8             1.7780     3.1608    -0.8740 C.2     
   9 C9             2.7209     3.5601     0.0128 C.2     
  10 C10            1.2156     3.9613    -2.0203 C.3     
  11 C11            3.3794     4.8830     0.0142 C.ar    
  12 C12            2.6155     6.0454    -0.1077 C.ar    
  13 C13            3.2335     7.2774    -0.1054 C.ar    
  14 C14            4.6141     7.3636     0.0174 C.ar    
  15 C15            5.3775     6.2099     0.1389 C.ar    
  16 C16            4.7666     4.9743     0.1433 C.ar    
  17 O17            5.2196     8.5799     0.0183 O.3     
  18 Cl18          -0.6890    -1.5669    -1.0111 Cl      
  19 C19            6.6426     8.5961     0.1482 C.3     
  20 C20            7.1400    10.0428     0.1288 C.3     
  21 C21            8.6469    10.0676     0.3924 C.3     
  22 N22            9.1214    11.4578     0.3919 N.3     
  23 C23            8.6686    12.1690     1.5949 C.3     
  24 C24           10.5838    11.5150     0.2657 C.3     
  25 O25            6.8704    10.6221    -1.1494 O.3     
  26 H26            2.6866    -0.0021     2.0913 H       
  27 H27            1.1127    -1.6530     1.1881 H       
  28 H28           -0.0851     1.0800    -1.8605 H       
  29 H29            0.2990     4.4576    -1.7017 H       
  30 H30            1.9441     4.7094    -2.3329 H       
  31 H31            0.9970     3.2958    -2.8555 H       
  32 H32            1.5418     5.9792    -0.2040 H       
  33 H33            2.6433     8.1770    -0.1997 H       
  34 H34            6.4509     6.2812     0.2342 H       
  35 H35            5.3606     4.0777     0.2423 H       
  36 H36            6.9268     8.1267     1.0900 H       
  37 H37            7.0893     8.0471    -0.6807 H       
  38 H38            6.6265    10.6140     0.9022 H       
  39 H39            8.8538     9.6134     1.3614 H       
  40 H40            9.1616     9.5078    -0.3885 H       
  41 H41            9.0570    11.6675     2.4813 H       
  42 H42            9.0337    13.1957     1.5691 H       
  43 H43            7.5790    12.1715     1.6270 H       
  44 H44           10.8804    11.1203    -0.7061 H       
  45 H45           10.9160    12.5493     0.3545 H       
  46 H46           11.0402    10.9178     1.0551 H       
  47 H47            7.2966    10.1640    -1.8866 H       
@<TRIPOS>BOND
   1    1    2 ar
   2    1    5 ar
   3    1   26 1
   4    2    3 ar
   5    2   27 1
   6    3    4 ar
   7    3   18 1
   8    4    7 ar
   9    4   28 1
  10    5    7 ar
  11    5    6 1
  12    6    9 1
  13    7    8 1
  14    8    9 2
  15    8   10 1
  16    9   11 1
  17   10   29 1
  18   10   30 1
  19   10   31 1
  20   11   12 ar
  21   11   16 ar
  22   12   13 ar
  23   12   32 1
  24   13   14 ar
  25   13   33 1
  26   14   15 ar
  27   14   17 1
  28   15   16 ar
  29   15   34 1
  30   16   35 1
  31   17   19 1
  32   19   20 1
  33   19   36 1
  34   19   37 1
  35   20   21 1
  36   20   25 1
  37   20   38 1
  38   21   22 1
  39   21   39 1
  40   21   40 1
  41   22   24 1
  42   22   23 1
  43   23   41 1
  44   23   42 1
  45   23   43 1
  46   24   44 1
  47   24   45 1
  48   24   46 1
  49   25   47 1

#	End of record

