#	Name: ASD01900211
#	Creating user name:	WinNT
#	Creation time:	15. 06. 2019 19:51

#	Modifying user name:	WinNT
#	Modification time:	15. 06. 2019 19:51

#	Program:	/corina/corina34_cracker 3.40 0067  02.08.2006

@<TRIPOS>MOLECULE
ASD01900211
  37   39    0    0    0
SMALL
NO_CHARGES


@<TRIPOS>ATOM
   1 C1            -0.0168     1.3887     0.0097 C.ar    
   2 C2             0.0021    -0.0041     0.0020 C.ar    
   3 C3            -1.2003    -0.6938     0.0103 C.ar    
   4 C4            -2.3798     0.0338     0.0259 C.ar    
   5 C5            -2.3237     1.4186     0.0328 C.ar    
   6 N6            -1.1690     2.0478     0.0297 N.ar    
   7 C7             1.2594     2.1406     0.0015 C.2     
   8 O8             2.3173     1.5421    -0.0118 O.2     
   9 N9             1.2477     3.4883     0.0089 N.am    
  10 C10            2.4592     4.2021     0.0011 C.2     
  11 C11            3.7581     3.6467    -0.0147 C.2     
  12 C12            4.6358     4.6702    -0.0179 C.2     
  13 N13            3.9336     5.8385    -0.0047 N.am    
  14 C14            2.5970     5.5485     0.0016 C.2     
  15 S15            4.5906     7.3586    -0.0025 S.o2    
  16 O16            3.6082     8.2195     0.5568 O.2     
  17 O17            5.9023     7.2280     0.5281 O.2     
  18 C18            4.7807     7.8470    -1.6847 C.ar    
  19 C19            3.7577     8.5119    -2.3279 C.ar    
  20 C20            5.9582     7.5676    -2.3558 C.ar    
  21 C21            6.1163     7.9483    -3.6764 C.ar    
  22 C22            5.0993     8.6098    -4.3334 C.ar    
  23 C23            3.9103     8.8987    -3.6611 C.ar    
  24 C24            2.8504     9.5847    -4.3369 C.1     
  25 N25            2.0096    10.1289    -4.8729 N.1     
  26 H26            0.9402    -0.5390    -0.0105 H       
  27 H27           -1.2176    -1.7736     0.0043 H       
  28 H28           -3.3333    -0.4733     0.0323 H       
  29 H29           -3.2409     1.9887     0.0446 H       
  30 H30            0.4034     3.9659     0.0195 H       
  31 H31            4.0031     2.5949    -0.0223 H       
  32 H32            5.7119     4.5797    -0.0285 H       
  33 H33            1.7920     6.2683     0.0118 H       
  34 H34            2.8407     8.7327    -1.8019 H       
  35 H35            6.7577     7.0503    -1.8462 H       
  36 H36            7.0380     7.7274    -4.1941 H       
  37 H37            5.2243     8.9071    -5.3642 H       
@<TRIPOS>BOND
   1    1    2 ar
   2    1    7 1
   3    1    6 ar
   4    2    3 ar
   5    2   26 1
   6    3    4 ar
   7    3   27 1
   8    4    5 ar
   9    4   28 1
  10    5    6 ar
  11    5   29 1
  12    7    8 2
  13    7    9 am
  14    9   10 1
  15    9   30 1
  16   10   11 1
  17   10   14 2
  18   11   12 2
  19   11   31 1
  20   12   13 1
  21   12   32 1
  22   13   14 1
  23   13   15 am
  24   14   33 1
  25   15   16 2
  26   15   17 2
  27   15   18 1
  28   18   19 ar
  29   18   20 ar
  30   19   23 ar
  31   19   34 1
  32   20   21 ar
  33   20   35 1
  34   21   22 ar
  35   21   36 1
  36   22   23 ar
  37   22   37 1
  38   23   24 1
  39   24   25 3

#	End of record

