#	Name: ASD03330254
#	Creating user name:	WinNT
#	Creation time:	15. 06. 2019 20:36

#	Modifying user name:	WinNT
#	Modification time:	15. 06. 2019 20:36

#	Program:	/corina/corina34_cracker 3.40 0067  02.08.2006

@<TRIPOS>MOLECULE
ASD03330254
  47   49    0    0    0
SMALL
NO_CHARGES


@<TRIPOS>ATOM
   1 C1            -0.0179     1.4654     0.0101 C.3     
   2 N2             0.0021    -0.0041     0.0020 N.3     
   3 C3             0.4456    -0.5240    -1.3041 C.3     
   4 C4             1.7197     0.1876    -1.6795 C.2     
   5 N5             2.1509     1.3337    -1.0776 N.pl3   
   6 C6             1.4181     2.0053    -0.0007 C.3     
   7 C7             2.6368    -0.1383    -2.6238 C.2     
   8 N8             3.6120     0.7988    -2.5902 N.2     
   9 C9             3.3258     1.6849    -1.6626 C.2     
  10 C10            4.1453     2.8662    -1.3142 C.ar    
  11 C11            5.1550     3.2968    -2.1755 C.ar    
  12 C12            2.5811    -1.3033    -3.5245 C.2     
  13 O13            1.6468    -2.0791    -3.4581 O.2     
  14 C14            3.5101    -2.6673    -5.3171 C.3     
  15 N15            3.5655    -1.5091    -4.4217 N.am    
  16 C16            5.9160     4.3989    -1.8454 C.ar    
  17 C17            5.6794     5.0777    -0.6618 C.ar    
  18 C18            4.6787     4.6549     0.1968 C.ar    
  19 C19            3.9076     3.5575    -0.1257 C.ar    
  20 C20            4.7389    -2.6664    -6.2287 C.3     
  21 C21            3.4807    -3.7381    -8.1024 C.3     
  22 C22            4.6810    -3.8760    -7.1638 C.3     
  23 C23            5.9679    -3.9451    -7.9884 C.3     
  24 Cl24           6.6414     6.4636    -0.2526 Cl      
  25 H25           -0.5469     1.8253    -0.8723 H       
  26 H26           -0.5299     1.8158     0.9063 H       
  27 H27            0.5789    -0.3620     0.7485 H       
  28 H28            0.6300    -1.5958    -1.2308 H       
  29 H29           -0.3193    -0.3316    -2.0564 H       
  30 H30            1.4055     3.0805    -0.1793 H       
  31 H31            1.8969     1.7964     0.9560 H       
  32 H32            5.3406     2.7680    -3.0987 H       
  33 H33            3.4968    -3.5831    -4.7261 H       
  34 H34            2.6068    -2.6139    -5.9248 H       
  35 H35            4.3106    -0.8903    -4.4746 H       
  36 H36            6.6981     4.7329    -2.5111 H       
  37 H37            4.4985     5.1880     1.1186 H       
  38 H38            3.1273     3.2286     0.5447 H       
  39 H39            4.7522    -1.7506    -6.8196 H       
  40 H40            5.6422    -2.7199    -5.6209 H       
  41 H41            2.5638    -3.6889    -7.5149 H       
  42 H42            3.5835    -2.8274    -8.6923 H       
  43 H43            3.4394    -4.5999    -8.7686 H       
  44 H44            4.5782    -4.7868    -6.5738 H       
  45 H45            6.0708    -3.0344    -8.5784 H       
  46 H46            6.8231    -4.0434    -7.3197 H       
  47 H47            5.9267    -4.8069    -8.6546 H       
@<TRIPOS>BOND
   1    1    2 1
   2    1    6 1
   3    1   25 1
   4    1   26 1
   5    2    3 1
   6    2   27 1
   7    3    4 1
   8    3   28 1
   9    3   29 1
  10    4    5 1
  11    4    7 2
  12    5    6 1
  13    5    9 1
  14    6   30 1
  15    6   31 1
  16    7    8 1
  17    7   12 1
  18    8    9 2
  19    9   10 1
  20   10   11 ar
  21   10   19 ar
  22   11   16 ar
  23   11   32 1
  24   12   13 2
  25   12   15 am
  26   14   15 1
  27   14   20 1
  28   14   33 1
  29   14   34 1
  30   15   35 1
  31   16   17 ar
  32   16   36 1
  33   17   18 ar
  34   17   24 1
  35   18   19 ar
  36   18   37 1
  37   19   38 1
  38   20   22 1
  39   20   39 1
  40   20   40 1
  41   21   22 1
  42   21   41 1
  43   21   42 1
  44   21   43 1
  45   22   23 1
  46   22   44 1
  47   23   45 1
  48   23   46 1
  49   23   47 1

#	End of record

