#	Name: ASD01841008
#	Creating user name:	WinNT
#	Creation time:	15. 06. 2019 19:38

#	Modifying user name:	WinNT
#	Modification time:	15. 06. 2019 19:38

#	Program:	/corina/corina34_cracker 3.40 0067  02.08.2006

@<TRIPOS>MOLECULE
ASD01841008
  84   88    0    0    0
SMALL
NO_CHARGES


@<TRIPOS>ATOM
   1 C1            -0.0178     1.4648     0.0101 C.3     
   2 N2             0.0021    -0.0041     0.0020 N.4     
   3 C3             0.6897    -0.4778    -1.2066 C.3     
   4 C4             2.1250     0.0518    -1.2175 C.3     
   5 N5             2.1051     1.5206    -1.2094 N.4     
   6 C6             1.4175     1.9944    -0.0008 C.3     
   7 C7            -1.3761    -0.5125     0.0124 C.3     
   8 C8            -1.3584    -2.0365    -0.1216 C.3     
   9 C9            -2.7938    -2.5661    -0.1108 C.3     
  10 C10           -2.7762    -4.0901    -0.2449 C.3     
  11 C11           -2.0118    -4.6871     0.9086 C.ar    
  12 C12           -4.1900    -4.6118    -0.2342 C.ar    
  13 O13           -2.1439    -4.4529    -1.4740 O.3     
  14 C14           -1.3283    -5.8772     0.7428 C.ar    
  15 C15           -0.6272    -6.4248     1.8008 C.ar    
  16 C16           -0.6091    -5.7820     3.0245 C.ar    
  17 C17           -1.2918    -4.5914     3.1900 C.ar    
  18 C18           -1.9893    -4.0416     2.1308 C.ar    
  19 C19           -4.5056    -5.7673    -0.9241 C.ar    
  20 C20           -5.8025    -6.2458    -0.9143 C.ar    
  21 C21           -6.7836    -5.5689    -0.2142 C.ar    
  22 C22           -6.4678    -4.4138     0.4764 C.ar    
  23 C23           -5.1700    -3.9378     0.4702 C.ar    
  24 C24            3.4833     2.0291    -1.2198 C.3     
  25 C25            3.4632     3.5544    -1.3372 C.3     
  26 C26            4.8986     4.0840    -1.3480 C.3     
  27 C27            4.8786     5.6094    -1.4654 C.3     
  28 O28            4.2230     5.9852    -2.6782 O.3     
  29 C29            4.1364     6.1938    -0.2912 C.ar    
  30 C30            6.2924     6.1310    -1.4761 C.ar    
  31 C31            6.5949     7.2939    -2.1594 C.ar    
  32 C32            7.8917     7.7724    -2.1693 C.ar    
  33 C33            8.8860     7.0881    -1.4954 C.ar    
  34 C34            8.5833     5.9257    -0.8113 C.ar    
  35 C35            7.2856     5.4496    -0.7978 C.ar    
  36 C36            3.4500     7.3856    -0.4311 C.ar    
  37 C37            2.7693     7.9217     0.6459 C.ar    
  38 C38            2.7745     7.2658     1.8628 C.ar    
  39 C39            3.4601     6.0736     2.0024 C.ar    
  40 C40            4.1372     5.5353     0.9242 C.ar    
  41 H41           -0.5450     1.8259    -0.8730 H       
  42 H42           -0.5280     1.8163     0.9069 H       
  43 H43            0.4901    -0.3383     0.8195 H       
  44 H44            0.7044    -1.5677    -1.2126 H       
  45 H45            0.1625    -0.1167    -2.0897 H       
  46 H46            2.6522    -0.3093    -0.3344 H       
  47 H47            2.6352    -0.2998    -2.1143 H       
  48 H48            1.6171     1.8549    -2.0268 H       
  49 H49            1.4028     3.0842     0.0052 H       
  50 H50            1.9447     1.6333     0.8823 H       
  51 H51           -1.8584    -0.2358     0.9500 H       
  52 H52           -1.9290    -0.0808    -0.8218 H       
  53 H53           -0.8762    -2.3132    -1.0592 H       
  54 H54           -0.8055    -2.4683     0.7126 H       
  55 H55           -3.2761    -2.2894     0.8267 H       
  56 H56           -3.3467    -2.1344    -0.9450 H       
  57 H57           -2.5833    -4.1023    -2.2608 H       
  58 H58           -1.3425    -6.3794    -0.2133 H       
  59 H59           -0.0939    -7.3549     1.6715 H       
  60 H60           -0.0619    -6.2102     3.8513 H       
  61 H61           -1.2779    -4.0894     4.1462 H       
  62 H62           -2.5227    -3.1115     2.2601 H       
  63 H63           -3.7390    -6.2961    -1.4710 H       
  64 H64           -6.0492    -7.1482    -1.4539 H       
  65 H65           -7.7970    -5.9423    -0.2072 H       
  66 H66           -7.2345    -3.8848     1.0230 H       
  67 H67           -4.9233    -3.0353     1.0098 H       
  68 H68            3.9833     1.7424    -0.2947 H       
  69 H69            4.0201     1.6064    -2.0691 H       
  70 H70            2.9632     3.8411    -2.2623 H       
  71 H71            2.9264     3.9772    -0.4879 H       
  72 H72            5.3987     3.7973    -0.4229 H       
  73 H73            5.4354     3.6613    -2.1973 H       
  74 H74            4.6473     5.6432    -3.4770 H       
  75 H75            5.8181     7.8285    -2.6859 H       
  76 H76            8.1282     8.6806    -2.7037 H       
  77 H77            9.8994     7.4616    -1.5037 H       
  78 H78            9.3602     5.3909    -0.2851 H       
  79 H79            7.0492     4.5414    -0.2634 H       
  80 H80            3.4460     7.8980    -1.3818 H       
  81 H81            2.2337     8.8531     0.5368 H       
  82 H82            2.2432     7.6850     2.7044 H       
  83 H83            3.4644     5.5614     2.9532 H       
  84 H84            4.6728     4.6038     1.0333 H       
@<TRIPOS>BOND
   1    1    2 1
   2    1    6 1
   3    1   41 1
   4    1   42 1
   5    2    3 1
   6    2    7 1
   7    2   43 1
   8    3    4 1
   9    3   44 1
  10    3   45 1
  11    4    5 1
  12    4   46 1
  13    4   47 1
  14    5    6 1
  15    5   24 1
  16    5   48 1
  17    6   49 1
  18    6   50 1
  19    7    8 1
  20    7   51 1
  21    7   52 1
  22    8    9 1
  23    8   53 1
  24    8   54 1
  25    9   10 1
  26    9   55 1
  27    9   56 1
  28   10   11 1
  29   10   12 1
  30   10   13 1
  31   11   14 ar
  32   11   18 ar
  33   12   19 ar
  34   12   23 ar
  35   13   57 1
  36   14   15 ar
  37   14   58 1
  38   15   16 ar
  39   15   59 1
  40   16   17 ar
  41   16   60 1
  42   17   18 ar
  43   17   61 1
  44   18   62 1
  45   19   20 ar
  46   19   63 1
  47   20   21 ar
  48   20   64 1
  49   21   22 ar
  50   21   65 1
  51   22   23 ar
  52   22   66 1
  53   23   67 1
  54   24   25 1
  55   24   68 1
  56   24   69 1
  57   25   26 1
  58   25   70 1
  59   25   71 1
  60   26   27 1
  61   26   72 1
  62   26   73 1
  63   27   28 1
  64   27   29 1
  65   27   30 1
  66   28   74 1
  67   29   36 ar
  68   29   40 ar
  69   30   31 ar
  70   30   35 ar
  71   31   32 ar
  72   31   75 1
  73   32   33 ar
  74   32   76 1
  75   33   34 ar
  76   33   77 1
  77   34   35 ar
  78   34   78 1
  79   35   79 1
  80   36   37 ar
  81   36   80 1
  82   37   38 ar
  83   37   81 1
  84   38   39 ar
  85   38   82 1
  86   39   40 ar
  87   39   83 1
  88   40   84 1

#	End of record

