#	Name: ASD01812840
#	Creating user name:	WinNT
#	Creation time:	15. 06. 2019 19:29

#	Modifying user name:	WinNT
#	Modification time:	15. 06. 2019 19:29

#	Program:	/corina/corina34_cracker 3.40 0067  02.08.2006

@<TRIPOS>MOLECULE
ASD01812840
  49   53    0    0    0
SMALL
NO_CHARGES


@<TRIPOS>ATOM
   1 C1            -0.0166     1.3763     0.0096 C.ar    
   2 C2             0.0021    -0.0041     0.0020 C.ar    
   3 C3             1.2089    -0.6873    -0.0128 C.ar    
   4 C4             2.3943     0.0072    -0.0204 C.ar    
   5 C5             2.3945     1.4054    -0.0133 C.ar    
   6 C6             1.1722     2.0915     0.0021 C.ar    
   7 C7             3.8414    -0.4182    -0.0366 C.3     
   8 N8             4.6317     0.8183    -0.0381 N.am    
   9 C9             3.7920     1.8678    -0.0246 C.2     
  10 C10            6.0945     0.8960    -0.0519 C.3     
  11 C11            6.5823     0.9298    -1.4774 C.ar    
  12 C12            6.7422     2.1419    -2.1234 C.ar    
  13 C13            7.1891     2.1761    -3.4298 C.ar    
  14 C14            7.4779     0.9918    -4.0945 C.ar    
  15 C15            7.3164    -0.2237    -3.4432 C.ar    
  16 C16            6.8745    -0.2511    -2.1348 C.ar    
  17 O17            1.1519     3.4477     0.0092 O.3     
  18 O18            4.1377     3.0336    -0.0221 O.2     
  19 C19           -0.0569     4.0673     0.0236 C.ar    
  20 C20           -0.6630     4.3776     1.2365 C.ar    
  21 C21           -1.8906     5.0069     1.2550 C.ar    
  22 C22           -2.5249     5.3329     0.0532 C.ar    
  23 C23           -1.9128     5.0200    -1.1635 C.ar    
  24 C24           -0.6829     4.3950    -1.1744 C.ar    
  25 C25           -3.7994     5.9856     0.0684 C.1     
  26 F26           -0.0490     4.0621     2.3978 F       
  27 N27            8.1380     2.1727    -6.1942 N.2     
  28 N28            7.9312     1.0232    -5.4206 N.pl3   
  29 C29            8.2469    -0.0506    -6.1794 C.2     
  30 C30            8.6403     0.4034    -7.3919 C.2     
  31 C31            8.5628     1.8004    -7.3748 C.2     
  32 N32           -4.8104     6.5035     0.0806 N.1     
  33 F33           -0.0883     4.0964    -2.3501 F       
  34 H34           -0.9603     1.9014     0.0169 H       
  35 H35           -0.9272    -0.5543     0.0080 H       
  36 H36            1.2168    -1.7673    -0.0179 H       
  37 H37            4.0688    -1.0072     0.8519 H       
  38 H38            4.0514    -0.9982    -0.9353 H       
  39 H39            6.4152     1.8013     0.4634 H       
  40 H40            6.5095     0.0239     0.4535 H       
  41 H41            6.5170     3.0627    -1.6060 H       
  42 H42            7.3134     3.1230    -3.9340 H       
  43 H43            7.5399    -1.1465    -3.9577 H       
  44 H44            6.7532    -1.1961    -1.6261 H       
  45 H45           -2.3609     5.2469     2.1970 H       
  46 H46           -2.4004     5.2702    -2.0941 H       
  47 H47            8.1949    -1.0848    -5.8726 H       
  48 H48            8.9583    -0.2051    -8.2256 H       
  49 H49            8.8107     2.4582    -8.1947 H       
@<TRIPOS>BOND
   1    1    2 ar
   2    1    6 ar
   3    1   34 1
   4    2    3 ar
   5    2   35 1
   6    3    4 ar
   7    3   36 1
   8    4    7 1
   9    4    5 ar
  10    5    6 ar
  11    5    9 1
  12    6   17 1
  13    7    8 1
  14    7   37 1
  15    7   38 1
  16    8    9 am
  17    8   10 1
  18    9   18 2
  19   10   11 1
  20   10   39 1
  21   10   40 1
  22   11   12 ar
  23   11   16 ar
  24   12   13 ar
  25   12   41 1
  26   13   14 ar
  27   13   42 1
  28   14   15 ar
  29   14   28 1
  30   15   16 ar
  31   15   43 1
  32   16   44 1
  33   17   19 1
  34   19   20 ar
  35   19   24 ar
  36   20   21 ar
  37   20   26 1
  38   21   22 ar
  39   21   45 1
  40   22   23 ar
  41   22   25 1
  42   23   24 ar
  43   23   46 1
  44   24   33 1
  45   25   32 3
  46   27   28 1
  47   27   31 2
  48   28   29 1
  49   29   30 2
  50   29   47 1
  51   30   31 1
  52   30   48 1
  53   31   49 1

#	End of record

