#	Name: ASD08178309
#	Creating user name:	WinNT
#	Creation time:	15. 06. 2019 21:18

#	Modifying user name:	WinNT
#	Modification time:	15. 06. 2019 21:18

#	Program:	/corina/corina34_cracker 3.40 0067  02.08.2006

@<TRIPOS>MOLECULE
ASD08178309
  85   88    0    0    0
SMALL
NO_CHARGES


@<TRIPOS>ATOM
   1 N1            -0.0168     1.3902     0.0097 N.am    
   2 C2            -0.2037     0.0084     0.0209 C.ar    
   3 C3             0.8903    -0.8468    -0.0957 C.ar    
   4 N4            -1.4214    -0.4973     0.1480 N.ar    
   5 N5            -1.6358    -1.7627     0.1634 N.ar    
   6 C6            -0.6606    -2.6434     0.0539 C.ar    
   7 C7             0.6515    -2.2125    -0.0785 C.ar    
   8 C8            -0.9706    -4.1179     0.0788 C.3     
   9 C9            -1.7545    -4.4529     1.3493 C.3     
  10 C10           -2.0693    -5.9500     1.3745 C.3     
  11 C11           -2.8532    -6.2849     2.6450 C.3     
  12 C12           -3.1633    -7.7595     2.6698 C.2     
  13 N13           -2.4232    -8.6871     3.1891 N.2     
  14 N14           -2.8593    -9.8691     3.1080 N.2     
  15 C15           -4.0013   -10.0513     2.5166 C.2     
  16 S16           -4.6027    -8.5314     2.0038 S.3     
  17 N17           -4.6338   -11.2765     2.3349 N.am    
  18 C18           -4.0582   -12.4063     2.7919 C.2     
  19 C19           -4.7435   -13.7339     2.5950 C.3     
  20 O20           -2.9888   -12.3544     3.3616 O.2     
  21 C21           -3.8983   -14.8290     3.1929 C.ar    
  22 C22           -1.0831     2.2145     0.0178 C.2     
  23 C23           -0.8830     3.7044     0.1233 C.3     
  24 O24           -2.2037     1.7572    -0.0597 O.2     
  25 C25           -4.0750   -15.1952     4.5139 C.ar    
  26 C26           -3.2996   -16.1999     5.0624 C.ar    
  27 C27           -2.3480   -16.8384     4.2896 C.ar    
  28 C28           -2.1719   -16.4727     2.9679 C.ar    
  29 C29           -2.9501   -15.4713     2.4184 C.ar    
  30 O30           -2.1437     4.3647    -0.0053 O.3     
  31 C31           -0.2764     4.0362     1.4623 C.ar    
  32 C32           -1.1340   -17.1685     2.1255 C.3     
  33 N33           -1.7375   -18.3304     1.4682 N.am    
  34 C34           -0.9925   -19.1092     0.6589 C.2     
  35 O35           -1.5471   -20.1770     0.0548 O.3     
  36 O36            0.1797   -18.8477     0.4745 O.2     
  37 C37           -0.6852   -20.9707    -0.8028 C.3     
  38 C38            0.4821   -21.5229     0.0178 C.3     
  39 C39           -1.4857   -22.1317    -1.3963 C.3     
  40 C40           -0.1439   -20.0938    -1.9337 C.3     
  41 C41            1.0807     4.2779     1.5656 C.ar    
  42 C42            1.6371     4.5822     2.7939 C.ar    
  43 C43            0.8363     4.6453     3.9189 C.ar    
  44 C44           -0.5210     4.4046     3.8155 C.ar    
  45 C45           -1.0781     4.1045     2.5864 C.ar    
  46 C46           -2.4885     4.7022    -1.3504 C.3     
  47 H47            0.8806     1.7582     0.0000 H       
  48 H48            1.8929    -0.4580    -0.1966 H       
  49 H49            1.4624    -2.9199    -0.1697 H       
  50 H50           -1.5670    -4.3786    -0.7955 H       
  51 H51           -0.0399    -4.6851     0.0660 H       
  52 H52           -1.1581    -4.1922     2.2236 H       
  53 H53           -2.6852    -3.8857     1.3621 H       
  54 H54           -2.6657    -6.2106     0.5002 H       
  55 H55           -1.1386    -6.5172     1.3617 H       
  56 H56           -2.2568    -6.0243     3.5193 H       
  57 H57           -3.7839    -5.7177     2.6578 H       
  58 H58           -5.4891   -11.3180     1.8793 H       
  59 H59           -5.7165   -13.7169     3.0860 H       
  60 H60           -4.8775   -13.9192     1.5293 H       
  61 H61           -0.2152     4.0384    -0.6708 H       
  62 H62           -4.8185   -14.6963     5.1177 H       
  63 H63           -3.4371   -16.4855     6.0948 H       
  64 H64           -1.7418   -17.6227     4.7183 H       
  65 H65           -2.8125   -15.1857     1.3860 H       
  66 H66           -0.7572   -16.4789     1.3702 H       
  67 H67           -0.3113   -17.4970     2.7605 H       
  68 H68           -2.6733   -18.5392     1.6154 H       
  69 H69            0.0964   -22.1476     0.8235 H       
  70 H70            1.1291   -22.1186    -0.6260 H       
  71 H71            1.0523   -20.6957     0.4406 H       
  72 H72           -2.3173   -21.7383    -1.9809 H       
  73 H73           -0.8387   -22.7275    -2.0401 H       
  74 H74           -1.8714   -22.7564    -0.5906 H       
  75 H75            0.4264   -19.2666    -1.5109 H       
  76 H76            0.5031   -20.6895    -2.5775 H       
  77 H77           -0.9755   -19.7004    -2.5183 H       
  78 H78            1.7064     4.2286     0.6867 H       
  79 H79            2.6975     4.7703     2.8747 H       
  80 H80            1.2711     4.8824     4.8786 H       
  81 H81           -1.1466     4.4536     4.6944 H       
  82 H82           -2.1385     3.9165     2.5056 H       
  83 H83           -1.7322     5.3701    -1.7627 H       
  84 H84           -2.5382     3.7943    -1.9515 H       
  85 H85           -3.4583     5.1997    -1.3629 H       
@<TRIPOS>BOND
   1    1    2 1
   2    1   22 am
   3    1   47 1
   4    2    3 ar
   5    2    4 ar
   6    3    7 ar
   7    3   48 1
   8    4    5 ar
   9    5    6 ar
  10    6    7 ar
  11    6    8 1
  12    7   49 1
  13    8    9 1
  14    8   50 1
  15    8   51 1
  16    9   10 1
  17    9   52 1
  18    9   53 1
  19   10   11 1
  20   10   54 1
  21   10   55 1
  22   11   12 1
  23   11   56 1
  24   11   57 1
  25   12   13 2
  26   12   16 1
  27   13   14 1
  28   14   15 2
  29   15   16 1
  30   15   17 1
  31   17   18 am
  32   17   58 1
  33   18   19 1
  34   18   20 2
  35   19   21 1
  36   19   59 1
  37   19   60 1
  38   21   25 ar
  39   21   29 ar
  40   22   23 1
  41   22   24 2
  42   23   30 1
  43   23   31 1
  44   23   61 1
  45   25   26 ar
  46   25   62 1
  47   26   27 ar
  48   26   63 1
  49   27   28 ar
  50   27   64 1
  51   28   29 ar
  52   28   32 1
  53   29   65 1
  54   30   46 1
  55   31   41 ar
  56   31   45 ar
  57   32   33 1
  58   32   66 1
  59   32   67 1
  60   33   34 am
  61   33   68 1
  62   34   35 1
  63   34   36 2
  64   35   37 1
  65   37   38 1
  66   37   39 1
  67   37   40 1
  68   38   69 1
  69   38   70 1
  70   38   71 1
  71   39   72 1
  72   39   73 1
  73   39   74 1
  74   40   75 1
  75   40   76 1
  76   40   77 1
  77   41   42 ar
  78   41   78 1
  79   42   43 ar
  80   42   79 1
  81   43   44 ar
  82   43   80 1
  83   44   45 ar
  84   44   81 1
  85   45   82 1
  86   46   83 1
  87   46   84 1
  88   46   85 1

#	End of record

