#	Name: ASD01880240
#	Creating user name:	WinNT
#	Creation time:	15. 06. 2019 19:40

#	Modifying user name:	WinNT
#	Modification time:	15. 06. 2019 19:40

#	Program:	/corina/corina34_cracker 3.40 0067  02.08.2006

@<TRIPOS>MOLECULE
ASD01880240
  42   44    0    0    0
SMALL
NO_CHARGES


@<TRIPOS>ATOM
   1 C1            -0.0184     1.5028     0.0103 C.3     
   2 C2             0.0021    -0.0041     0.0020 C.ar    
   3 C3             0.0229    -0.7016     1.1953 C.ar    
   4 C4             0.0417    -2.0838     1.1877 C.ar    
   5 C5             0.0392    -2.7685    -0.0132 C.ar    
   6 C6             0.0175    -2.0710    -1.2065 C.ar    
   7 C7            -0.0057    -0.6888    -1.1988 C.ar    
   8 N8             1.3560     2.0099    -0.0001 N.am    
   9 C9             2.1471     2.3124    -1.2027 C.3     
  10 C10            3.4948     2.8051    -0.6411 C.3     
  11 O11            3.3236     2.7294     0.8038 O.3     
  12 C12            2.0955     2.2792     1.0845 C.2     
  13 C13            3.7612     4.2480    -1.0747 C.3     
  14 O14            1.6905     2.1211     2.2191 O.2     
  15 C15            0.0607    -4.2753    -0.0215 C.3     
  16 C16           -1.1891    -4.8010    -0.7331 C.3     
  17 C17           -1.1317    -6.3291    -0.7921 C.3     
  18 N18            0.0767    -6.7474    -1.5139 N.3     
  19 C19            1.2911    -6.2944    -0.8235 C.3     
  20 C20            1.3061    -4.7652    -0.7655 C.3     
  21 H21           -0.5455     1.8639    -0.8728 H       
  22 H22           -0.5286     1.8543     0.9071 H       
  23 H23            0.0248    -0.1667     2.1335 H       
  24 H24            0.0586    -2.6287     2.1200 H       
  25 H25            0.0159    -2.6059    -2.1447 H       
  26 H26           -0.0227    -0.1439    -2.1311 H       
  27 H27            2.2883     1.4143    -1.8041 H       
  28 H28            1.6675     3.0958    -1.7895 H       
  29 H29            4.3053     2.1520    -0.9646 H       
  30 H30            2.9654     4.8924    -0.7013 H       
  31 H31            4.7172     4.5787    -0.6688 H       
  32 H32            3.7909     4.3007    -2.1631 H       
  33 H33            0.0787    -4.6450     1.0038 H       
  34 H34           -2.0780    -4.4911    -0.1837 H       
  35 H35           -1.2276    -4.3989    -1.7455 H       
  36 H36           -1.1072    -6.7310     0.2208 H       
  37 H37           -2.0133    -6.7058    -1.3108 H       
  38 H38            0.0893    -7.7472    -1.6491 H       
  39 H39            1.3043    -6.6965     0.1895 H       
  40 H40            2.1693    -6.6459    -1.3651 H       
  41 H41            1.3068    -4.3625    -1.7784 H       
  42 H42            2.1998    -4.4298    -0.2393 H       
@<TRIPOS>BOND
   1    1    2 1
   2    1    8 1
   3    1   21 1
   4    1   22 1
   5    2    3 ar
   6    2    7 ar
   7    3    4 ar
   8    3   23 1
   9    4    5 ar
  10    4   24 1
  11    5    6 ar
  12    5   15 1
  13    6    7 ar
  14    6   25 1
  15    7   26 1
  16    8    9 1
  17    8   12 am
  18    9   10 1
  19    9   27 1
  20    9   28 1
  21   10   11 1
  22   10   13 1
  23   10   29 1
  24   11   12 1
  25   12   14 2
  26   13   30 1
  27   13   31 1
  28   13   32 1
  29   15   16 1
  30   15   20 1
  31   15   33 1
  32   16   17 1
  33   16   34 1
  34   16   35 1
  35   17   18 1
  36   17   36 1
  37   17   37 1
  38   18   19 1
  39   18   38 1
  40   19   20 1
  41   19   39 1
  42   19   40 1
  43   20   41 1
  44   20   42 1

#	End of record

