#	Name: ASD00844812
#	Creating user name:	WinNT
#	Creation time:	15. 06. 2019 18:51

#	Modifying user name:	WinNT
#	Modification time:	15. 06. 2019 18:51

#	Program:	/corina/corina34_cracker 3.40 0067  02.08.2006

@<TRIPOS>MOLECULE
ASD00844812
  90   95    0    0    0
SMALL
NO_CHARGES


@<TRIPOS>ATOM
   1 F1             5.6848    -2.4018    -1.8799 F       
   2 C2             0.8335     1.1972    -0.3563 C.ar    
   3 C3             1.0318    -0.1465    -0.6376 C.ar    
   4 C4             0.8498    -1.0955     0.3581 C.ar    
   5 C5             0.4718    -0.7003     1.6265 C.ar    
   6 C6             0.2744     0.6399     1.9042 C.ar    
   7 C7             0.4555     1.5875     0.9140 C.ar    
   8 C8             1.0638    -2.5563     0.0559 C.3     
   9 C9             0.6787    -3.4065     1.2478 C.2     
  10 C10            0.2611    -2.9699    -1.1792 C.3     
  11 C11           -1.1887    -2.6102    -0.9797 C.2     
  12 N12           -2.1063    -2.9767    -1.8963 N.am    
  13 O13           -1.5298    -1.9909     0.0057 O.2     
  14 C14           -3.5063    -2.5416    -1.7788 C.3     
  15 C15           -3.9370    -1.9216    -3.1123 C.3     
  16 N16           -3.6714    -2.8730    -4.1995 N.3     
  17 C17           -2.2346    -3.1518    -4.3246 C.3     
  18 C18           -1.7328    -3.8173    -3.0440 C.3     
  19 N19           -4.2205    -2.3933    -5.4575 N.3     
  20 C20           -3.9549    -3.3452    -6.5452 C.3     
  21 C21           -4.6156    -2.8434    -7.8313 C.3     
  22 N22           -4.0904    -1.5112    -8.1612 N.3     
  23 C23           -4.3561    -0.5593    -7.0735 C.3     
  24 C24           -3.6953    -1.0611    -5.7874 C.3     
  25 C25           -4.6452    -1.0265    -9.4321 C.3     
  26 O26           -0.4209    -3.4811     1.7542 O.2     
  27 N27            1.7836    -4.0634     1.6389 N.am    
  28 C28            2.5338    -2.8460    -0.1431 C.ar    
  29 C29            2.8898    -3.7569     0.8436 C.ar    
  30 C30            3.4620    -2.3920    -1.0527 C.ar    
  31 C31            4.7703    -2.8449    -0.9896 C.ar    
  32 C32            5.1372    -3.7535    -0.0099 C.ar    
  33 C33            4.2061    -4.2089     0.9024 C.ar    
  34 Cl34           6.7755    -4.3222     0.0709 Cl      
  35 C35            1.4528    -6.7173     2.2884 C.ar    
  36 C36            0.1984    -6.9777     1.7567 C.ar    
  37 C37            2.4092    -7.7140     2.3192 C.ar    
  38 C38            2.1170    -8.9697     1.8202 C.ar    
  39 C39            0.8672    -9.2317     1.2896 C.ar    
  40 C40           -0.0925    -8.2390     1.2569 C.ar    
  41 H41            0.6413   -10.2135     0.9004 H       
  42 O42           -0.7442    -5.9992     1.7257 O.3     
  43 C43           -2.0135    -6.3387     1.1638 C.3     
  44 C44           -2.9365    -5.1196     1.2154 C.3     
  45 O45            1.4032    -0.5329    -1.8864 O.3     
  46 C46            1.4885     0.4878    -2.8829 C.3     
  47 C47            2.0079    -0.1166    -4.1890 C.3     
  48 F48            3.2346    -0.7473    -3.9555 F       
  49 F49            1.0858    -1.0531    -4.6686 F       
  50 S50            1.8286    -5.1149     2.9175 S.o2    
  51 O51            3.1809    -5.1612     3.3515 O.2     
  52 O52            0.7504    -4.7557     3.7705 O.2     
  53 H53            0.9789     1.9382    -1.1285 H       
  54 H54            0.3300    -1.4386     2.4019 H       
  55 H55           -0.0218     0.9469     2.8964 H       
  56 H56            0.3007     2.6335     1.1334 H       
  57 H57            0.6476    -2.4487    -2.0550 H       
  58 H58            0.3513    -4.0460    -1.3276 H       
  59 H59           -4.1388    -3.4002    -1.5530 H       
  60 H60           -3.5938    -1.7999    -0.9848 H       
  61 H61           -5.0025    -1.6940    -3.0803 H       
  62 H62           -3.3738    -1.0046    -3.2857 H       
  63 H63           -2.0654    -3.8164    -5.1718 H       
  64 H64           -1.6951    -2.2177    -4.4812 H       
  65 H65           -0.6486    -3.9215    -3.0862 H       
  66 H66           -2.1940    -4.7990    -2.9367 H       
  67 H67           -2.8791    -3.4311    -6.6985 H       
  68 H68           -4.3642    -4.3207    -6.2827 H       
  69 H69           -4.3955    -3.5331    -8.6462 H       
  70 H70           -5.6943    -2.7835    -7.6865 H       
  71 H71           -3.9468     0.4163    -7.3360 H       
  72 H72           -5.4318    -0.4734    -6.9201 H       
  73 H73           -3.9154    -0.3714    -4.9725 H       
  74 H74           -2.6167    -1.1210    -5.9322 H       
  75 H75           -5.7307    -0.9649    -9.3548 H       
  76 H76           -4.2400    -0.0388    -9.6523 H       
  77 H77           -4.3765    -1.7161   -10.2324 H       
  78 H78            3.1711    -1.6841    -1.8146 H       
  79 H79            4.4991    -4.9171     1.6633 H       
  80 H80            3.3861    -7.5117     2.7331 H       
  81 H81            2.8662    -9.7472     1.8445 H       
  82 H82           -1.0687    -8.4443     0.8431 H       
  83 H83           -1.8806    -6.6502     0.1278 H       
  84 H84           -2.4570    -7.1546     1.7346 H       
  85 H85           -3.0694    -4.8080     2.2514 H       
  86 H86           -2.4931    -4.3037     0.6447 H       
  87 H87           -3.9047    -5.3785     0.7868 H       
  88 H88            0.5004     0.9170    -3.0488 H       
  89 H89            2.1716     1.2677    -2.5465 H       
  90 H90            2.1405     0.6739    -4.9276 H       
@<TRIPOS>BOND
   1    1   31 1
   2    2    3 ar
   3    2    7 ar
   4    2   53 1
   5    3    4 ar
   6    3   45 1
   7    4    5 ar
   8    4    8 1
   9    5    6 ar
  10    5   54 1
  11    6    7 ar
  12    6   55 1
  13    7   56 1
  14    8    9 1
  15    8   10 1
  16    8   28 1
  17    9   26 2
  18    9   27 am
  19   10   11 1
  20   10   57 1
  21   10   58 1
  22   11   12 am
  23   11   13 2
  24   12   14 1
  25   12   18 1
  26   14   15 1
  27   14   59 1
  28   14   60 1
  29   15   16 1
  30   15   61 1
  31   15   62 1
  32   16   17 1
  33   16   19 1
  34   17   18 1
  35   17   63 1
  36   17   64 1
  37   18   65 1
  38   18   66 1
  39   19   20 1
  40   19   24 1
  41   20   21 1
  42   20   67 1
  43   20   68 1
  44   21   22 1
  45   21   69 1
  46   21   70 1
  47   22   23 1
  48   22   25 1
  49   23   24 1
  50   23   71 1
  51   23   72 1
  52   24   73 1
  53   24   74 1
  54   25   75 1
  55   25   76 1
  56   25   77 1
  57   27   50 am
  58   27   29 1
  59   28   29 ar
  60   28   30 ar
  61   29   33 ar
  62   30   31 ar
  63   30   78 1
  64   31   32 ar
  65   32   33 ar
  66   32   34 1
  67   33   79 1
  68   35   36 ar
  69   35   37 ar
  70   35   50 1
  71   36   42 1
  72   36   40 ar
  73   37   38 ar
  74   37   80 1
  75   38   39 ar
  76   38   81 1
  77   39   40 ar
  78   39   41 1
  79   40   82 1
  80   42   43 1
  81   43   44 1
  82   43   83 1
  83   43   84 1
  84   44   85 1
  85   44   86 1
  86   44   87 1
  87   45   46 1
  88   46   47 1
  89   46   88 1
  90   46   89 1
  91   47   48 1
  92   47   49 1
  93   47   90 1
  94   50   51 2
  95   50   52 2

#	End of record

