#	Name: ASD01512008
#	Creating user name:	WinNT
#	Creation time:	15. 06. 2019 19:21

#	Modifying user name:	WinNT
#	Modification time:	15. 06. 2019 19:21

#	Program:	/corina/corina34_cracker 3.40 0067  02.08.2006

@<TRIPOS>MOLECULE
ASD01512008
  95  100    0    0    0
SMALL
NO_CHARGES


@<TRIPOS>ATOM
   1 C1             2.4130    -0.9743    -2.7509 C.3     
   2 C2             3.8478    -0.5828    -2.3857 C.3     
   3 C3             4.1509    -1.0493    -0.9603 C.3     
   4 N4             3.2155    -0.4140    -0.0244 N.4     
   5 C5             1.8437    -0.8418    -0.3239 C.3     
   6 C6             1.4518    -0.3673    -1.7249 C.3     
   7 C7             3.5594    -0.8038     1.3496 C.3     
   8 C8             3.3109     1.0461    -0.1544 C.3     
   9 C9             3.2666    -2.2927     1.5457 C.3     
  10 C10            3.6241    -2.6973     2.9774 C.3     
  11 C11            5.1102    -2.4331     3.2258 C.3     
  12 C12            5.4049    -0.9446     3.0289 C.3     
  13 C13            5.0455    -0.5389     1.5979 C.3     
  14 O14            4.0605    -3.0696     0.6105 O.3     
  15 C15            3.5421    -4.2350     0.1924 C.2     
  16 C16            4.3087    -5.0955    -0.7786 C.3     
  17 O17            2.4608    -4.5941     0.5945 O.2     
  18 C18            5.4695    -2.8409     4.6558 C.3     
  19 C19            6.9561    -2.5769     4.9040 C.3     
  20 C20            7.2477    -1.0879     4.7126 C.3     
  21 C21            6.8918    -0.6846     3.2732 C.3     
  22 H22            4.8120    -0.3603     3.7324 H       
  23 H23            5.7050    -3.0169     2.5232 H       
  24 H24            7.4740    -1.2944     2.5823 H       
  25 C25            8.7272    -0.8113     4.9024 C.3     
  26 C26            8.9222     0.7242     4.7793 C.3     
  27 C27            8.6870     1.0967     3.3286 C.3     
  28 C28            7.2165     0.7812     3.0065 C.3     
  29 H29            6.6551    -0.5033     5.4162 H       
  30 C30            9.2851    -1.0832     6.3036 C.3     
  31 C31           10.5559    -0.1915     6.3504 C.3     
  32 C32           10.3321     0.9424     5.3188 C.3     
  33 H33            8.2008     1.2394     5.4136 H       
  34 H34            9.3114    -1.3435     4.1517 H       
  35 O35           10.4278     2.2382     5.9667 O.3     
  36 N36           10.7243     0.3761     7.6948 N.4     
  37 C37            9.5348     1.1614     8.0454 C.3     
  38 C38            9.7387     1.8212     9.4109 C.3     
  39 C39            9.9654     0.7360    10.4673 C.3     
  40 C40           11.1635    -0.1233    10.0533 C.3     
  41 C41           10.9068    -0.7111     8.6640 C.3     
  42 C42           11.9070     1.2473     7.7123 C.3     
  43 C43           10.8703     3.2619     5.2197 C.2     
  44 C44           10.9961     4.6366     5.8241 C.3     
  45 O45           11.1678     3.0811     4.0627 O.2     
  46 H46            2.1732    -0.5947    -3.7442 H       
  47 H47            2.3179    -2.0601    -2.7417 H       
  48 H48            4.5422    -1.0569    -3.0793 H       
  49 H49            3.9558     0.5002    -2.4450 H       
  50 H50            4.0428    -2.1324    -0.9022 H       
  51 H51            5.1717    -0.7723    -0.6971 H       
  52 H52            1.7848    -1.9293    -0.2794 H       
  53 H53            1.1612    -0.4116     0.4091 H       
  54 H54            1.5101     0.7202    -1.7704 H       
  55 H55            0.4336    -0.6874    -1.9461 H       
  56 H56            2.9641    -0.2209     2.0524 H       
  57 H57            3.0015     1.3426    -1.1566 H       
  58 H58            2.6611     1.5197     0.5815 H       
  59 H59            4.3410     1.3594     0.0154 H       
  60 H60            2.2079    -2.4815     1.3683 H       
  61 H61            3.0290    -2.1132     3.6793 H       
  62 H62            3.4151    -3.7577     3.1182 H       
  63 H63            5.6407    -1.1216     0.8948 H       
  64 H64            5.2537     0.5218     1.4580 H       
  65 H65            5.2537    -4.6115    -1.0254 H       
  66 H66            4.5056    -6.0673    -0.3259 H       
  67 H67            3.7214    -5.2301    -1.6869 H       
  68 H68            4.8747    -2.2589     5.3598 H       
  69 H69            5.2609    -3.9018     4.7942 H       
  70 H70            7.2120    -2.8693     5.9224 H       
  71 H71            7.5510    -3.1573     4.1989 H       
  72 H72            8.8785     2.1598     3.1831 H       
  73 H73            9.3417     0.5097     2.6844 H       
  74 H74            7.0257     1.0036     1.9566 H       
  75 H75            6.5736     1.4073     3.6252 H       
  76 H76            8.5713    -0.7781     7.0688 H       
  77 H77            9.5475    -2.1351     6.4168 H       
  78 H78           11.4341    -0.7770     6.0782 H       
  79 H79           11.0610     0.8680     4.5118 H       
  80 H80            9.3729     1.9312     7.2909 H       
  81 H81            8.6656     0.5050     8.0857 H       
  82 H82           10.6076     2.4781     9.3716 H       
  83 H83            8.8537     2.4023     9.6701 H       
  84 H84           10.1674     1.2025    11.4315 H       
  85 H85            9.0765     0.1097    10.5431 H       
  86 H86           12.0620     0.4932    10.0273 H       
  87 H87           11.2969    -0.9322    10.7717 H       
  88 H88           10.0083    -1.3276     8.6911 H       
  89 H89           11.7578    -1.3237     8.3662 H       
  90 H90           11.6668     2.1957     7.2317 H       
  91 H91           12.2093     1.4289     8.7437 H       
  92 H92           12.7225     0.7637     7.1745 H       
  93 H93           11.9919     4.7561     6.2511 H       
  94 H94           10.8397     5.3891     5.0511 H       
  95 H95           10.2479     4.7591     6.6071 H       
@<TRIPOS>BOND
   1    1    2 1
   2    1    6 1
   3    1   46 1
   4    1   47 1
   5    2    3 1
   6    2   48 1
   7    2   49 1
   8    3    4 1
   9    3   50 1
  10    3   51 1
  11    4    5 1
  12    4    7 1
  13    4    8 1
  14    5    6 1
  15    5   52 1
  16    5   53 1
  17    6   54 1
  18    6   55 1
  19    7    9 1
  20    7   13 1
  21    7   56 1
  22    8   57 1
  23    8   58 1
  24    8   59 1
  25    9   10 1
  26    9   14 1
  27    9   60 1
  28   10   11 1
  29   10   61 1
  30   10   62 1
  31   11   12 1
  32   11   18 1
  33   11   23 1
  34   12   13 1
  35   12   21 1
  36   12   22 1
  37   13   63 1
  38   13   64 1
  39   14   15 1
  40   15   16 1
  41   15   17 2
  42   16   65 1
  43   16   66 1
  44   16   67 1
  45   18   19 1
  46   18   68 1
  47   18   69 1
  48   19   20 1
  49   19   70 1
  50   19   71 1
  51   20   21 1
  52   20   29 1
  53   20   25 1
  54   21   24 1
  55   21   28 1
  56   25   30 1
  57   25   34 1
  58   25   26 1
  59   26   27 1
  60   26   33 1
  61   26   32 1
  62   27   28 1
  63   27   72 1
  64   27   73 1
  65   28   74 1
  66   28   75 1
  67   30   31 1
  68   30   76 1
  69   30   77 1
  70   31   32 1
  71   31   36 1
  72   31   78 1
  73   32   35 1
  74   32   79 1
  75   35   43 1
  76   36   37 1
  77   36   42 1
  78   36   41 1
  79   37   38 1
  80   37   80 1
  81   37   81 1
  82   38   39 1
  83   38   82 1
  84   38   83 1
  85   39   40 1
  86   39   84 1
  87   39   85 1
  88   40   41 1
  89   40   86 1
  90   40   87 1
  91   41   88 1
  92   41   89 1
  93   42   90 1
  94   42   91 1
  95   42   92 1
  96   43   44 1
  97   43   45 2
  98   44   93 1
  99   44   94 1
 100   44   95 1

#	End of record

