#	Name: ASD01911111
#	Creating user name:	WinNT
#	Creation time:	15. 06. 2019 19:57

#	Modifying user name:	WinNT
#	Modification time:	15. 06. 2019 19:57

#	Program:	/corina/corina34_cracker 3.40 0067  02.08.2006

@<TRIPOS>MOLECULE
ASD01911111
  45   48    0    0    0
SMALL
NO_CHARGES


@<TRIPOS>ATOM
   1 C1            -0.1610     1.0274    -0.1924 C.2     
   2 O2            -1.1094     1.7859    -0.2446 O.2     
   3 N3             1.0948     1.5142    -0.2406 N.am    
   4 C4             2.2493     0.6287    -0.0367 C.3     
   5 C5             3.1298     1.2138     1.0719 C.3     
   6 C6             3.4988     2.6561     0.7171 C.3     
   7 C7             2.2260     3.4998     0.6152 C.3     
   8 C8             1.3355     2.9395    -0.5043 C.3     
   9 O9             5.3019     0.1820     0.2537 O.3     
  10 N10            6.1893    -0.5245     0.6832 N.2     
  11 C11            5.9501    -0.8412     1.9261 C.2     
  12 N12            4.7859    -0.2540     2.2721 N.2     
  13 C13            4.3856     0.3912     1.2038 C.2     
  14 O14            6.7273    -1.6167     2.7221 O.3     
  15 C15            7.8163    -2.2108     2.1671 C.ar    
  16 C16            8.1901    -1.9011     0.8674 C.ar    
  17 C17            9.2974    -2.5064     0.3055 C.ar    
  18 C18           10.0329    -3.4205     1.0371 C.ar    
  19 C19            9.6623    -3.7312     2.3325 C.ar    
  20 C20            8.5596    -3.1238     2.9013 C.ar    
  21 C21           -0.3851    -0.4289    -0.0697 C.ar    
  22 C22            0.4572    -1.3254    -0.7290 C.ar    
  23 C23            0.2423    -2.6850    -0.6096 C.ar    
  24 C24           -0.8073    -3.1575     0.1625 C.ar    
  25 C25           -1.6443    -2.2726     0.8174 C.ar    
  26 C26           -1.4363    -0.9127     0.7104 C.ar    
  27 F27            1.0561    -3.5551    -1.2466 F       
  28 H28            1.9025    -0.3621     0.2567 H       
  29 H29            2.8235     0.5584    -0.9605 H       
  30 H30            2.5842     1.1995     2.0155 H       
  31 H31            4.1456     3.0667     1.4924 H       
  32 H32            4.0227     2.6722    -0.2387 H       
  33 H33            1.6890     3.4639     1.5630 H       
  34 H34            2.4911     4.5318     0.3854 H       
  35 H35            1.8367     3.0537    -1.4654 H       
  36 H36            0.3856     3.4738    -0.5194 H       
  37 H37            7.6155    -1.1877     0.2952 H       
  38 H38            9.5887    -2.2656    -0.7062 H       
  39 H39           10.8981    -3.8929     0.5959 H       
  40 H40           10.2380    -4.4461     2.9016 H       
  41 H41            8.2734    -3.3632     3.9147 H       
  42 H42            1.2747    -0.9573    -1.3312 H       
  43 H43           -0.9723    -4.2210     0.2527 H       
  44 H44           -2.4604    -2.6471     1.4175 H       
  45 H45           -2.0885    -0.2236     1.2264 H       
@<TRIPOS>BOND
   1    1    2 2
   2    1    3 am
   3    1   21 1
   4    3    4 1
   5    3    8 1
   6    4    5 1
   7    4   28 1
   8    4   29 1
   9    5    6 1
  10    5   13 1
  11    5   30 1
  12    6    7 1
  13    6   31 1
  14    6   32 1
  15    7    8 1
  16    7   33 1
  17    7   34 1
  18    8   35 1
  19    8   36 1
  20    9   10 1
  21    9   13 1
  22   10   11 2
  23   11   12 1
  24   11   14 1
  25   12   13 2
  26   14   15 1
  27   15   16 ar
  28   15   20 ar
  29   16   17 ar
  30   16   37 1
  31   17   18 ar
  32   17   38 1
  33   18   19 ar
  34   18   39 1
  35   19   20 ar
  36   19   40 1
  37   20   41 1
  38   21   22 ar
  39   21   26 ar
  40   22   23 ar
  41   22   42 1
  42   23   24 ar
  43   23   27 1
  44   24   25 ar
  45   24   43 1
  46   25   26 ar
  47   25   44 1
  48   26   45 1

#	End of record

