#	Name: ASD03090154
#	Creating user name:	WinNT
#	Creation time:	15. 06. 2019 20:28

#	Modifying user name:	WinNT
#	Modification time:	15. 06. 2019 20:28

#	Program:	/corina/corina34_cracker 3.40 0067  02.08.2006

@<TRIPOS>MOLECULE
ASD03090154
  39   41    0    0    0
SMALL
NO_CHARGES


@<TRIPOS>ATOM
   1 C1             0.3752     1.4530     1.4842 C.ar    
   2 C2             1.4823     2.2376     1.2171 C.ar    
   3 C3             2.6821     1.6283     0.8927 C.ar    
   4 C4             2.7253     0.2306     0.8482 C.ar    
   5 C5             1.5641    -0.4890     1.1309 C.ar    
   6 N6             0.4458     0.1365     1.4346 N.ar    
   7 C7             3.9816    -0.4725     0.5066 C.2     
   8 N8             5.8512    -3.2608    -0.5364 N.pl3   
   9 C9             4.9577    -4.2788    -0.8798 C.ar    
  10 C10            3.7285    -3.9645    -1.4453 C.ar    
  11 C11            2.8476    -4.9732    -1.7835 C.ar    
  12 C12            3.1880    -6.2945    -1.5593 C.ar    
  13 C13            4.4111    -6.6109    -0.9964 C.ar    
  14 C14            5.2990    -5.6078    -0.6616 C.ar    
  15 N15            4.0860    -1.7257     0.1116 N.2     
  16 C16            5.3680    -2.0228    -0.1080 C.2     
  17 N17            6.1022    -0.9636     0.1434 N.2     
  18 N18            5.2243     0.0586     0.5388 N.pl3   
  19 C19            5.5846     1.4265     0.9198 C.3     
  20 C20            5.6623     2.3011    -0.3332 C.3     
  21 O21            6.0138     3.6355     0.0384 O.3     
  22 C22            4.7777    -8.0524    -0.7539 C.3     
  23 F23            3.7298    -8.8774    -1.1762 F       
  24 F24            5.9366    -8.3660    -1.4721 F       
  25 F25            5.0071    -8.2519     0.6117 F       
  26 H26           -0.5611     1.9255     1.7419 H       
  27 H27            1.4114     3.3144     1.2607 H       
  28 H28            3.5622     2.2167     0.6792 H       
  29 H29            1.5825    -1.5684     1.1004 H       
  30 H30            6.8072    -3.4142    -0.5955 H       
  31 H31            3.4617    -2.9327    -1.6200 H       
  32 H32            1.8918    -4.7296    -2.2232 H       
  33 H33            2.4971    -7.0812    -1.8241 H       
  34 H34            6.2539    -5.8556    -0.2221 H       
  35 H35            4.8288     1.8265     1.5957 H       
  36 H36            6.5531     1.4213     1.4199 H       
  37 H37            6.4181     1.9012    -1.0091 H       
  38 H38            4.6939     2.3064    -0.8333 H       
  39 H39            6.0813     4.2467    -0.7079 H       
@<TRIPOS>BOND
   1    1    2 ar
   2    1    6 ar
   3    1   26 1
   4    2    3 ar
   5    2   27 1
   6    3    4 ar
   7    3   28 1
   8    4    5 ar
   9    4    7 1
  10    5    6 ar
  11    5   29 1
  12    7   15 2
  13    7   18 1
  14    8    9 1
  15    8   16 1
  16    8   30 1
  17    9   10 ar
  18    9   14 ar
  19   10   11 ar
  20   10   31 1
  21   11   12 ar
  22   11   32 1
  23   12   13 ar
  24   12   33 1
  25   13   14 ar
  26   13   22 1
  27   14   34 1
  28   15   16 1
  29   16   17 2
  30   17   18 1
  31   18   19 1
  32   19   20 1
  33   19   35 1
  34   19   36 1
  35   20   21 1
  36   20   37 1
  37   20   38 1
  38   21   39 1
  39   22   23 1
  40   22   24 1
  41   22   25 1

#	End of record

