#	Name: ASD01028606
#	Creating user name:	WinNT
#	Creation time:	15. 06. 2019 18:57

#	Modifying user name:	WinNT
#	Modification time:	15. 06. 2019 18:57

#	Program:	/corina/corina34_cracker 3.40 0067  02.08.2006

@<TRIPOS>MOLECULE
ASD01028606
  25   26    0    0    0
SMALL
NO_CHARGES


@<TRIPOS>ATOM
   1 N1            -0.0164     1.3618     0.0095 N.pl3   
   2 N2             0.0021    -0.0041     0.0020 N.3     
   3 C3             1.1794     2.0741     0.0019 C.ar    
   4 C4             1.1505     3.4677     0.0097 C.ar    
   5 C5             2.3435     4.1666     0.0021 C.ar    
   6 C6             3.5395     3.4408    -0.0133 C.ar    
   7 C7             3.4876     2.0513    -0.0202 C.ar    
   8 N8             2.3297     1.4198    -0.0071 N.ar    
   9 N9             6.9998     4.5436    -0.0409 N.pl3   
  10 N10            6.3270     5.7714    -0.0279 N.2     
  11 C11            5.0408     5.5399    -0.0168 C.2     
  12 C12            4.8470     4.1451    -0.0224 C.2     
  13 C13            6.0783     3.5583    -0.0374 C.2     
  14 C14            8.4531     4.3605    -0.0613 C.3     
  15 F15           -0.0284     4.1273     0.0241 F       
  16 H16           -0.8630     1.8353     0.0161 H       
  17 H17           -0.9349    -0.3784     0.0090 H       
  18 H18            0.5256    -0.3543    -0.7863 H       
  19 H19            2.3519     5.2466     0.0074 H       
  20 H20            4.4058     1.4827    -0.0320 H       
  21 H21            4.2620     6.2881    -0.0053 H       
  22 H22            6.2791     2.4972    -0.0450 H       
  23 H23            8.8275     4.3114     0.9613 H       
  24 H24            8.6954     3.4340    -0.5818 H       
  25 H25            8.9179     5.2000    -0.5784 H       
@<TRIPOS>BOND
   1    1    2 1
   2    1    3 1
   3    1   16 1
   4    2   17 1
   5    2   18 1
   6    3    4 ar
   7    3    8 ar
   8    4    5 ar
   9    4   15 1
  10    5    6 ar
  11    5   19 1
  12    6    7 ar
  13    6   12 1
  14    7    8 ar
  15    7   20 1
  16    9   10 1
  17    9   13 1
  18    9   14 1
  19   10   11 2
  20   11   12 1
  21   11   21 1
  22   12   13 2
  23   13   22 1
  24   14   23 1
  25   14   24 1
  26   14   25 1

#	End of record

