#	Name: ASD01208707
#	Creating user name:	WinNT
#	Creation time:	15. 06. 2019 19:10

#	Modifying user name:	WinNT
#	Modification time:	15. 06. 2019 19:10

#	Program:	/corina/corina34_cracker 3.40 0067  02.08.2006

@<TRIPOS>MOLECULE
ASD01208707
  58   61    0    0    0
SMALL
NO_CHARGES


@<TRIPOS>ATOM
   1 C1            -0.1098     1.4364    -0.0756 C.2     
   2 C2             0.0034    -0.0306    -0.1789 C.ar    
   3 C3             1.2143    -0.6179    -0.5712 C.ar    
   4 C4             1.3122    -1.9977    -0.6659 C.ar    
   5 C5             0.2210    -2.7919    -0.3750 C.ar    
   6 C6            -0.9821    -2.2164     0.0144 C.ar    
   7 C7            -1.0938    -0.8421     0.1191 C.ar    
   8 O8             0.8488     2.1396    -0.3310 O.2     
   9 N9            -1.2773     1.9976     0.2965 N.am    
  10 S10           -2.7986     4.2222     0.8526 S.3     
  11 C11           -1.3838     3.3791     0.3939 C.2     
  12 N12           -0.4247     4.2168     0.1508 N.2     
  13 C13           -0.7012     5.4995     0.2943 C.2     
  14 C14           -1.9532     5.7578     0.6768 C.2     
  15 O15           -2.0513    -3.0071     0.2984 O.3     
  16 C16           -2.8632    -5.0983     1.1974 C.3     
  17 C17           -1.8337    -4.4194     0.2919 C.3     
  18 C18           -1.9803    -4.9514    -1.1352 C.3     
  19 O19           -4.1715    -4.9148     0.6525 O.3     
  20 C20           -5.2127    -5.5138     1.4264 C.3     
  21 O21            2.2874     0.1619    -0.8579 O.3     
  22 C22            3.4516    -0.4531    -1.1910 C.ar    
  23 C23            3.6287    -0.9520    -2.4754 C.ar    
  24 C24            4.8086    -1.5767    -2.8172 C.ar    
  25 C25            5.8267    -1.7077    -1.8707 C.ar    
  26 C26            5.6449    -1.2049    -0.5808 C.ar    
  27 C27            4.4644    -0.5765    -0.2482 C.ar    
  28 O28            8.1543    -2.5725    -1.4247 O.3     
  29 C29            7.0932    -2.3773    -2.2330 C.2     
  30 N30            7.3946    -2.8933    -3.4019 N.2     
  31 N31            8.5795    -3.3922    -3.3525 N.2     
  32 C32            9.0773    -3.2162    -2.1607 C.2     
  33 C33           10.4410    -3.6545    -1.6925 C.3     
  34 C34           11.4529    -2.5365    -1.9515 C.3     
  35 H35            2.2441    -2.4522    -0.9683 H       
  36 H36            0.3029    -3.8661    -0.4508 H       
  37 H37           -2.0285    -0.3969     0.4266 H       
  38 H38           -2.0431     1.4368     0.4964 H       
  39 H39            0.0270     6.2770     0.1166 H       
  40 H40           -2.3747     6.7372     0.8485 H       
  41 H41           -2.6431    -6.1638     1.2629 H       
  42 H42           -2.8190    -4.6564     2.1929 H       
  43 H43           -0.8299    -4.6341     0.6583 H       
  44 H44           -1.8143    -6.0287    -1.1402 H       
  45 H45           -2.9841    -4.7367    -1.5017 H       
  46 H46           -1.2468    -4.4678    -1.7803 H       
  47 H47           -5.0413    -6.5880     1.4966 H       
  48 H48           -5.2173    -5.0805     2.4266 H       
  49 H49           -6.1739    -5.3299     0.9464 H       
  50 H50            2.8406    -0.8506    -3.2068 H       
  51 H51            4.9454    -1.9646    -3.8158 H       
  52 H52            6.4300    -1.3048     0.1540 H       
  53 H53            4.3247    -0.1835     0.7479 H       
  54 H54           10.4060    -3.8727    -0.6251 H       
  55 H55           10.7416    -4.5498    -2.2366 H       
  56 H56           11.4880    -2.3183    -3.0188 H       
  57 H57           11.1523    -1.6411    -1.4073 H       
  58 H58           12.4392    -2.8535    -1.6128 H       
@<TRIPOS>BOND
   1    1    2 1
   2    1    8 2
   3    1    9 am
   4    2    3 ar
   5    2    7 ar
   6    3    4 ar
   7    3   21 1
   8    4    5 ar
   9    4   35 1
  10    5    6 ar
  11    5   36 1
  12    6    7 ar
  13    6   15 1
  14    7   37 1
  15    9   11 1
  16    9   38 1
  17   10   11 1
  18   10   14 1
  19   11   12 2
  20   12   13 1
  21   13   14 2
  22   13   39 1
  23   14   40 1
  24   15   17 1
  25   16   17 1
  26   16   19 1
  27   16   41 1
  28   16   42 1
  29   17   18 1
  30   17   43 1
  31   18   44 1
  32   18   45 1
  33   18   46 1
  34   19   20 1
  35   20   47 1
  36   20   48 1
  37   20   49 1
  38   21   22 1
  39   22   23 ar
  40   22   27 ar
  41   23   24 ar
  42   23   50 1
  43   24   25 ar
  44   24   51 1
  45   25   26 ar
  46   25   29 1
  47   26   27 ar
  48   26   52 1
  49   27   53 1
  50   28   29 1
  51   28   32 1
  52   29   30 2
  53   30   31 1
  54   31   32 2
  55   32   33 1
  56   33   34 1
  57   33   54 1
  58   33   55 1
  59   34   56 1
  60   34   57 1
  61   34   58 1

#	End of record

