#	Name: ASD03730288
#	Creating user name:	WinNT
#	Creation time:	15. 06. 2019 20:44

#	Modifying user name:	WinNT
#	Modification time:	15. 06. 2019 20:44

#	Program:	/corina/corina34_cracker 3.40 0067  02.08.2006

@<TRIPOS>MOLECULE
ASD03730288
  86   92    0    0    0
SMALL
NO_CHARGES


@<TRIPOS>ATOM
   1 N1            -1.3870    -0.2126    -2.2794 N.am    
   2 C2            -0.5532     0.2548    -1.1616 C.3     
   3 C3             0.8411    -0.3651    -1.3021 C.3     
   4 N4             1.3725    -0.0695    -2.6393 N.3     
   5 C5             0.5464    -0.6819    -3.6883 C.3     
   6 C6            -0.8601    -0.0750    -3.6457 C.3     
   7 C7            -2.5995    -0.7576    -2.0573 C.2     
   8 O8            -3.0171    -0.8681    -0.9216 O.2     
   9 O9            -3.3481    -1.1795    -3.0938 O.3     
  10 C10            2.7022    -0.4754    -2.7497 C.ar    
  11 C11            3.7081     0.4690    -2.9876 C.ar    
  12 C12            5.0325     0.0533    -3.0961 C.ar    
  13 C13            5.3474    -1.2849    -2.9691 C.ar    
  14 C14            4.3519    -2.2167    -2.7340 C.ar    
  15 C15            3.0345    -1.8161    -2.6186 C.ar    
  16 O16            9.3101     2.0744    -1.4205 O.3     
  17 C17            9.9547     0.7923    -1.5370 C.3     
  18 O18            9.1747    -0.0620    -0.6799 O.3     
  19 C19            7.9243     0.4866    -0.6572 C.ar    
  20 C20            8.0085     1.8009    -1.1112 C.ar    
  21 C21            6.7008    -0.0380    -0.2813 C.ar    
  22 C22            5.5488     0.7394    -0.3511 C.ar    
  23 C23            5.6469     2.0540    -0.7968 C.ar    
  24 C24            6.8643     2.5781    -1.1781 C.ar    
  25 O25            4.2588     0.4147    -0.0504 O.3     
  26 C26            4.2592     2.6336    -0.7312 C.3     
  27 C27            3.4957     1.6224     0.1350 C.3     
  28 N28            3.6872     4.8234    -1.0466 N.am    
  29 C29            4.2453     4.0090    -0.1288 C.2     
  30 C30            3.6395     2.7881    -2.0881 C.ar    
  31 C31            3.3644     1.9053    -3.1238 C.ar    
  32 C32            2.7643     2.3731    -4.2929 C.ar    
  33 C33            2.4486     3.7120    -4.4111 C.ar    
  34 C34            2.7218     4.5890    -3.3812 C.ar    
  35 C35            3.3206     4.1362    -2.2067 C.ar    
  36 C36            3.4886     6.2616    -0.8507 C.3     
  37 C37            4.7217     7.0190    -1.3474 C.3     
  38 C38            4.5143     8.5210    -1.1429 C.3     
  39 C39            5.7474     9.2784    -1.6396 C.3     
  40 C40            5.5400    10.7804    -1.4351 C.3     
  41 O41            4.6551     4.3250     0.9681 O.2     
  42 C42           -4.6432    -1.7561    -2.7800 C.3     
  43 C43           -5.4994    -0.7196    -2.0496 C.3     
  44 C44           -5.3426    -2.1741    -4.0750 C.3     
  45 C45           -4.4523    -2.9821    -1.8848 C.3     
  46 H46           -0.4755     1.3416    -1.1922 H       
  47 H47           -0.9990    -0.0568    -0.2170 H       
  48 H48            1.5041     0.0556    -0.5461 H       
  49 H49            0.7744    -1.4447    -1.1677 H       
  50 H50            0.9955    -0.4909    -4.6629 H       
  51 H51            0.4838    -1.7571    -3.5207 H       
  52 H52           -1.5087    -0.6046    -4.3434 H       
  53 H53           -0.8119     0.9801    -3.9150 H       
  54 H54            5.8128     0.7770    -3.2800 H       
  55 H55            6.3751    -1.6058    -3.0539 H       
  56 H56            4.6062    -3.2617    -2.6362 H       
  57 H57            2.2626    -2.5475    -2.4302 H       
  58 H58            9.9183     0.4374    -2.5670 H       
  59 H59           10.9853     0.8485    -1.1865 H       
  60 H60            6.6392    -1.0581     0.0680 H       
  61 H61            6.9255     3.5975    -1.5294 H       
  62 H62            2.4755     1.4951    -0.2269 H       
  63 H63            3.5013     1.9270     1.1815 H       
  64 H64            2.5480     1.6912    -5.1020 H       
  65 H65            1.9843     4.0755    -5.3159 H       
  66 H66            2.4701     5.6340    -3.4861 H       
  67 H67            2.6122     6.5869    -1.4112 H       
  68 H68            3.3388     6.4666     0.2093 H       
  69 H69            5.5981     6.6936    -0.7870 H       
  70 H70            4.8715     6.8139    -2.4074 H       
  71 H71            3.6379     8.8464    -1.7033 H       
  72 H72            4.3645     8.7261    -0.0829 H       
  73 H73            6.6238     8.9530    -1.0792 H       
  74 H74            5.8972     9.0733    -2.6996 H       
  75 H75            4.6635    11.1058    -1.9955 H       
  76 H76            5.3902    10.9855    -0.3751 H       
  77 H77            6.4184    11.3200    -1.7889 H       
  78 H78           -5.6354     0.1538    -2.6874 H       
  79 H79           -6.4717    -1.1525    -1.8141 H       
  80 H80           -5.0012    -0.4218    -1.1271 H       
  81 H81           -4.7326    -2.9125    -4.5954 H       
  82 H82           -6.3149    -2.6070    -3.8395 H       
  83 H83           -5.4786    -1.3007    -4.7128 H       
  84 H84           -3.9540    -2.6843    -0.9623 H       
  85 H85           -5.4245    -3.4149    -1.6493 H       
  86 H86           -3.8423    -3.7205    -2.4052 H       
@<TRIPOS>BOND
   1    1    2 1
   2    1    6 1
   3    1    7 am
   4    2    3 1
   5    2   46 1
   6    2   47 1
   7    3    4 1
   8    3   48 1
   9    3   49 1
  10    4    5 1
  11    4   10 1
  12    5    6 1
  13    5   50 1
  14    5   51 1
  15    6   52 1
  16    6   53 1
  17    7    8 2
  18    7    9 1
  19    9   42 1
  20   10   11 ar
  21   10   15 ar
  22   11   12 ar
  23   11   31 1
  24   12   13 ar
  25   12   54 1
  26   13   14 ar
  27   13   55 1
  28   14   15 ar
  29   14   56 1
  30   15   57 1
  31   16   17 1
  32   16   20 1
  33   17   18 1
  34   17   58 1
  35   17   59 1
  36   18   19 1
  37   19   20 ar
  38   19   21 ar
  39   20   24 ar
  40   21   22 ar
  41   21   60 1
  42   22   23 ar
  43   22   25 1
  44   23   24 ar
  45   23   26 1
  46   24   61 1
  47   25   27 1
  48   26   27 1
  49   26   29 1
  50   26   30 1
  51   27   62 1
  52   27   63 1
  53   28   29 am
  54   28   35 1
  55   28   36 1
  56   29   41 2
  57   30   31 ar
  58   30   35 ar
  59   31   32 ar
  60   32   33 ar
  61   32   64 1
  62   33   34 ar
  63   33   65 1
  64   34   35 ar
  65   34   66 1
  66   36   37 1
  67   36   67 1
  68   36   68 1
  69   37   38 1
  70   37   69 1
  71   37   70 1
  72   38   39 1
  73   38   71 1
  74   38   72 1
  75   39   40 1
  76   39   73 1
  77   39   74 1
  78   40   75 1
  79   40   76 1
  80   40   77 1
  81   42   43 1
  82   42   45 1
  83   42   44 1
  84   43   78 1
  85   43   79 1
  86   43   80 1
  87   44   81 1
  88   44   82 1
  89   44   83 1
  90   45   84 1
  91   45   85 1
  92   45   86 1

#	End of record

