#	Name: ASD05130096
#	Creating user name:	WinNT
#	Creation time:	15. 06. 2019 20:56

#	Modifying user name:	WinNT
#	Modification time:	15. 06. 2019 20:56

#	Program:	/corina/corina34_cracker 3.40 0067  02.08.2006

@<TRIPOS>MOLECULE
ASD05130096
  57   60    0    0    0
SMALL
NO_CHARGES


@<TRIPOS>ATOM
   1 N1            -0.1558     1.5470     0.1095 N.am    
   2 C2             0.0400     0.4138     0.8124 C.2     
   3 O3             1.1013     0.2226     1.3742 O.2     
   4 N4            -0.9405    -0.5074     0.8925 N.am    
   5 C5            -0.7022    -1.7291     1.5318 C.ar    
   6 C6             0.5562    -2.3126     1.4698 C.ar    
   7 C7             0.7883    -3.5203     2.1028 C.ar    
   8 C8            -0.2337    -4.1463     2.7976 C.ar    
   9 C9            -1.4868    -3.5663     2.8595 C.ar    
  10 C10           -1.7222    -2.3572     2.2342 C.ar    
  11 C11           -2.5961    -4.2507     3.6160 C.3     
  12 F12            2.0119    -4.0898     2.0431 F       
  13 C13            0.8288     2.5439     0.0990 C.ar    
  14 C14            0.4673     3.8772    -0.0699 C.ar    
  15 C15            1.4366     4.8646    -0.0803 C.ar    
  16 C16            2.7684     4.5318     0.0765 C.ar    
  17 C17            3.1386     3.1971     0.2464 C.ar    
  18 C18            2.1614     2.2030     0.2626 C.ar    
  19 F19           -0.8333     4.2083    -0.2245 F       
  20 N20            6.5458     2.7720     1.8380 N.am    
  21 C21            5.2475     3.0987     1.6843 C.2     
  22 C22            4.5663     2.8380     0.4142 C.2     
  23 C23            5.2567     2.2603    -0.6161 C.2     
  24 C24            6.6192     1.9264    -0.4302 C.ar    
  25 C25            7.3642     1.3342    -1.4575 C.ar    
  26 N26            8.6297     1.0305    -1.2684 N.ar    
  27 C27            9.2500     1.2660    -0.1171 C.ar    
  28 C28            8.5865     1.8496     0.9528 C.ar    
  29 C29            7.2470     2.1907     0.8067 C.ar    
  30 O30            4.6380     3.6124     2.6055 O.2     
  31 N31           10.5869     0.9212     0.0181 N.pl3   
  32 C32           11.2847     1.1744     1.2811 C.3     
  33 C33            7.2175     3.0434     3.1113 C.3     
  34 C34            7.0663     1.8336     4.0357 C.3     
  35 Cl35           3.9811     5.7739     0.0616 Cl      
  36 H36           -0.9766     1.6707    -0.3924 H       
  37 H37           -1.8114    -0.3235     0.5070 H       
  38 H38            1.3525    -1.8244     0.9277 H       
  39 H39           -0.0511    -5.0892     3.2914 H       
  40 H40           -2.7005    -1.9027     2.2878 H       
  41 H41           -2.5896    -3.9151     4.6530 H       
  42 H42           -3.5543    -4.0021     3.1596 H       
  43 H43           -2.4468    -5.3299     3.5824 H       
  44 H44            1.1515     5.8979    -0.2116 H       
  45 H45            2.4430     1.1692     0.3979 H       
  46 H46            4.7682     2.0614    -1.5586 H       
  47 H47            6.8974     1.1257    -2.4089 H       
  48 H48            9.1023     2.0361     1.8832 H       
  49 H49           11.0598     0.5124    -0.7237 H       
  50 H50           11.2647     2.2422     1.4995 H       
  51 H51           10.7897     0.6299     2.0852 H       
  52 H52           12.3187     0.8397     1.1985 H       
  53 H53            8.2757     3.2326     2.9307 H       
  54 H54            6.7670     3.9179     3.5806 H       
  55 H55            6.0081     1.6444     4.2162 H       
  56 H56            7.5168     0.9591     3.5663 H       
  57 H57            7.5661     2.0355     4.9831 H       
@<TRIPOS>BOND
   1    1    2 am
   2    1   13 1
   3    1   36 1
   4    2    3 2
   5    2    4 am
   6    4    5 1
   7    4   37 1
   8    5    6 ar
   9    5   10 ar
  10    6    7 ar
  11    6   38 1
  12    7    8 ar
  13    7   12 1
  14    8    9 ar
  15    8   39 1
  16    9   10 ar
  17    9   11 1
  18   10   40 1
  19   11   41 1
  20   11   42 1
  21   11   43 1
  22   13   14 ar
  23   13   18 ar
  24   14   15 ar
  25   14   19 1
  26   15   16 ar
  27   15   44 1
  28   16   17 ar
  29   16   35 1
  30   17   18 ar
  31   17   22 1
  32   18   45 1
  33   20   21 am
  34   20   29 1
  35   20   33 1
  36   21   22 1
  37   21   30 2
  38   22   23 2
  39   23   24 1
  40   23   46 1
  41   24   25 ar
  42   24   29 ar
  43   25   26 ar
  44   25   47 1
  45   26   27 ar
  46   27   28 ar
  47   27   31 1
  48   28   29 ar
  49   28   48 1
  50   31   32 1
  51   31   49 1
  52   32   50 1
  53   32   51 1
  54   32   52 1
  55   33   34 1
  56   33   53 1
  57   33   54 1
  58   34   55 1
  59   34   56 1
  60   34   57 1

#	End of record

