#	Name: ASD00990026
#	Creating user name:	WinNT
#	Creation time:	15. 06. 2019 18:54

#	Modifying user name:	WinNT
#	Modification time:	15. 06. 2019 18:54

#	Program:	/corina/corina34_cracker 3.40 0067  02.08.2006

@<TRIPOS>MOLECULE
ASD00990026
  24   25    0    0    0
SMALL
NO_CHARGES


@<TRIPOS>ATOM
   1 C1            -0.0167     1.3799     0.0096 C.ar    
   2 C2             0.0021    -0.0041     0.0020 C.ar    
   3 C3            -1.1807    -0.7173     0.0095 C.ar    
   4 C4            -2.3931    -0.0455     0.0247 C.ar    
   5 C5            -2.4109     1.3490     0.0323 C.ar    
   6 C6            -1.2199     2.0580     0.0305 C.ar    
   7 O7            -3.6822    -0.4647     0.0347 O.3     
   8 C8            -4.4935     0.6046     0.0482 C.2     
   9 N9            -3.7523     1.7303     0.0472 N.am    
  10 O10           -5.7087     0.5639     0.0590 O.2     
  11 C11           -4.2626     3.1035     0.0604 C.3     
  12 C12            1.2793     2.1490     0.0014 C.3     
  13 F13            2.3533     1.2527    -0.0137 F       
  14 F14            1.3328     2.9602    -1.1371 F       
  15 F15            1.3547     2.9480     1.1473 F       
  16 C16           -4.4236     3.5659     1.4856 C.2     
  17 O17           -4.1411     2.8245     2.3968 O.2     
  18 O18           -4.8808     4.8015     1.7427 O.3     
  19 H19            0.9460    -0.5287    -0.0102 H       
  20 H20           -1.1609    -1.7971     0.0031 H       
  21 H21           -1.2326     3.1379     0.0364 H       
  22 H22           -3.5599     3.7572    -0.4565 H       
  23 H23           -5.2284     3.1371    -0.4438 H       
  24 H24           -4.9672     5.0529     2.6725 H       
@<TRIPOS>BOND
   1    1    2 ar
   2    1   12 1
   3    1    6 ar
   4    2    3 ar
   5    2   19 1
   6    3    4 ar
   7    3   20 1
   8    4    5 ar
   9    4    7 1
  10    5    6 ar
  11    5    9 1
  12    6   21 1
  13    7    8 1
  14    8    9 am
  15    8   10 2
  16    9   11 1
  17   11   16 1
  18   11   22 1
  19   11   23 1
  20   12   13 1
  21   12   14 1
  22   12   15 1
  23   16   17 2
  24   16   18 1
  25   18   24 1

#	End of record

