#	Name: ASD02440050
#	Creating user name:	WinNT
#	Creation time:	15. 06. 2019 20:21

#	Modifying user name:	WinNT
#	Modification time:	15. 06. 2019 20:21

#	Program:	/corina/corina34_cracker 3.40 0067  02.08.2006

@<TRIPOS>MOLECULE
ASD02440050
  51   54    0    0    0
SMALL
NO_CHARGES


@<TRIPOS>ATOM
   1 N1             0.0478     1.4627     0.6873 N.am    
   2 C2             0.0530     0.1367     0.8648 C.2     
   3 S3             1.7196    -0.4109     0.6138 S.3     
   4 C4             2.3521     1.2118     0.2720 C.2     
   5 C5             1.1751     2.0844     0.3839 C.2     
   6 S6            -1.2936    -0.8440     1.2593 S.2     
   7 C7            -1.1990     2.2200     0.8221 C.3     
   8 C8            -1.3635     2.6666     2.2520 C.ar    
   9 O9             1.2330     3.2874     0.2102 O.2     
  10 C10            3.6276     1.5651    -0.0235 C.2     
  11 C11            4.7066     0.5711     0.0721 C.ar    
  12 C12            5.9070     0.7681    -0.6193 C.ar    
  13 C13            6.9163    -0.1671    -0.5259 C.ar    
  14 C14            6.7465    -1.3003     0.2486 C.ar    
  15 C15            5.5586    -1.5061     0.9388 C.ar    
  16 C16            4.5400    -0.5731     0.8592 C.ar    
  17 C17           -2.1779     2.2557     4.4662 C.ar    
  18 C18           -2.0234     1.8530     3.1559 C.ar    
  19 C19           -0.8490     3.8857     2.6562 C.ar    
  20 C20           -0.9959     4.3006     3.9636 C.ar    
  21 C21           -1.6657     3.4871     4.8797 C.ar    
  22 C22           -1.8278     3.9252     6.2811 C.2     
  23 O23           -2.4076     3.2137     7.0767 O.2     
  24 O24           -1.3324     5.1139     6.6768 O.3     
  25 O25            5.3989    -2.6223     1.6976 O.3     
  26 C26            6.4933    -3.5403     1.7394 C.3     
  27 C27            6.1363    -4.7076     2.6232 C.ar    
  28 C28            5.5230    -5.8220     2.0820 C.ar    
  29 C29            5.1955    -6.8927     2.8927 C.ar    
  30 C30            5.4817    -6.8492     4.2444 C.ar    
  31 C31            6.0958    -5.7352     4.7854 C.ar    
  32 C32            6.4272    -4.6662     3.9739 C.ar    
  33 H33           -1.1661     3.0931     0.1703 H       
  34 H34           -2.0407     1.5875     0.5399 H       
  35 H35            3.8508     2.5766    -0.3291 H       
  36 H36            6.0429     1.6514    -1.2256 H       
  37 H37            7.8426    -0.0142    -1.0598 H       
  38 H38            7.5409    -2.0287     0.3169 H       
  39 H39            3.6161    -0.7323     1.3954 H       
  40 H40           -2.6938     1.6200     5.1706 H       
  41 H41           -2.4187     0.9006     2.8348 H       
  42 H42           -0.3308     4.5138     1.9467 H       
  43 H43           -0.5935     5.2523     4.2779 H       
  44 H44           -1.4631     5.3574     7.6035 H       
  45 H45            6.7056    -3.8987     0.7322 H       
  46 H46            7.3740    -3.0378     2.1394 H       
  47 H47            5.2994    -5.8560     1.0260 H       
  48 H48            4.7157    -7.7631     2.4701 H       
  49 H49            5.2252    -7.6855     4.8779 H       
  50 H50            6.3191    -5.7010     5.8415 H       
  51 H51            6.9104    -3.7974     4.3959 H       
@<TRIPOS>BOND
   1    1    2 am
   2    1    5 am
   3    1    7 1
   4    2    3 1
   5    2    6 2
   6    3    4 1
   7    4    5 1
   8    4   10 2
   9    5    9 2
  10    7    8 1
  11    7   33 1
  12    7   34 1
  13    8   19 ar
  14    8   18 ar
  15   10   11 1
  16   10   35 1
  17   11   12 ar
  18   11   16 ar
  19   12   13 ar
  20   12   36 1
  21   13   14 ar
  22   13   37 1
  23   14   15 ar
  24   14   38 1
  25   15   16 ar
  26   15   25 1
  27   16   39 1
  28   17   18 ar
  29   17   21 ar
  30   17   40 1
  31   18   41 1
  32   19   20 ar
  33   19   42 1
  34   20   21 ar
  35   20   43 1
  36   21   22 1
  37   22   23 2
  38   22   24 1
  39   24   44 1
  40   25   26 1
  41   26   27 1
  42   26   45 1
  43   26   46 1
  44   27   28 ar
  45   27   32 ar
  46   28   29 ar
  47   28   47 1
  48   29   30 ar
  49   29   48 1
  50   30   31 ar
  51   30   49 1
  52   31   32 ar
  53   31   50 1
  54   32   51 1

#	End of record

