#	Name: ASD03240529
#	Creating user name:	WinNT
#	Creation time:	15. 06. 2019 20:35

#	Modifying user name:	WinNT
#	Modification time:	15. 06. 2019 20:35

#	Program:	/corina/corina34_cracker 3.40 0067  02.08.2006

@<TRIPOS>MOLECULE
ASD03240529
  57   63    0    0    0
SMALL
NO_CHARGES


@<TRIPOS>ATOM
   1 C1            -0.0166     1.3754     0.0096 C.ar    
   2 C2             0.0021    -0.0041     0.0020 C.ar    
   3 N3             1.1422    -0.6683    -0.0058 N.ar    
   4 C4             2.3145    -0.0481    -0.0057 C.ar    
   5 C5             2.3702     1.3443    -0.0124 C.ar    
   6 C6             1.1861     2.0698     0.0018 C.ar    
   7 N7             3.4821    -0.8058     0.0221 N.pl3   
   8 C8             4.3591    -0.7193     1.1000 C.ar    
   9 C9             4.9953     0.4891     1.4039 C.ar    
  10 C10            4.7640     1.6834     0.5622 C.2     
  11 N11            3.5939     2.0276    -0.0512 N.pl3   
  12 C12            4.6048    -1.8389     1.8835 C.ar    
  13 C13            5.4645    -1.7536     2.9620 C.ar    
  14 C14            6.0855    -0.5556     3.2707 C.ar    
  15 C15            5.8560     0.5654     2.4987 C.ar    
  16 N16            5.6758     2.5944     0.2850 N.2     
  17 C17            5.1466     3.5399    -0.5055 C.2     
  18 C18            3.8235     3.2052    -0.7377 C.2     
  19 C19            2.8520     3.9564    -1.5554 C.ar    
  20 C20            2.7541     5.3446    -1.4303 C.ar    
  21 C21            2.0294     3.2837    -2.4626 C.ar    
  22 C22            1.1235     3.9924    -3.2236 C.ar    
  23 C23            1.0284     5.3666    -3.0906 C.ar    
  24 C24            1.8435     6.0402    -2.1979 C.ar    
  25 C25            5.8526     4.7307    -1.0364 C.2     
  26 C26            0.0366     6.1340    -3.9265 C.3     
  27 N27           -1.0425     5.2871    -4.4520 N.3     
  28 C28           -0.4637     7.4253    -3.2579 C.3     
  29 C29           -0.3750     8.0843    -4.6445 C.3     
  30 C30            0.6912     7.0294    -4.9916 C.3     
  31 C31            5.6705     5.3197    -2.2473 C.2     
  32 O32            6.5021     6.3685    -2.3383 O.3     
  33 C33            7.2331     6.4938    -1.2204 C.2     
  34 C34            6.8879     5.5209    -0.3603 C.2     
  35 H35           -0.9556     1.9091     0.0170 H       
  36 H36           -0.9306    -0.5486     0.0028 H       
  37 H37            1.2002     3.1497     0.0064 H       
  38 H38            3.6866    -1.4001    -0.7168 H       
  39 H39            4.1235    -2.7771     1.6500 H       
  40 H40            5.6527    -2.6273     3.5683 H       
  41 H41            6.7520    -0.4978     4.1186 H       
  42 H42            6.3422     1.4988     2.7412 H       
  43 H43            3.3896     5.8715    -0.7340 H       
  44 H44            2.1030     2.2113    -2.5679 H       
  45 H45            0.4870     3.4738    -3.9252 H       
  46 H46            1.7638     7.1127    -2.0993 H       
  47 H47           -0.6700     4.4650    -4.9029 H       
  48 H48           -1.6929     5.0361    -3.7226 H       
  49 H49           -1.4810     7.3521    -2.8735 H       
  50 H50            0.2354     7.8402    -2.5318 H       
  51 H51           -1.2883     7.9898    -5.2321 H       
  52 H52            0.0099     9.1037    -4.6197 H       
  53 H53            1.7066     7.3355    -4.7398 H       
  54 H54            0.6051     6.6387    -6.0056 H       
  55 H55            4.9743     4.9980    -3.0077 H       
  56 H56            7.9764     7.2562    -1.0393 H       
  57 H57            7.2946     5.3510     0.6256 H       
@<TRIPOS>BOND
   1    1    2 ar
   2    1    6 ar
   3    1   35 1
   4    2    3 ar
   5    2   36 1
   6    3    4 ar
   7    4    5 ar
   8    4    7 1
   9    5    6 ar
  10    5   11 1
  11    6   37 1
  12    7    8 1
  13    7   38 1
  14    8    9 ar
  15    8   12 ar
  16    9   10 1
  17    9   15 ar
  18   10   11 1
  19   10   16 2
  20   11   18 1
  21   12   13 ar
  22   12   39 1
  23   13   14 ar
  24   13   40 1
  25   14   15 ar
  26   14   41 1
  27   15   42 1
  28   16   17 1
  29   17   18 2
  30   17   25 1
  31   18   19 1
  32   19   20 ar
  33   19   21 ar
  34   20   24 ar
  35   20   43 1
  36   21   22 ar
  37   21   44 1
  38   22   23 ar
  39   22   45 1
  40   23   24 ar
  41   23   26 1
  42   24   46 1
  43   25   31 2
  44   25   34 1
  45   26   27 1
  46   26   28 1
  47   26   30 1
  48   27   47 1
  49   27   48 1
  50   28   29 1
  51   28   49 1
  52   28   50 1
  53   29   30 1
  54   29   51 1
  55   29   52 1
  56   30   53 1
  57   30   54 1
  58   31   32 1
  59   31   55 1
  60   32   33 1
  61   33   34 2
  62   33   56 1
  63   34   57 1

#	End of record

