#	Name: ASD00069188
#	Creating user name:	WinNT
#	Creation time:	15. 06. 2019 18:29

#	Modifying user name:	WinNT
#	Modification time:	15. 06. 2019 18:29

#	Program:	/corina/corina34_cracker 3.40 0067  02.08.2006

@<TRIPOS>MOLECULE
ASD00069188
  71   74    0    0    0
SMALL
NO_CHARGES


@<TRIPOS>ATOM
   1 N1            -0.0430     1.4336    -0.0045 N.3     
   2 C2            -0.0432    -0.0348    -0.0128 C.3     
   3 C3             0.6597    -0.5535     1.2438 C.3     
   4 C4             2.0965    -0.0249     1.2739 C.3     
   5 C5             2.0699     1.5055     1.2329 C.3     
   6 C6             1.3261     1.9645    -0.0233 C.3     
   7 C7             2.7752    -0.4831     2.5390 C.2     
   8 O8             2.1704    -1.1654     3.3387 O.2     
   9 N9             4.0544    -0.1346     2.7816 N.am    
  10 C10            4.7142    -0.5800     4.0114 C.3     
  11 C11            6.1496    -0.0513     4.0403 C.3     
  12 C12            6.8388    -0.5164     5.3247 C.3     
  13 C13            8.2742     0.0124     5.3536 C.3     
  14 N14            8.9358    -0.4343     6.5867 N.3     
  15 C15           10.3192     0.0558     6.6491 C.3     
  16 C16           -0.7931     1.9418    -1.0728 C.ar    
  17 C17           -0.4376     1.6378    -2.3806 C.ar    
  18 C18           -1.1807     2.1415    -3.4336 C.ar    
  19 C19           -2.2776     2.9474    -3.1877 C.ar    
  20 C20           -2.6378     3.2543    -1.8893 C.ar    
  21 C21           -1.9022     2.7493    -0.8265 C.ar    
  22 N22           -2.2700     3.0546     0.4898 N.am    
  23 C23           -2.8029     4.2584     0.7787 C.2     
  24 O24           -2.8697     5.1160    -0.0811 O.2     
  25 C25           -3.3047     4.5356     2.1369 C.2     
  26 N26           -3.2881     3.6953     3.1476 N.2     
  27 C27           -3.8241     4.2918     4.2198 C.2     
  28 C28           -4.1902     5.5590     3.8599 C.2     
  29 N29           -3.8601     5.7121     2.5581 N.pl3   
  30 C30           -3.7519     1.8470     7.0774 C.ar    
  31 C31           -3.5777     2.3731     5.8140 C.ar    
  32 C32           -3.9919     3.6842     5.5625 C.ar    
  33 C33           -4.5682     4.4075     6.6111 C.ar    
  34 C34           -4.7049     3.8045     7.8439 C.ar    
  35 N35           -4.3005     2.5637     8.0397 N.ar    
  36 C36           -3.3155     0.4326     7.3604 C.3     
  37 F37            0.6335     0.8513    -2.6244 F       
  38 H38           -1.0709    -0.3977    -0.0300 H       
  39 H39            0.4832    -0.3931    -0.8974 H       
  40 H40            0.1259    -0.2070     2.1287 H       
  41 H41            0.6731    -1.6433     1.2297 H       
  42 H42            2.6419    -0.4030     0.4093 H       
  43 H43            1.5582     1.8844     2.1176 H       
  44 H44            3.0908     1.8868     1.2110 H       
  45 H45            1.8460     1.5968    -0.9079 H       
  46 H46            1.2929     3.0537    -0.0482 H       
  47 H47            4.5381     0.4111     2.1420 H       
  48 H48            4.1691    -0.1987     4.8749 H       
  49 H49            4.7277    -1.6695     4.0424 H       
  50 H50            6.6948    -0.4326     3.1769 H       
  51 H51            6.1362     1.0382     4.0093 H       
  52 H52            6.2936    -0.1351     6.1881 H       
  53 H53            6.8522    -1.6059     5.3557 H       
  54 H54            8.8193    -0.3690     4.4902 H       
  55 H55            8.2607     1.1018     5.3226 H       
  56 H56            8.4137    -0.1480     7.4013 H       
  57 H57           10.3200     1.1456     6.6271 H       
  58 H58           10.7857    -0.2893     7.5718 H       
  59 H59           10.8786    -0.3252     5.7947 H       
  60 H60           -0.9033     1.9050    -4.4502 H       
  61 H61           -2.8542     3.3383    -4.0130 H       
  62 H62           -3.4948     3.8842    -1.7016 H       
  63 H63           -2.1413     2.3997     1.1937 H       
  64 H64           -4.6521     6.2992     4.4965 H       
  65 H65           -3.9942     6.5088     2.0213 H       
  66 H66           -3.1275     1.7808     5.0311 H       
  67 H67           -4.9010     5.4235     6.4581 H       
  68 H68           -5.1485     4.3554     8.6601 H       
  69 H69           -2.2795     0.4329     7.6992 H       
  70 H70           -3.9511     0.0044     8.1355 H       
  71 H71           -3.4003    -0.1626     6.4512 H       
@<TRIPOS>BOND
   1    1    2 1
   2    1    6 1
   3    1   16 1
   4    2    3 1
   5    2   38 1
   6    2   39 1
   7    3    4 1
   8    3   40 1
   9    3   41 1
  10    4    5 1
  11    4    7 1
  12    4   42 1
  13    5    6 1
  14    5   43 1
  15    5   44 1
  16    6   45 1
  17    6   46 1
  18    7    8 2
  19    7    9 am
  20    9   10 1
  21    9   47 1
  22   10   11 1
  23   10   48 1
  24   10   49 1
  25   11   12 1
  26   11   50 1
  27   11   51 1
  28   12   13 1
  29   12   52 1
  30   12   53 1
  31   13   14 1
  32   13   54 1
  33   13   55 1
  34   14   15 1
  35   14   56 1
  36   15   57 1
  37   15   58 1
  38   15   59 1
  39   16   17 ar
  40   16   21 ar
  41   17   18 ar
  42   17   37 1
  43   18   19 ar
  44   18   60 1
  45   19   20 ar
  46   19   61 1
  47   20   21 ar
  48   20   62 1
  49   21   22 1
  50   22   23 am
  51   22   63 1
  52   23   24 2
  53   23   25 1
  54   25   26 2
  55   25   29 1
  56   26   27 1
  57   27   28 2
  58   27   32 1
  59   28   29 1
  60   28   64 1
  61   29   65 1
  62   30   31 ar
  63   30   35 ar
  64   30   36 1
  65   31   32 ar
  66   31   66 1
  67   32   33 ar
  68   33   34 ar
  69   33   67 1
  70   34   35 ar
  71   34   68 1
  72   36   69 1
  73   36   70 1
  74   36   71 1

#	End of record

