#	Name: ASD01000054
#	Creating user name:	WinNT
#	Creation time:	15. 06. 2019 18:54

#	Modifying user name:	WinNT
#	Modification time:	15. 06. 2019 18:54

#	Program:	/corina/corina34_cracker 3.40 0067  02.08.2006

@<TRIPOS>MOLECULE
ASD01000054
  45   47    0    0    0
SMALL
NO_CHARGES


@<TRIPOS>ATOM
   1 C1             0.3494     1.0471    -1.7774 C.ar    
   2 C2             0.2519    -0.2199    -1.2332 C.ar    
   3 C3             1.3445    -0.7885    -0.6057 C.ar    
   4 C4             2.5347    -0.0903    -0.5227 C.ar    
   5 C5             2.6324     1.1763    -1.0677 C.ar    
   6 C6             1.5394     1.7455    -1.6939 C.ar    
   7 C7             1.2380    -2.1694    -0.0116 C.3     
   8 C8             2.5887    -2.8369    -0.0466 C.ar    
   9 C9             0.7651    -2.0671     1.4156 C.ar    
  10 C10            1.5578    -1.4477     2.3637 C.ar    
  11 C11            1.1241    -1.3540     3.6729 C.ar    
  12 C12           -0.1026    -1.8792     4.0339 C.ar    
  13 C13           -0.8957    -2.4977     3.0856 C.ar    
  14 C14           -0.4639    -2.5877     1.7755 C.ar    
  15 C15            3.0880    -3.4467     1.0890 C.ar    
  16 C16            4.3269    -4.0589     1.0569 C.ar    
  17 C17            5.0665    -4.0617    -0.1110 C.ar    
  18 C18            4.5668    -3.4526    -1.2469 C.ar    
  19 C19            3.3260    -2.8442    -1.2160 C.ar    
  20 S20            0.0533    -3.1512    -0.9723 S.3     
  21 C21            0.2044    -4.8040    -0.2401 C.3     
  22 C22           -0.6545    -5.7927    -1.0310 C.3     
  23 C23           -0.5289    -7.1658    -0.4227 C.2     
  24 O24            0.1753    -7.3360     0.5443 O.2     
  25 O25           -1.1994    -8.1996    -0.9551 O.3     
  26 H26           -0.5029     1.4895    -2.2716 H       
  27 H27           -0.6779    -0.7654    -1.2980 H       
  28 H28            3.3881    -0.5343    -0.0318 H       
  29 H29            3.5620     1.7221    -1.0022 H       
  30 H30            1.6157     2.7351    -2.1197 H       
  31 H31            2.5162    -1.0374     2.0817 H       
  32 H32            1.7437    -0.8707     4.4137 H       
  33 H33           -0.4412    -1.8065     5.0568 H       
  34 H34           -1.8540    -2.9083     3.3677 H       
  35 H35           -1.0835    -3.0709     1.0346 H       
  36 H36            2.5102    -3.4446     2.0015 H       
  37 H37            4.7173    -4.5348     1.9444 H       
  38 H38            6.0348    -4.5394    -0.1359 H       
  39 H39            5.1447    -3.4545    -2.1593 H       
  40 H40            2.9356    -2.3683    -2.1034 H       
  41 H41            1.2466    -5.1216    -0.2720 H       
  42 H42           -0.1351    -4.7751     0.7953 H       
  43 H43           -1.6967    -5.4751    -0.9991 H       
  44 H44           -0.3150    -5.8216    -2.0664 H       
  45 H45           -1.0873    -9.0610    -0.5303 H       
@<TRIPOS>BOND
   1    1    2 ar
   2    1    6 ar
   3    1   26 1
   4    2    3 ar
   5    2   27 1
   6    3    4 ar
   7    3    7 1
   8    4    5 ar
   9    4   28 1
  10    5    6 ar
  11    5   29 1
  12    6   30 1
  13    7    8 1
  14    7    9 1
  15    7   20 1
  16    8   15 ar
  17    8   19 ar
  18    9   10 ar
  19    9   14 ar
  20   10   11 ar
  21   10   31 1
  22   11   12 ar
  23   11   32 1
  24   12   13 ar
  25   12   33 1
  26   13   14 ar
  27   13   34 1
  28   14   35 1
  29   15   16 ar
  30   15   36 1
  31   16   17 ar
  32   16   37 1
  33   17   18 ar
  34   17   38 1
  35   18   19 ar
  36   18   39 1
  37   19   40 1
  38   20   21 1
  39   21   22 1
  40   21   41 1
  41   21   42 1
  42   22   23 1
  43   22   43 1
  44   22   44 1
  45   23   24 2
  46   23   25 1
  47   25   45 1

#	End of record

