#	Name: ASD05380096
#	Creating user name:	WinNT
#	Creation time:	15. 06. 2019 20:59

#	Modifying user name:	WinNT
#	Modification time:	15. 06. 2019 20:59

#	Program:	/corina/corina34_cracker 3.40 0067  02.08.2006

@<TRIPOS>MOLECULE
ASD05380096
  46   50    0    0    0
SMALL
NO_CHARGES


@<TRIPOS>ATOM
   1 C1            -0.2260     1.5755    -0.3892 C.ar    
   2 C2            -0.0889     0.1881    -0.6184 C.ar    
   3 C3             0.7590     2.4567    -0.8293 C.ar    
   4 C4             1.8664     1.9637    -1.4892 C.ar    
   5 C5             2.0032     0.5987    -1.7163 C.ar    
   6 C6             1.0401    -0.2871    -1.2881 C.ar    
   7 N7            -1.0611    -0.6508    -0.1799 N.2     
   8 C8            -2.1109    -0.2096     0.4432 C.2     
   9 N9            -2.3254     1.1084     0.7065 N.am    
  10 C10           -1.4237     2.0425     0.3242 C.2     
  11 C11           -3.4866     1.5008     1.3841 C.ar    
  12 C12           -4.6413     1.7970     0.6718 C.ar    
  13 C13           -3.4874     1.5890     2.7699 C.ar    
  14 C14           -5.7810     2.2752     2.7227 C.ar    
  15 C15           -3.1448    -1.2072     0.8978 C.3     
  16 N16           -3.2468    -2.2876    -0.0864 N.pl3   
  17 C17           -4.4171    -3.0185    -0.1928 C.ar    
  18 N18           -5.4580    -2.7534     0.5901 N.ar    
  19 O19           -1.6024     3.2247     0.5533 O.2     
  20 C20           -4.5347    -4.0543    -1.1349 C.ar    
  21 C21           -5.7477    -4.7611    -1.1960 C.ar    
  22 N22           -6.7319    -4.4276    -0.3677 N.ar    
  23 C23           -6.5785    -3.4456     0.4956 C.ar    
  24 N24           -3.7146    -4.5871    -2.0724 N.2     
  25 C25           -4.3319    -5.5522    -2.6898 C.2     
  26 N26           -5.5897    -5.6986    -2.1852 N.pl3   
  27 C27           -5.7849     2.1833     1.3429 C.ar    
  28 C28           -4.6342     1.9758     3.4352 C.ar    
  29 C29           -2.7324    -1.7881     2.2518 C.3     
  30 F30            2.8247     2.8138    -1.9182 F       
  31 H31            0.6568     3.5178    -0.6559 H       
  32 H32            2.8756     0.2289    -2.2345 H       
  33 H33            1.1574    -1.3452    -1.4699 H       
  34 H34           -4.6449     1.7257    -0.4058 H       
  35 H35           -2.5922     1.3550     3.3269 H       
  36 H36           -6.6764     2.5778     3.2452 H       
  37 H37           -4.1106    -0.7112     0.9942 H       
  38 H38           -2.4940    -2.4906    -0.6635 H       
  39 H39           -7.3998    -3.1972     1.1515 H       
  40 H40           -3.9098    -6.1490    -3.4848 H       
  41 H41           -6.2514    -6.3471    -2.4723 H       
  42 H42           -6.6821     2.4177     0.7893 H       
  43 H43           -4.6355     2.0443     4.5130 H       
  44 H44           -2.5654    -0.9763     2.9598 H       
  45 H45           -3.5239    -2.4382     2.6246 H       
  46 H46           -1.8140    -2.3636     2.1358 H       
@<TRIPOS>BOND
   1    1    2 ar
   2    1    3 ar
   3    1   10 1
   4    2    7 1
   5    2    6 ar
   6    3    4 ar
   7    3   31 1
   8    4    5 ar
   9    4   30 1
  10    5    6 ar
  11    5   32 1
  12    6   33 1
  13    7    8 2
  14    8    9 1
  15    8   15 1
  16    9   10 am
  17    9   11 1
  18   10   19 2
  19   11   12 ar
  20   11   13 ar
  21   12   27 ar
  22   12   34 1
  23   13   28 ar
  24   13   35 1
  25   14   27 ar
  26   14   28 ar
  27   14   36 1
  28   15   16 1
  29   15   29 1
  30   15   37 1
  31   16   17 1
  32   16   38 1
  33   17   18 ar
  34   17   20 ar
  35   18   23 ar
  36   20   21 ar
  37   20   24 1
  38   21   22 ar
  39   21   26 1
  40   22   23 ar
  41   23   39 1
  42   24   25 2
  43   25   26 1
  44   25   40 1
  45   26   41 1
  46   27   42 1
  47   28   43 1
  48   29   44 1
  49   29   45 1
  50   29   46 1

#	End of record

