#	Name: ASD01816652
#	Creating user name:	WinNT
#	Creation time:	15. 06. 2019 19:35

#	Modifying user name:	WinNT
#	Modification time:	15. 06. 2019 19:35

#	Program:	/corina/corina34_cracker 3.40 0067  02.08.2006

@<TRIPOS>MOLECULE
ASD01816652
  48   52    0    0    0
SMALL
NO_CHARGES


@<TRIPOS>ATOM
   1 C1            -0.0167     1.3813     0.0096 C.ar    
   2 C2             0.0021    -0.0041     0.0020 C.ar    
   3 C3             1.1984    -0.6909    -0.0131 C.ar    
   4 C4             2.4015     0.0059    -0.0208 C.ar    
   5 C5             2.3790     1.4106    -0.0130 C.ar    
   6 C6             1.1663     2.0916     0.0022 C.ar    
   7 N7             3.6053    -0.6772    -0.0354 N.pl3   
   8 C8             4.7970    -0.0586    -0.0430 C.2     
   9 C9             4.9000     1.3103    -0.0371 C.2     
  10 C10            3.6670     2.1302    -0.0215 C.2     
  11 C11            5.9971     2.2729    -0.0417 C.2     
  12 N12            5.4245     3.4960    -0.0302 N.am    
  13 N13            4.0323     3.3799    -0.0182 N.2     
  14 O14            7.1914     2.0229    -0.0531 O.2     
  15 C15            6.1259     4.7074    -0.0291 C.ar    
  16 C16            3.5779    -2.1419    -0.0425 C.3     
  17 C17            3.5553    -2.6370    -1.4657 C.ar    
  18 C18            4.7422    -2.8863    -2.1292 C.ar    
  19 C19            4.7226    -3.3408    -3.4341 C.ar    
  20 C20            3.5137    -3.5465    -4.0770 C.ar    
  21 C21            2.3256    -3.2965    -3.4114 C.ar    
  22 C22            2.3475    -2.8471    -2.1047 C.ar    
  23 F23            3.4934    -3.9904    -5.3528 F       
  24 C24            7.0632     4.9697    -1.0197 C.ar    
  25 C25            7.7533     6.1662    -1.0160 C.ar    
  26 C26            7.5118     7.1023    -0.0275 C.ar    
  27 C27            6.5793     6.8439     0.9608 C.ar    
  28 C28            5.8819     5.6522     0.9596 C.ar    
  29 C29            4.8657     5.3717     2.0366 C.3     
  30 O30            4.8053     6.4813     2.9351 O.3     
  31 H31           -0.9602     1.9068     0.0169 H       
  32 H32           -0.9288    -0.5516     0.0083 H       
  33 H33            1.2004    -1.7709    -0.0185 H       
  34 H34            1.1506     3.1715     0.0084 H       
  35 H35            5.6983    -0.6536    -0.0536 H       
  36 H36            4.4657    -2.5244     0.4612 H       
  37 H37            2.6861    -2.4911     0.4779 H       
  38 H38            5.6850    -2.7254    -1.6277 H       
  39 H39            5.6500    -3.5351    -3.9524 H       
  40 H40            1.3820    -3.4566    -3.9119 H       
  41 H41            1.4209    -2.6520    -1.5854 H       
  42 H42            7.2526     4.2388    -1.7920 H       
  43 H43            8.4826     6.3706    -1.7859 H       
  44 H44            8.0527     8.0370    -0.0268 H       
  45 H45            6.3932     7.5770     1.7318 H       
  46 H46            3.8870     5.2188     1.5818 H       
  47 H47            5.1555     4.4755     2.5851 H       
  48 H48            4.1701     6.3698     3.6556 H       
@<TRIPOS>BOND
   1    1    2 ar
   2    1    6 ar
   3    1   31 1
   4    2    3 ar
   5    2   32 1
   6    3    4 ar
   7    3   33 1
   8    4    5 ar
   9    4    7 1
  10    5    6 ar
  11    5   10 1
  12    6   34 1
  13    7    8 1
  14    7   16 1
  15    8    9 2
  16    8   35 1
  17    9   10 1
  18    9   11 1
  19   10   13 2
  20   11   12 am
  21   11   14 2
  22   12   13 1
  23   12   15 1
  24   15   24 ar
  25   15   28 ar
  26   16   17 1
  27   16   36 1
  28   16   37 1
  29   17   18 ar
  30   17   22 ar
  31   18   19 ar
  32   18   38 1
  33   19   20 ar
  34   19   39 1
  35   20   21 ar
  36   20   23 1
  37   21   22 ar
  38   21   40 1
  39   22   41 1
  40   24   25 ar
  41   24   42 1
  42   25   26 ar
  43   25   43 1
  44   26   27 ar
  45   26   44 1
  46   27   28 ar
  47   27   45 1
  48   28   29 1
  49   29   30 1
  50   29   46 1
  51   29   47 1
  52   30   48 1

#	End of record

