#	Name: ASD03570033
#	Creating user name:	WinNT
#	Creation time:	15. 06. 2019 20:43

#	Modifying user name:	WinNT
#	Modification time:	15. 06. 2019 20:43

#	Program:	/corina/corina34_cracker 3.40 0067  02.08.2006

@<TRIPOS>MOLECULE
ASD03570033
  44   44    0    0    0
SMALL
NO_CHARGES


@<TRIPOS>ATOM
   1 C1             0.0703     1.5567    -0.0963 C.ar    
   2 C2             0.0411     0.1746    -0.0456 C.ar    
   3 C3             1.2218    -0.5430    -0.0369 C.ar    
   4 C4             2.4390     0.1248    -0.0796 C.ar    
   5 C5             2.4651     1.5127    -0.1310 C.ar    
   6 C6             1.2810     2.2246    -0.1390 C.ar    
   7 I7            -1.7954    -0.8315     0.0189 I       
   8 N8             3.6343    -0.5977    -0.0705 N.pl3   
   9 N9             4.8612     0.0773    -0.1137 N.pl3   
  10 C10            6.0588    -0.6466    -0.1045 C.2     
  11 C11            6.0321    -1.9812    -0.0546 C.2     
  12 C12            7.3132    -2.7655    -0.1759 C.3     
  13 C13            7.4920    -3.6449     1.0633 C.3     
  14 I14            1.3190     4.3178    -0.2165 I       
  15 C15            7.3502     0.0639    -0.1500 C.2     
  16 O16            7.8571     0.4691     0.8773 O.2     
  17 O17            7.9681     0.2637    -1.3308 O.3     
  18 C18            9.7820     1.1010    -2.7233 C.3     
  19 C19            9.2362     0.9705    -1.3000 C.3     
  20 C20            8.7731    -4.4292     0.9421 C.2     
  21 O21            9.4715    -4.2982    -0.0351 O.2     
  22 O22            9.1383    -5.2734     1.9197 O.3     
  23 C23           10.6318    -6.9018     2.9434 C.3     
  24 C24           10.3844    -5.9956     1.7357 C.3     
  25 H25           -0.8540     2.1152    -0.1072 H       
  26 H26            1.1983    -1.6220     0.0035 H       
  27 H27            3.4099     2.0347    -0.1640 H       
  28 H28            3.6149    -1.5668    -0.0343 H       
  29 H29            4.8805     1.0464    -0.1499 H       
  30 H30            5.0925    -2.4981     0.0725 H       
  31 H31            7.2714    -3.3946    -1.0650 H       
  32 H32            8.1544    -2.0770    -0.2572 H       
  33 H33            7.5339    -3.0158     1.9524 H       
  34 H34            6.6508    -4.3334     1.1446 H       
  35 H35            9.9297     0.1082    -3.1483 H       
  36 H36            9.0714     1.6563    -3.3355 H       
  37 H37           10.7339     1.6316    -2.7001 H       
  38 H38            9.0885     1.9633    -0.8750 H       
  39 H39            9.9468     0.4152    -0.6878 H       
  40 H40            9.8107    -7.6123     3.0388 H       
  41 H41           11.5672    -7.4440     2.8052 H       
  42 H42           10.6937    -6.2947     3.8465 H       
  43 H43           10.3225    -6.6028     0.8325 H       
  44 H44           11.2055    -5.2852     1.6403 H       
@<TRIPOS>BOND
   1    1    2 ar
   2    1    6 ar
   3    1   25 1
   4    2    3 ar
   5    2    7 1
   6    3    4 ar
   7    3   26 1
   8    4    5 ar
   9    4    8 1
  10    5    6 ar
  11    5   27 1
  12    6   14 1
  13    8    9 1
  14    8   28 1
  15    9   10 1
  16    9   29 1
  17   10   11 2
  18   10   15 1
  19   11   12 1
  20   11   30 1
  21   12   13 1
  22   12   31 1
  23   12   32 1
  24   13   20 1
  25   13   33 1
  26   13   34 1
  27   15   16 2
  28   15   17 1
  29   17   19 1
  30   18   19 1
  31   18   35 1
  32   18   36 1
  33   18   37 1
  34   19   38 1
  35   19   39 1
  36   20   21 2
  37   20   22 1
  38   22   24 1
  39   23   24 1
  40   23   40 1
  41   23   41 1
  42   23   42 1
  43   24   43 1
  44   24   44 1

#	End of record

