#	Name: ASD04882384
#	Creating user name:	WinNT
#	Creation time:	15. 06. 2019 20:54

#	Modifying user name:	WinNT
#	Modification time:	15. 06. 2019 20:54

#	Program:	/corina/corina34_cracker 3.40 0067  02.08.2006

@<TRIPOS>MOLECULE
ASD04882384
  74   78    0    0    0
SMALL
NO_CHARGES


@<TRIPOS>ATOM
   1 N1            -0.0169     1.3967     0.0097 N.am    
   2 C2             0.1108     0.0023    -0.0344 C.ar    
   3 C3            -1.0259    -0.8070     0.0451 C.ar    
   4 C4            -0.9006    -2.1909     0.0010 C.ar    
   5 C5             0.3433    -2.7693    -0.1207 C.ar    
   6 C6             1.4842    -1.9658    -0.2007 C.ar    
   7 C7             1.3605    -0.5741    -0.1623 C.ar    
   8 N8            -2.2855    -0.2265     0.1692 N.3     
   9 C9            -3.1515    -0.6015    -0.9574 C.3     
  10 C10           -2.9077    -0.5872     1.4507 C.3     
  11 C11           -4.2520     0.1325     1.5825 C.3     
  12 N12           -5.1180    -0.2424     0.4560 N.3     
  13 C13           -4.4958     0.1182    -0.8256 C.3     
  14 C14            2.8165    -2.5856    -0.3312 C.2     
  15 O15            3.8085    -1.8858    -0.4007 O.2     
  16 C16            0.9203     2.1777    -0.5630 C.2     
  17 C17            0.7430     3.6329    -0.5940 C.2     
  18 O18            1.9139     1.6751    -1.0546 O.2     
  19 C19           -6.3814     0.3399     0.5804 C.ar    
  20 C20           -7.5127    -0.4620     0.6596 C.ar    
  21 C21           -6.5089     1.7224     0.6309 C.ar    
  22 C22           -7.7595     2.2948     0.7539 C.ar    
  23 C23           -8.8844     1.4935     0.8273 C.ar    
  24 C24           -8.7606     0.1171     0.7826 C.ar    
  25 O25           -0.3054     4.3148    -0.0880 O.3     
  26 C26            1.6130     4.5360    -1.1348 C.2     
  27 C27            1.0476     5.8062    -0.9423 C.2     
  28 C28           -0.1262     5.6255    -0.2976 C.2     
  29 N29            2.9342    -3.9276    -0.3732 N.am    
  30 C30           -7.3787    -1.9623     0.6110 C.3     
  31 C31            4.2573    -4.5431    -0.5027 C.3     
  32 C32            4.1113    -6.0660    -0.5262 C.3     
  33 C33            5.4930    -6.7088    -0.6614 C.3     
  34 N34            5.3532    -8.1670    -0.6839 N.am    
  35 C35            5.1841    -8.9185    -1.7837 C.2     
  36 N36            5.0887   -10.2222    -1.4765 N.am    
  37 C37            5.1949   -10.3643    -0.1376 C.2     
  38 C38            5.3791    -8.9754     0.3978 C.2     
  39 C39            4.8998   -11.3123    -2.4368 C.3     
  40 O40            5.1250    -8.4753    -2.9133 O.2     
  41 O41            5.5156    -8.6470     1.5574 O.2     
  42 O42            5.1539   -11.3970     0.4973 O.2     
  43 H43           -0.7820     1.8000     0.4490 H       
  44 H44           -1.7807    -2.8138     0.0626 H       
  45 H45            0.4374    -3.8447    -0.1540 H       
  46 H46            2.2403     0.0493    -0.2240 H       
  47 H47           -2.6748    -0.3129    -1.8942 H       
  48 H48           -3.3136    -1.6793    -0.9484 H       
  49 H49           -3.0671    -1.6648     1.4871 H       
  50 H50           -2.2533    -0.2882     2.2696 H       
  51 H51           -4.7287    -0.1560     2.5193 H       
  52 H52           -4.0899     1.2104     1.5735 H       
  53 H53           -4.3364     1.1959    -0.8619 H       
  54 H54           -5.1501    -0.1807    -1.6444 H       
  55 H55           -5.6309     2.3487     0.5744 H       
  56 H56           -7.8593     3.3695     0.7933 H       
  57 H57           -9.8612     1.9437     0.9242 H       
  58 H58           -9.6410    -0.5058     0.8400 H       
  59 H59            2.5540     4.3156    -1.6169 H       
  60 H60            1.4721     6.7506    -1.2492 H       
  61 H61           -0.8078     6.4089    -0.0007 H       
  62 H62            2.1429    -4.4858    -0.3178 H       
  63 H63           -7.2569    -2.3492     1.6227 H       
  64 H64           -8.2743    -2.3927     0.1628 H       
  65 H65           -6.5081    -2.2301     0.0123 H       
  66 H66            4.7246    -4.2087    -1.4290 H       
  67 H67            4.8785    -4.2507     0.3438 H       
  68 H68            3.6440    -6.4005     0.4000 H       
  69 H69            3.4900    -6.3584    -1.3728 H       
  70 H70            5.9603    -6.3744    -1.5877 H       
  71 H71            6.1143    -6.4164     0.1851 H       
  72 H72            5.8720   -11.6788    -2.7663 H       
  73 H73            4.3477   -12.1233    -1.9618 H       
  74 H74            4.3391   -10.9460    -3.2967 H       
@<TRIPOS>BOND
   1    1    2 1
   2    1   16 am
   3    1   43 1
   4    2    3 ar
   5    2    7 ar
   6    3    4 ar
   7    3    8 1
   8    4    5 ar
   9    4   44 1
  10    5    6 ar
  11    5   45 1
  12    6    7 ar
  13    6   14 1
  14    7   46 1
  15    8    9 1
  16    8   10 1
  17    9   13 1
  18    9   47 1
  19    9   48 1
  20   10   11 1
  21   10   49 1
  22   10   50 1
  23   11   12 1
  24   11   51 1
  25   11   52 1
  26   12   13 1
  27   12   19 1
  28   13   53 1
  29   13   54 1
  30   14   15 2
  31   14   29 am
  32   16   18 2
  33   16   17 1
  34   17   25 1
  35   17   26 2
  36   19   20 ar
  37   19   21 ar
  38   20   30 1
  39   20   24 ar
  40   21   22 ar
  41   21   55 1
  42   22   23 ar
  43   22   56 1
  44   23   24 ar
  45   23   57 1
  46   24   58 1
  47   25   28 1
  48   26   27 1
  49   26   59 1
  50   27   28 2
  51   27   60 1
  52   28   61 1
  53   29   31 1
  54   29   62 1
  55   30   63 1
  56   30   64 1
  57   30   65 1
  58   31   32 1
  59   31   66 1
  60   31   67 1
  61   32   33 1
  62   32   68 1
  63   32   69 1
  64   33   34 1
  65   33   70 1
  66   33   71 1
  67   34   35 am
  68   34   38 am
  69   35   36 am
  70   35   40 2
  71   36   37 am
  72   36   39 1
  73   37   38 1
  74   37   42 2
  75   38   41 2
  76   39   72 1
  77   39   73 1
  78   39   74 1

#	End of record

