#	Name: ASD05633005
#	Creating user name:	WinNT
#	Creation time:	15. 06. 2019 21:01

#	Modifying user name:	WinNT
#	Modification time:	15. 06. 2019 21:01

#	Program:	/corina/corina34_cracker 3.40 0067  02.08.2006

@<TRIPOS>MOLECULE
ASD05633005
  62   64    0    0    0
SMALL
NO_CHARGES


@<TRIPOS>ATOM
   1 C1            -0.0167     1.3791     0.0096 C.ar    
   2 C2             0.0021    -0.0041     0.0020 C.ar    
   3 C3            -1.1820    -0.7129     0.0091 C.ar    
   4 C4            -2.3985    -0.0324     0.0243 C.ar    
   5 C5            -2.4112     1.3616     0.0324 C.ar    
   6 C6            -1.2208     2.0598     0.0305 C.ar    
   7 C7            -3.6741    -0.7883     0.0315 C.ar    
   8 C8            -4.8897    -0.1041     0.0468 C.ar    
   9 C9            -6.0746    -0.8049     0.0534 C.ar    
  10 C10           -6.0594    -2.2018     0.0444 C.ar    
  11 C11           -4.8414    -2.8860     0.0286 C.ar    
  12 C12           -3.6577    -2.1832     0.0171 C.ar    
  13 S13            1.4991     2.2774    -0.0000 S.o2    
  14 O14            1.1758     3.5170     0.6150 O.2     
  15 O15            2.4369     1.3887     0.5915 O.2     
  16 C16            1.8717     2.5176    -1.7590 C.3     
  17 C17           -7.3301    -2.9549     0.0520 C.2     
  18 N18           -7.3149    -4.3026     0.0432 N.am    
  19 C19           -8.5752    -5.0495     0.0508 C.3     
  20 C20           -8.2786    -6.5504     0.0383 C.3     
  21 N21           -9.5389    -7.2973     0.0459 N.pl3   
  22 C22          -10.1515    -7.6456    -1.1601 C.ar    
  23 O23           -8.3897    -2.3591     0.0661 O.2     
  24 C24          -10.1567    -7.6788     1.3183 C.3     
  25 C25          -11.1071    -6.5707     1.7763 C.3     
  26 C26          -11.3464    -8.3537    -1.1547 C.ar    
  27 C27          -11.9497    -8.6961    -2.3491 C.ar    
  28 C28          -11.3653    -8.3352    -3.5491 C.ar    
  29 C29          -10.1755    -7.6301    -3.5580 C.ar    
  30 C30           -9.5700    -7.2796    -2.3676 C.ar    
  31 C31          -13.2462    -9.4644    -2.3443 C.3     
  32 C32            3.1619     3.2837    -1.8991 C.2     
  33 O33            3.7679     3.6318    -0.9135 O.2     
  34 O34            3.6379     3.5792    -3.1189 O.3     
  35 H35            0.9452    -0.5302    -0.0098 H       
  36 H36           -1.1661    -1.7928     0.0024 H       
  37 H37           -3.3507     1.8940     0.0439 H       
  38 H38           -1.2294     3.1397     0.0371 H       
  39 H39           -4.9012     0.9759     0.0537 H       
  40 H40           -7.0156    -0.2750     0.0659 H       
  41 H41           -4.8285    -3.9660     0.0220 H       
  42 H42           -2.7161    -2.7119     0.0049 H       
  43 H43            1.9708     1.5471    -2.2453 H       
  44 H44            1.0634     3.0784    -2.2284 H       
  45 H45           -6.4695    -4.7780     0.0320 H       
  46 H46           -9.1410    -4.7983     0.9479 H       
  47 H47           -9.1584    -4.7870    -0.8319 H       
  48 H48           -7.7128    -6.8015    -0.8588 H       
  49 H49           -7.6955    -6.8128     0.9210 H       
  50 H50          -10.7154    -8.6055     1.1875 H       
  51 H51           -9.3806    -7.8253     2.0695 H       
  52 H52          -11.5667    -6.8545     2.7230 H       
  53 H53          -10.5484    -5.6439     1.9071 H       
  54 H54          -11.8832    -6.4241     1.0251 H       
  55 H55          -11.8030    -8.6365    -0.2178 H       
  56 H56          -11.8388    -8.6049    -4.4816 H       
  57 H57           -9.7215    -7.3501    -4.4971 H       
  58 H58           -8.6411    -6.7287    -2.3752 H       
  59 H59          -14.0826    -8.7656    -2.3320 H       
  60 H60          -13.3042   -10.0848    -3.2387 H       
  61 H61          -13.2895   -10.0985    -1.4588 H       
  62 H62            4.4690     4.0720    -3.1583 H       
@<TRIPOS>BOND
   1    1    2 ar
   2    1   13 1
   3    1    6 ar
   4    2    3 ar
   5    2   35 1
   6    3    4 ar
   7    3   36 1
   8    4    5 ar
   9    4    7 1
  10    5    6 ar
  11    5   37 1
  12    6   38 1
  13    7    8 ar
  14    7   12 ar
  15    8    9 ar
  16    8   39 1
  17    9   10 ar
  18    9   40 1
  19   10   11 ar
  20   10   17 1
  21   11   12 ar
  22   11   41 1
  23   12   42 1
  24   13   14 2
  25   13   15 2
  26   13   16 1
  27   16   32 1
  28   16   43 1
  29   16   44 1
  30   17   18 am
  31   17   23 2
  32   18   19 1
  33   18   45 1
  34   19   20 1
  35   19   46 1
  36   19   47 1
  37   20   21 1
  38   20   48 1
  39   20   49 1
  40   21   22 1
  41   21   24 1
  42   22   26 ar
  43   22   30 ar
  44   24   25 1
  45   24   50 1
  46   24   51 1
  47   25   52 1
  48   25   53 1
  49   25   54 1
  50   26   27 ar
  51   26   55 1
  52   27   28 ar
  53   27   31 1
  54   28   29 ar
  55   28   56 1
  56   29   30 ar
  57   29   57 1
  58   30   58 1
  59   31   59 1
  60   31   60 1
  61   31   61 1
  62   32   33 2
  63   32   34 1
  64   34   62 1

#	End of record

