#	Name: ASD04882268
#	Creating user name:	WinNT
#	Creation time:	15. 06. 2019 20:54

#	Modifying user name:	WinNT
#	Modification time:	15. 06. 2019 20:54

#	Program:	/corina/corina34_cracker 3.40 0067  02.08.2006

@<TRIPOS>MOLECULE
ASD04882268
  77   81    0    0    0
SMALL
NO_CHARGES


@<TRIPOS>ATOM
   1 N1            -0.1365     1.5555    -0.0363 N.am    
   2 C2            -0.0766     0.1558    -0.0459 C.ar    
   3 C3            -1.2530    -0.5951     0.0292 C.ar    
   4 C4            -1.1951    -1.9841     0.0197 C.ar    
   5 C5             0.0209    -2.6251    -0.0640 C.ar    
   6 C6             1.2012    -1.8803    -0.1399 C.ar    
   7 C7             1.1454    -0.4837    -0.1354 C.ar    
   8 N8            -2.4848     0.0489     0.1141 N.3     
   9 C9            -2.6119     0.7771     1.3842 C.3     
  10 C10           -3.5902    -0.9043    -0.0562 C.3     
  11 C11           -4.9204    -0.1475    -0.0360 C.3     
  12 N12           -5.0476     0.5807     1.2341 N.3     
  13 C13           -3.9421     1.5338     1.4043 C.3     
  14 C14            2.5037    -2.5672    -0.2292 C.2     
  15 O15            3.5300    -1.9184    -0.2951 O.2     
  16 C16           -6.2831     1.2266     1.3192 C.ar    
  17 C17           -7.1626     0.9142     2.3483 C.ar    
  18 C18            0.8452     2.2679     0.5513 C.2     
  19 C19            0.8482     3.7321     0.4538 C.2     
  20 O20            1.7291     1.6970     1.1627 O.2     
  21 N21           -0.0785     4.5207    -0.2002 N.pl3   
  22 C22            1.7652     4.5878     0.9969 C.2     
  23 N23            1.4031     5.8301     0.6760 N.2     
  24 C24            0.3062     5.7992    -0.0368 C.2     
  25 N25            2.5561    -3.9139    -0.2377 N.am    
  26 C26            3.8496    -4.5961    -0.3264 C.3     
  27 C27            3.6293    -6.1101    -0.3173 C.3     
  28 C28           -8.3830     1.5551     2.4297 C.ar    
  29 C29           -8.7304     2.5067     1.4881 C.ar    
  30 C30           -7.8574     2.8200     0.4627 C.ar    
  31 C31           -6.6327     2.1868     0.3786 C.ar    
  32 C32           -6.7854    -0.1232     3.3742 C.3     
  33 C33            4.9801    -6.8226    -0.4099 C.3     
  34 C34           -0.4114     7.0044    -0.5879 C.3     
  35 F35            0.4314     8.1191    -0.5230 F       
  36 F36           -0.7681     6.7663    -1.9195 F       
  37 F37           -1.5639     7.2466     0.1674 F       
  38 N38            4.7693    -8.2723    -0.4013 N.am    
  39 C39            4.5868    -9.0188    -1.5041 C.2     
  40 C40            4.7363    -9.0971     0.8122 C.3     
  41 C41            4.0706   -10.4255     0.3897 C.3     
  42 C42            4.3903   -10.4697    -1.1237 C.3     
  43 O43            4.5800    -8.5912    -2.6391 O.2     
  44 H44           -0.8824     2.0119    -0.4560 H       
  45 H45           -2.1058    -2.5617     0.0786 H       
  46 H46            0.0626    -3.7043    -0.0708 H       
  47 H47            2.0557     0.0945    -0.1942 H       
  48 H48           -2.5832     0.0700     2.2132 H       
  49 H49           -1.7891     1.4854     1.4812 H       
  50 H50           -3.4807    -1.4218    -1.0092 H       
  51 H51           -3.5726    -1.6305     0.7565 H       
  52 H52           -4.9491     0.5596    -0.8651 H       
  53 H53           -5.7432    -0.8558    -0.1331 H       
  54 H54           -4.0517     2.0514     2.3573 H       
  55 H55           -3.9597     2.2600     0.5916 H       
  56 H56           -0.8590     4.2109    -0.6857 H       
  57 H57            2.6288     4.3076     1.5819 H       
  58 H58            1.7374    -4.4315    -0.1851 H       
  59 H59            4.3501    -4.3072    -1.2506 H       
  60 H60            4.4683    -4.3139     0.5255 H       
  61 H61            3.1288    -6.3990     0.6069 H       
  62 H62            3.0105    -6.3924    -1.1691 H       
  63 H63           -9.0672     1.3127     3.2295 H       
  64 H64           -9.6858     3.0059     1.5537 H       
  65 H65           -8.1318     3.5635    -0.2710 H       
  66 H66           -5.9511     2.4323    -0.4225 H       
  67 H67           -6.2708     0.3584     4.2057 H       
  68 H68           -7.6859    -0.6161     3.7406 H       
  69 H69           -6.1266    -0.8623     2.9183 H       
  70 H70            5.4806    -6.5337    -1.3341 H       
  71 H71            5.5989    -6.5403     0.4419 H       
  72 H72            5.7490    -9.2801     1.1715 H       
  73 H73            4.1439    -8.6074     1.5851 H       
  74 H74            4.5239   -11.2709     0.9074 H       
  75 H75            2.9949   -10.3952     0.5629 H       
  76 H76            3.5557   -10.8997    -1.6775 H       
  77 H77            5.3026   -11.0381    -1.3044 H       
@<TRIPOS>BOND
   1    1    2 1
   2    1   18 am
   3    1   44 1
   4    2    3 ar
   5    2    7 ar
   6    3    4 ar
   7    3    8 1
   8    4    5 ar
   9    4   45 1
  10    5    6 ar
  11    5   46 1
  12    6    7 ar
  13    6   14 1
  14    7   47 1
  15    8    9 1
  16    8   10 1
  17    9   13 1
  18    9   48 1
  19    9   49 1
  20   10   11 1
  21   10   50 1
  22   10   51 1
  23   11   12 1
  24   11   52 1
  25   11   53 1
  26   12   13 1
  27   12   16 1
  28   13   54 1
  29   13   55 1
  30   14   15 2
  31   14   25 am
  32   16   17 ar
  33   16   31 ar
  34   17   28 ar
  35   17   32 1
  36   18   20 2
  37   18   19 1
  38   19   21 1
  39   19   22 2
  40   21   24 1
  41   21   56 1
  42   22   23 1
  43   22   57 1
  44   23   24 2
  45   24   34 1
  46   25   26 1
  47   25   58 1
  48   26   27 1
  49   26   59 1
  50   26   60 1
  51   27   33 1
  52   27   61 1
  53   27   62 1
  54   28   29 ar
  55   28   63 1
  56   29   30 ar
  57   29   64 1
  58   30   31 ar
  59   30   65 1
  60   31   66 1
  61   32   67 1
  62   32   68 1
  63   32   69 1
  64   33   38 1
  65   33   70 1
  66   33   71 1
  67   34   35 1
  68   34   36 1
  69   34   37 1
  70   38   39 am
  71   38   40 1
  72   39   43 2
  73   39   42 1
  74   40   41 1
  75   40   72 1
  76   40   73 1
  77   41   42 1
  78   41   74 1
  79   41   75 1
  80   42   76 1
  81   42   77 1

#	End of record

