#	Name: ASD08070023
#	Creating user name:	WinNT
#	Creation time:	15. 06. 2019 21:14

#	Modifying user name:	WinNT
#	Modification time:	15. 06. 2019 21:14

#	Program:	/corina/corina34_cracker 3.40 0067  02.08.2006

@<TRIPOS>MOLECULE
ASD08070023
  46   47    0    0    0
SMALL
NO_CHARGES


@<TRIPOS>ATOM
   1 C1             0.2206     0.7489    -0.4991 C.ar    
   2 C2             0.3948    -0.6478    -0.4859 C.ar    
   3 C3            -0.7140    -1.4925    -0.5739 C.ar    
   4 C4            -1.9673    -0.9569    -0.6728 C.ar    
   5 C5            -2.1449     0.4196    -0.6863 C.ar    
   6 C6            -1.0641     1.2703    -0.5961 C.ar    
   7 O7             1.4404     1.3124    -0.4017 O.3     
   8 C8             2.4013     0.3680    -0.3256 C.2     
   9 C9             1.8364    -0.8661    -0.3712 C.2     
  10 C10           -3.1647    -1.8669    -0.7683 C.3     
  11 C11            3.8421     0.6348    -0.2108 C.2     
  12 O12            4.6291    -0.2908    -0.1490 O.2     
  13 N13            4.2914     1.9050    -0.1739 N.am    
  14 C14            5.7275     2.1710    -0.0594 C.3     
  15 C15            6.0391     3.5497    -0.6449 C.3     
  16 C16            6.1362     2.1387     1.4146 C.3     
  17 C17            5.9410     0.7253     1.9671 C.3     
  18 C18            6.3497     0.6930     3.4412 C.3     
  19 C19            5.7303     3.5490    -2.1435 C.3     
  20 C20            5.9031     4.9635    -2.7004 C.3     
  21 C21            6.6894     2.5975    -2.8614 C.3     
  22 H22           -0.5814    -2.5643    -0.5642 H       
  23 H23           -3.1413     0.8286    -0.7649 H       
  24 H24           -1.2147     2.3397    -0.6077 H       
  25 H25            2.3480    -1.8164    -0.3303 H       
  26 H26           -3.5345    -2.0871     0.2331 H       
  27 H27           -3.9486    -1.3766    -1.3455 H       
  28 H28           -2.8770    -2.7954    -1.2617 H       
  29 H29            3.6638     2.6430    -0.2232 H       
  30 H30            6.2828     1.4096    -0.6072 H       
  31 H31            5.4267     4.3023    -0.1481 H       
  32 H32            7.0934     3.7799    -0.4913 H       
  33 H33            7.1842     2.4235     1.5074 H       
  34 H34            5.5184     2.8377     1.9784 H       
  35 H35            4.8930     0.4405     1.8744 H       
  36 H36            6.5588     0.0263     1.4034 H       
  37 H37            7.3977     0.9779     3.5340 H       
  38 H38            5.7319     1.3920     4.0049 H       
  39 H39            6.2107    -0.3139     3.8348 H       
  40 H40            4.7038     3.2188    -2.3028 H       
  41 H41            5.7696     4.9469    -3.7821 H       
  42 H42            5.1602     5.6236    -2.2527 H       
  43 H43            6.9027     5.3277    -2.4633 H       
  44 H44            6.5663     1.5898    -2.4646 H       
  45 H45            6.4694     2.5970    -3.9290 H       
  46 H46            7.7159     2.9278    -2.7021 H       
@<TRIPOS>BOND
   1    1    2 ar
   2    1    7 1
   3    1    6 ar
   4    2    3 ar
   5    2    9 1
   6    3    4 ar
   7    3   22 1
   8    4    5 ar
   9    4   10 1
  10    5    6 ar
  11    5   23 1
  12    6   24 1
  13    7    8 1
  14    8    9 2
  15    8   11 1
  16    9   25 1
  17   10   26 1
  18   10   27 1
  19   10   28 1
  20   11   12 2
  21   11   13 am
  22   13   14 1
  23   13   29 1
  24   14   15 1
  25   14   16 1
  26   14   30 1
  27   15   19 1
  28   15   31 1
  29   15   32 1
  30   16   17 1
  31   16   33 1
  32   16   34 1
  33   17   18 1
  34   17   35 1
  35   17   36 1
  36   18   37 1
  37   18   38 1
  38   18   39 1
  39   19   20 1
  40   19   21 1
  41   19   40 1
  42   20   41 1
  43   20   42 1
  44   20   43 1
  45   21   44 1
  46   21   45 1
  47   21   46 1

#	End of record

