#	Name: ASD02039473
#	Creating user name:	WinNT
#	Creation time:	15. 06. 2019 20:18

#	Modifying user name:	WinNT
#	Modification time:	15. 06. 2019 20:18

#	Program:	/corina/corina34_cracker 3.40 0067  02.08.2006

@<TRIPOS>MOLECULE
ASD02039473
  47   50    0    0    0
SMALL
NO_CHARGES


@<TRIPOS>ATOM
   1 C1             0.0159     1.0146    -0.3115 C.2     
   2 C2             0.2273    -0.3004    -0.4305 C.2     
   3 C3             1.1414     1.9875    -0.0708 C.3     
   4 N4             1.5890     2.5427    -1.3505 N.am    
   5 C5             0.9426     3.7387    -1.8963 C.3     
   6 C6             2.5956     1.9531    -2.0256 C.2     
   7 C7             3.3053     0.8050    -1.4354 C.2     
   8 C8             4.4130     0.1931    -1.9449 C.2     
   9 N9             2.9797     0.1669    -0.2822 N.2     
  10 C10            3.8312    -0.7966    -0.0793 C.2     
  11 N11            4.7352    -0.8087    -1.0933 N.pl3   
  12 O12            2.9179     2.3690    -3.1222 O.2     
  13 C13            5.8570    -1.7396    -1.2394 C.3     
  14 S14           -1.3269    -1.0859    -0.7024 S.3     
  15 C15           -2.1270     0.4818    -0.6261 C.2     
  16 N16           -1.2325     1.4062    -0.4230 N.2     
  17 C17           -3.5800     0.7118    -0.7753 C.ar    
  18 C18           -4.1057     2.0017    -0.6970 C.ar    
  19 N19           -5.3998     2.2068    -0.8303 N.ar    
  20 C20           -6.2442     1.2155    -1.0407 C.ar    
  21 C21           -5.8020    -0.0923    -1.1305 C.ar    
  22 C22           -4.4505    -0.3604    -1.0032 C.ar    
  23 C23           -7.7146     1.5123    -1.1852 C.3     
  24 F24           -7.9142     2.8970    -1.1738 F       
  25 F25           -8.1804     0.9840    -2.3939 F       
  26 F26           -8.4142     0.9315    -0.1220 F       
  27 C27            1.9296     4.8603    -2.2610 C.3     
  28 C28            1.0672     5.1056    -3.5103 C.3     
  29 C29            0.6257     3.6368    -3.3977 C.3     
  30 H30            1.1852    -0.7957    -0.3707 H       
  31 H31            0.7923     2.7947     0.5732 H       
  32 H32            1.9713     1.4710     0.4114 H       
  33 H33            0.1004     4.0774    -1.2929 H       
  34 H34            4.9331     0.4570    -2.8539 H       
  35 H35            3.8224    -1.4748     0.7611 H       
  36 H36            5.5328    -2.6134    -1.8045 H       
  37 H37            6.6719    -1.2462    -1.7691 H       
  38 H38            6.2010    -2.0517    -0.2533 H       
  39 H39           -3.4457     2.8392    -0.5254 H       
  40 H40           -6.5037    -0.8950    -1.3027 H       
  41 H41           -4.0779    -1.3719    -1.0694 H       
  42 H42            1.9247     5.6922    -1.5567 H       
  43 H43            2.9338     4.5017    -2.4871 H       
  44 H44            0.2582     5.8182    -3.3494 H       
  45 H45            1.6486     5.3193    -4.4072 H       
  46 H46            1.2735     2.9439    -3.9346 H       
  47 H47           -0.4317     3.4811    -3.6111 H       
@<TRIPOS>BOND
   1    1    2 2
   2    1    3 1
   3    1   16 1
   4    2   14 1
   5    2   30 1
   6    3    4 1
   7    3   31 1
   8    3   32 1
   9    4    5 1
  10    4    6 am
  11    5   27 1
  12    5   29 1
  13    5   33 1
  14    6    7 1
  15    6   12 2
  16    7    8 2
  17    7    9 1
  18    8   11 1
  19    8   34 1
  20    9   10 2
  21   10   11 1
  22   10   35 1
  23   11   13 1
  24   13   36 1
  25   13   37 1
  26   13   38 1
  27   14   15 1
  28   15   16 2
  29   15   17 1
  30   17   18 ar
  31   17   22 ar
  32   18   19 ar
  33   18   39 1
  34   19   20 ar
  35   20   21 ar
  36   20   23 1
  37   21   22 ar
  38   21   40 1
  39   22   41 1
  40   23   24 1
  41   23   25 1
  42   23   26 1
  43   27   28 1
  44   27   42 1
  45   27   43 1
  46   28   29 1
  47   28   44 1
  48   28   45 1
  49   29   46 1
  50   29   47 1

#	End of record

