#	Name: ASD01310001
#	Creating user name:	WinNT
#	Creation time:	15. 06. 2019 19:15

#	Modifying user name:	WinNT
#	Modification time:	15. 06. 2019 19:15

#	Program:	/corina/corina34_cracker 3.40 0067  02.08.2006

@<TRIPOS>MOLECULE
ASD01310001
   5    4    0    0    0
SMALL
NO_CHARGES


@<TRIPOS>ATOM
   1 C1            -0.0224     1.7987     0.0119 C.3     
   2 Cl2            0.0021    -0.0041     0.0020 Cl      
   3 Cl3            1.6691     2.4228    -0.0009 Cl      
   4 Cl4           -0.8944     2.3960    -1.4488 Cl      
   5 H5            -0.5326     2.1503     0.9087 H       
@<TRIPOS>BOND
   1    1    2 1
   2    1    3 1
   3    1    4 1
   4    1    5 1

#	End of record

