#	Name: ASD00069216
#	Creating user name:	WinNT
#	Creation time:	15. 06. 2019 18:29

#	Modifying user name:	WinNT
#	Modification time:	15. 06. 2019 18:29

#	Program:	/corina/corina34_cracker 3.40 0067  02.08.2006

@<TRIPOS>MOLECULE
ASD00069216
  91   96    0    0    0
SMALL
NO_CHARGES


@<TRIPOS>ATOM
   1 N1            -1.0393     0.4773     0.1952 N.3     
   2 C2            -1.1378    -0.9675     0.4391 C.3     
   3 C3            -0.7194    -1.7285    -0.8210 C.3     
   4 C4             0.7188    -1.3504    -1.1858 C.3     
   5 C5             0.8044     0.1650    -1.3871 C.3     
   6 C6             0.3419     0.8712    -0.1106 C.3     
   7 C7            -0.8000    -3.2111    -0.5633 C.2     
   8 O8            -1.1569    -3.6196     0.5214 O.2     
   9 N9            -0.4754    -4.0832    -1.5384 N.am    
  10 C10            0.4067     2.3862    -0.3140 C.3     
  11 C11           -0.5537    -5.5245    -1.2879 C.3     
  12 C12           -0.7560    -6.2622    -2.6130 C.3     
  13 C13           -0.8378    -7.7674    -2.3514 C.3     
  14 C14            0.4607    -8.2425    -1.6962 C.3     
  15 C15            0.6629    -7.5048    -0.3711 C.3     
  16 C16            0.7447    -5.9996    -0.6327 C.3     
  17 C17           -2.9875     2.7800     2.1175 C.ar    
  18 N18           -2.5074     2.0873     1.0952 N.ar    
  19 C19           -1.5346     1.1974     1.2708 C.ar    
  20 C20           -1.0203     0.9983     2.5508 C.ar    
  21 C21           -1.5501     1.7450     3.6009 C.ar    
  22 N22           -2.5250     2.6191     3.3470 N.ar    
  23 N23           -3.9959     3.7009     1.8926 N.pl3   
  24 C24           -4.5410     4.4775     3.0089 C.3     
  25 C25            0.1201     0.8480     6.6564 C.2     
  26 N26           -0.0665     0.7299     5.3615 N.2     
  27 C27           -1.0375     1.5705     4.9809 C.2     
  28 C28           -1.4746     2.2443     6.1001 C.2     
  29 N29           -0.7467     1.7874     7.1424 N.pl3   
  30 C30            1.0989     0.0880     7.4556 C.2     
  31 N31            1.8974    -0.8189     6.8586 N.am    
  32 O32            1.1856     0.2794     8.6535 O.2     
  33 C33            2.9045    -1.4567     7.5936 C.ar    
  34 C34            3.4690    -2.6417     7.1236 C.ar    
  35 C35            4.4670    -3.2690     7.8574 C.ar    
  36 C36            4.8979    -2.7169     9.0514 C.ar    
  37 C37            4.3370    -1.5416     9.5161 C.ar    
  38 C38            3.3469    -0.9081     8.7885 C.ar    
  39 F39            5.0170    -4.4177     7.4065 F       
  40 N40            3.0304    -3.1980     5.9152 N.3     
  41 C41            2.3977    -4.5046     6.1363 C.3     
  42 C42            1.8033    -5.0141     4.8213 C.3     
  43 C43            2.9163    -5.1354     3.7769 C.3     
  44 C44            3.5909    -3.7721     3.6007 C.3     
  45 C45            4.1334    -3.2986     4.9511 C.3     
  46 N46            1.1889    -6.3307     5.0384 N.3     
  47 H47           -0.4807    -1.2421     1.2642 H       
  48 H48           -2.1663    -1.2236     0.6934 H       
  49 H49           -1.3847    -1.4648    -1.6431 H       
  50 H50            1.3895    -1.6494    -0.3803 H       
  51 H51            1.0061    -1.8571    -2.1071 H       
  52 H52            1.8349     0.4455    -1.6051 H       
  53 H53            0.1631     0.4586    -2.2181 H       
  54 H54            0.9921     0.5879     0.7172 H       
  55 H55           -0.1900    -3.7565    -2.4059 H       
  56 H56            0.0782     2.8893     0.5954 H       
  57 H57            1.4319     2.6788    -0.5410 H       
  58 H58           -0.2437     2.6699    -1.1414 H       
  59 H59           -1.3929    -5.7329    -0.6243 H       
  60 H60           -1.6810    -5.9237    -3.0797 H       
  61 H61            0.0832    -6.0538    -3.2766 H       
  62 H62           -1.6770    -7.9758    -1.6877 H       
  63 H63           -0.9818    -8.2929    -3.2954 H       
  64 H64            0.4024    -9.3148    -1.5098 H       
  65 H65            1.2999    -8.0341    -2.3598 H       
  66 H66           -0.1763    -7.7132     0.2925 H       
  67 H67            1.5880    -7.8433     0.0956 H       
  68 H68            1.5839    -5.7912    -1.2963 H       
  69 H69            0.8888    -5.4740     0.3113 H       
  70 H70           -0.2305     0.2825     2.7244 H       
  71 H71           -4.3417     3.8321     0.9959 H       
  72 H72           -5.3200     5.1451     2.6408 H       
  73 H73           -4.9638     3.7999     3.7506 H       
  74 H74           -3.7448     5.0652     3.4657 H       
  75 H75           -2.2510     2.9942     6.1372 H       
  76 H76           -0.8246     2.0732     8.0661 H       
  77 H77            1.7746    -1.0298     5.9198 H       
  78 H78            5.6740    -3.2056     9.6217 H       
  79 H79            4.6763    -1.1150    10.4484 H       
  80 H80            2.9148     0.0123     9.1526 H       
  81 H81            3.1437    -5.2131     6.4963 H       
  82 H82            1.6053    -4.4036     6.8780 H       
  83 H83            1.0473    -4.3130     4.4678 H       
  84 H84            3.6528    -5.8655     4.1124 H       
  85 H85            2.4905    -5.4566     2.8263 H       
  86 H86            4.4122    -3.8616     2.8897 H       
  87 H87            2.8630    -3.0514     3.2280 H       
  88 H88            4.6018    -2.3216     4.8319 H       
  89 H89            4.8713    -4.0127     5.3166 H       
  90 H90            0.7891    -6.6885     4.1839 H       
  91 H91            1.8556    -6.9814     5.4258 H       
@<TRIPOS>BOND
   1    1    2 1
   2    1    6 1
   3    1   19 1
   4    2    3 1
   5    2   47 1
   6    2   48 1
   7    3    4 1
   8    3    7 1
   9    3   49 1
  10    4    5 1
  11    4   50 1
  12    4   51 1
  13    5    6 1
  14    5   52 1
  15    5   53 1
  16    6   10 1
  17    6   54 1
  18    7    8 2
  19    7    9 am
  20    9   11 1
  21    9   55 1
  22   10   56 1
  23   10   57 1
  24   10   58 1
  25   11   12 1
  26   11   16 1
  27   11   59 1
  28   12   13 1
  29   12   60 1
  30   12   61 1
  31   13   14 1
  32   13   62 1
  33   13   63 1
  34   14   15 1
  35   14   64 1
  36   14   65 1
  37   15   16 1
  38   15   66 1
  39   15   67 1
  40   16   68 1
  41   16   69 1
  42   17   18 ar
  43   17   22 ar
  44   17   23 1
  45   18   19 ar
  46   19   20 ar
  47   20   21 ar
  48   20   70 1
  49   21   22 ar
  50   21   27 1
  51   23   24 1
  52   23   71 1
  53   24   72 1
  54   24   73 1
  55   24   74 1
  56   25   26 2
  57   25   29 1
  58   25   30 1
  59   26   27 1
  60   27   28 2
  61   28   29 1
  62   28   75 1
  63   29   76 1
  64   30   31 am
  65   30   32 2
  66   31   33 1
  67   31   77 1
  68   33   34 ar
  69   33   38 ar
  70   34   35 ar
  71   34   40 1
  72   35   36 ar
  73   35   39 1
  74   36   37 ar
  75   36   78 1
  76   37   38 ar
  77   37   79 1
  78   38   80 1
  79   40   41 1
  80   40   45 1
  81   41   42 1
  82   41   81 1
  83   41   82 1
  84   42   43 1
  85   42   46 1
  86   42   83 1
  87   43   44 1
  88   43   84 1
  89   43   85 1
  90   44   45 1
  91   44   86 1
  92   44   87 1
  93   45   88 1
  94   45   89 1
  95   46   90 1
  96   46   91 1

#	End of record

