#	Name: ASD01148216
#	Creating user name:	WinNT
#	Creation time:	15. 06. 2019 19:02

#	Modifying user name:	WinNT
#	Modification time:	15. 06. 2019 19:02

#	Program:	/corina/corina34_cracker 3.40 0067  02.08.2006

@<TRIPOS>MOLECULE
ASD01148216
  47   49    0    0    0
SMALL
NO_CHARGES


@<TRIPOS>ATOM
   1 C1            -0.0167     1.3791     0.0096 C.ar    
   2 C2             0.0021    -0.0041     0.0020 C.ar    
   3 C3             1.2100    -0.6790    -0.0131 C.ar    
   4 C4             2.3967     0.0290    -0.0207 C.ar    
   5 C5             2.3773     1.4115    -0.0131 C.ar    
   6 C6             1.1711     2.0862     0.0021 C.ar    
   7 C7             3.6719     2.1830    -0.0208 C.3     
   8 O8             4.6968     1.4643    -0.7367 O.3     
   9 C9             3.5429     3.4728    -0.8657 C.3     
  10 C10            4.0465     3.0278    -2.2256 C.2     
  11 N11            4.6717     1.9079    -2.0789 N.2     
  12 C12            3.8547     3.7510    -3.4980 C.ar    
  13 C13            4.3734     3.2266    -4.6847 C.ar    
  14 C14            3.1496     4.9572    -3.5166 C.ar    
  15 C15            2.9708     5.6316    -4.7031 C.ar    
  16 C16            3.4940     5.1098    -5.8890 C.ar    
  17 C17            4.1945     3.9011    -5.8712 C.ar    
  18 C18            3.3016     5.8335    -7.1625 C.2     
  19 O19            2.6882     6.8827    -7.1787 O.2     
  20 N20            3.8063     5.3302    -8.3064 N.am    
  21 C21            4.1230     2.5044     1.4054 C.3     
  22 F22            4.2976     1.3138     2.1188 F       
  23 F23            5.3330     3.2055     1.3649 F       
  24 F24            3.1509     3.2880     2.0366 F       
  25 Cl25          -1.4892    -0.8928     0.0121 Cl      
  26 C26            3.6265     6.0069    -9.4974 C.2     
  27 N27            2.9750     7.1213    -9.5146 N.2     
  28 O28            2.7906     7.8149   -10.7353 O.3     
  29 C29            2.0523     9.0316   -10.6067 C.3     
  30 C30            1.2313    -2.1858    -0.0209 C.3     
  31 F31            2.5567    -2.6334    -0.0361 F       
  32 F32            0.5896    -2.6672     1.1252 F       
  33 F33            0.5673    -2.6557    -1.1592 F       
  34 H34           -0.9592     1.9064     0.0169 H       
  35 H35            3.3395    -0.4977    -0.0321 H       
  36 H36            1.1566     3.1661     0.0077 H       
  37 H37            2.5031     3.7945    -0.9245 H       
  38 H38            4.1719     4.2654    -0.4605 H       
  39 H39            4.9149     2.2923    -4.6710 H       
  40 H40            2.7445     5.3601    -2.6001 H       
  41 H41            2.4257     6.5638    -4.7176 H       
  42 H42            4.5993     3.4980    -6.7878 H       
  43 H43            4.2959     4.4929    -8.2935 H       
  44 H44            4.0309     5.6036   -10.4140 H       
  45 H45            1.0616     8.8150   -10.2070 H       
  46 H46            2.5777     9.7056    -9.9300 H       
  47 H47            1.9545     9.5024   -11.5849 H       
@<TRIPOS>BOND
   1    1    2 ar
   2    1    6 ar
   3    1   34 1
   4    2    3 ar
   5    2   25 1
   6    3    4 ar
   7    3   30 1
   8    4    5 ar
   9    4   35 1
  10    5    6 ar
  11    5    7 1
  12    6   36 1
  13    7    8 1
  14    7    9 1
  15    7   21 1
  16    8   11 1
  17    9   10 1
  18    9   37 1
  19    9   38 1
  20   10   11 2
  21   10   12 1
  22   12   13 ar
  23   12   14 ar
  24   13   17 ar
  25   13   39 1
  26   14   15 ar
  27   14   40 1
  28   15   16 ar
  29   15   41 1
  30   16   17 ar
  31   16   18 1
  32   17   42 1
  33   18   19 2
  34   18   20 am
  35   20   26 1
  36   20   43 1
  37   21   22 1
  38   21   23 1
  39   21   24 1
  40   26   27 2
  41   26   44 1
  42   27   28 1
  43   28   29 1
  44   29   45 1
  45   29   46 1
  46   29   47 1
  47   30   31 1
  48   30   32 1
  49   30   33 1

#	End of record

