#	Name: ASD01150775
#	Creating user name:	WinNT
#	Creation time:	15. 06. 2019 19:05

#	Modifying user name:	WinNT
#	Modification time:	15. 06. 2019 19:05

#	Program:	/corina/corina34_cracker 3.40 0067  02.08.2006

@<TRIPOS>MOLECULE
ASD01150775
  41   43    0    0    0
SMALL
NO_CHARGES


@<TRIPOS>ATOM
   1 C1             0.0214     1.4895     0.4588 C.2     
   2 C2            -0.3874     1.2334     1.8865 C.3     
   3 N3             3.6014     2.0334    -0.3032 N.ar    
   4 C4             2.4639     1.4440    -0.0431 C.ar    
   5 C5             1.2833     2.1792     0.1697 C.ar    
   6 C6             1.3275     3.5835     0.1014 C.ar    
   7 C7             2.5760     4.1898    -0.1819 C.ar    
   8 C8             2.7039     5.5829    -0.2666 C.ar    
   9 C9             3.9214     6.1330    -0.5406 C.ar    
  10 C10            5.0393     5.3262    -0.7378 C.ar    
  11 C11            4.9482     3.9690    -0.6623 C.ar    
  12 C12            3.7112     3.3664    -0.3816 C.ar    
  13 C13            2.4156    -0.0605     0.0291 C.3     
  14 C14            0.1136     4.3980     0.3172 C.ar    
  15 C15            0.0302     5.2551     1.4167 C.ar    
  16 C16           -1.1059     6.0124     1.6120 C.ar    
  17 C17           -2.1617     5.9241     0.7219 C.ar    
  18 C18           -2.0861     5.0765    -0.3694 C.ar    
  19 C19           -0.9533     4.3184    -0.5806 C.ar    
  20 S20           -3.6095     6.8948     0.9796 S.o2    
  21 O21           -4.6432     6.1591     0.3397 O.2     
  22 O22           -3.6332     7.1233     2.3819 O.2     
  23 C23           -3.2826     8.4405     0.0882 C.3     
  24 I24            4.1119     8.2154    -0.6670 I       
  25 F25           -0.5681    -0.1402     2.0805 F       
  26 F26            0.6117     1.6987     2.7482 F       
  27 F27           -1.5852     1.9040     2.1560 F       
  28 O28           -0.6907     1.1209    -0.4516 O.2     
  29 H29            1.8429     6.2173    -0.1160 H       
  30 H30            5.9934     5.7837    -0.9544 H       
  31 H31            5.8252     3.3581    -0.8176 H       
  32 H32            2.5173    -0.3779     1.0670 H       
  33 H33            1.4632    -0.4129    -0.3669 H       
  34 H34            3.2314    -0.4790    -0.5603 H       
  35 H35            0.8533     5.3245     2.1125 H       
  36 H36           -1.1717     6.6757     2.4618 H       
  37 H37           -2.9139     5.0121    -1.0600 H       
  38 H38           -0.8936     3.6610    -1.4353 H       
  39 H39           -3.1207     8.2237    -0.9677 H       
  40 H40           -4.1368     9.1091     0.1950 H       
  41 H41           -2.3940     8.9174     0.5017 H       
@<TRIPOS>BOND
   1    1    2 1
   2    1    5 1
   3    1   28 2
   4    2   25 1
   5    2   26 1
   6    2   27 1
   7    3    4 ar
   8    3   12 ar
   9    4    5 ar
  10    4   13 1
  11    5    6 ar
  12    6    7 ar
  13    6   14 1
  14    7    8 ar
  15    7   12 ar
  16    8    9 ar
  17    8   29 1
  18    9   10 ar
  19    9   24 1
  20   10   11 ar
  21   10   30 1
  22   11   12 ar
  23   11   31 1
  24   13   32 1
  25   13   33 1
  26   13   34 1
  27   14   15 ar
  28   14   19 ar
  29   15   16 ar
  30   15   35 1
  31   16   17 ar
  32   16   36 1
  33   17   18 ar
  34   17   20 1
  35   18   19 ar
  36   18   37 1
  37   19   38 1
  38   20   21 2
  39   20   22 2
  40   20   23 1
  41   23   39 1
  42   23   40 1
  43   23   41 1

#	End of record

