#	Name: ASD03330901
#	Creating user name:	WinNT
#	Creation time:	15. 06. 2019 20:38

#	Modifying user name:	WinNT
#	Modification time:	15. 06. 2019 20:38

#	Program:	/corina/corina34_cracker 3.40 0067  02.08.2006

@<TRIPOS>MOLECULE
ASD03330901
  65   68    0    0    0
SMALL
NO_CHARGES


@<TRIPOS>ATOM
   1 C1            -0.0199     1.2413     0.1836 C.2     
   2 C2            -0.0397    -0.2328     0.4955 C.3     
   3 N3             1.1232     1.9841     0.1140 N.pl3   
   4 N4             1.3297    -0.7518     0.3264 N.3     
   5 C5             2.3052     0.0775     1.0478 C.3     
   6 C6             2.4610     1.4307     0.3419 C.3     
   7 C7             0.7638     3.2588    -0.1896 C.2     
   8 N8            -0.5452     3.3086    -0.3007 N.2     
   9 C9            -1.0560     2.0750    -0.0798 C.2     
  10 C10           -2.4818     1.7053    -0.1159 C.2     
  11 O11           -2.8181     0.5572     0.1036 O.2     
  12 N12           -3.4134     2.6392    -0.3923 N.am    
  13 C13            1.6895     4.3984    -0.3654 C.ar    
  14 C14            1.4280     5.6180     0.2650 C.ar    
  15 C15            2.2963     6.6796     0.0972 C.ar    
  16 C16            3.4237     6.5367    -0.6944 C.ar    
  17 C17            3.6880     5.3277    -1.3228 C.ar    
  18 C18            2.8301     4.2583    -1.1568 C.ar    
  19 F19            4.7895     5.1951    -2.0936 F       
  20 F20            4.2690     7.5781    -0.8560 F       
  21 F21            0.3281     5.7588     1.0368 F       
  22 C22            1.4167    -2.1557     0.7502 C.3     
  23 C23            5.1184    -3.7296    -0.3899 C.ar    
  24 N24            5.0014    -3.1562     0.7911 N.ar    
  25 C25            3.8457    -2.6468     1.1859 C.ar    
  26 C26            2.7511    -2.7227     0.3391 C.ar    
  27 C27            2.9131    -3.3331    -0.8946 C.ar    
  28 N28            4.0996    -3.8199    -1.2210 N.ar    
  29 C29           -5.5780     3.2366    -1.3125 C.2     
  30 C30           -4.8311     2.2715    -0.4283 C.3     
  31 C31           -5.4081     2.3259     0.9877 C.3     
  32 C32           -5.3316     3.7602     1.5149 C.3     
  33 O33           -5.1614     4.3652    -1.4662 O.2     
  34 N34           -6.7090     2.8455    -1.9325 N.am    
  35 C35           -7.4935     3.8128    -2.7039 C.3     
  36 C36           -6.8682     1.8694     0.9612 C.3     
  37 C37           -4.6016     1.4024     1.9029 C.3     
  38 H38           -0.3682    -0.3877     1.5232 H       
  39 H39           -0.7153    -0.7454    -0.1893 H       
  40 H40            1.9587     0.2392     2.0685 H       
  41 H41            3.2682    -0.4326     1.0698 H       
  42 H42            2.9688     1.2913    -0.6124 H       
  43 H43            3.0376     2.1093     0.9704 H       
  44 H44           -3.1452     3.5548    -0.5675 H       
  45 H45            2.0954     7.6225     0.5839 H       
  46 H46            3.0391     3.3167    -1.6426 H       
  47 H47            1.3149    -2.2151     1.8338 H       
  48 H48            0.6179    -2.7278     0.2784 H       
  49 H49            6.0757    -4.1323    -0.6861 H       
  50 H50            3.7565    -2.1786     2.1550 H       
  51 H51            2.0822    -3.4107    -1.5802 H       
  52 H52           -4.9345     1.2613    -0.8243 H       
  53 H53           -5.9062     4.4180     0.8629 H       
  54 H54           -5.7427     3.7989     2.5236 H       
  55 H55           -4.2914     4.0854     1.5337 H       
  56 H56           -7.0035     1.9235    -1.8680 H       
  57 H57           -8.3661     3.3166    -3.1287 H       
  58 H58           -7.8182     4.6216    -2.0494 H       
  59 H59           -6.8799     4.2198    -3.5076 H       
  60 H60           -6.9170     0.8256     0.6512 H       
  61 H61           -7.2994     1.9732     1.9569 H       
  62 H62           -7.4284     2.4843     0.2568 H       
  63 H63           -3.5614     1.7276     1.9217 H       
  64 H64           -5.0127     1.4412     2.9116 H       
  65 H65           -4.6561     0.3806     1.5273 H       
@<TRIPOS>BOND
   1    1    2 1
   2    1    3 1
   3    1    9 2
   4    2    4 1
   5    2   38 1
   6    2   39 1
   7    3    6 1
   8    3    7 1
   9    4    5 1
  10    4   22 1
  11    5    6 1
  12    5   40 1
  13    5   41 1
  14    6   42 1
  15    6   43 1
  16    7    8 2
  17    7   13 1
  18    8    9 1
  19    9   10 1
  20   10   11 2
  21   10   12 am
  22   12   30 1
  23   12   44 1
  24   13   14 ar
  25   13   18 ar
  26   14   15 ar
  27   14   21 1
  28   15   16 ar
  29   15   45 1
  30   16   17 ar
  31   16   20 1
  32   17   18 ar
  33   17   19 1
  34   18   46 1
  35   22   26 1
  36   22   47 1
  37   22   48 1
  38   23   24 ar
  39   23   28 ar
  40   23   49 1
  41   24   25 ar
  42   25   26 ar
  43   25   50 1
  44   26   27 ar
  45   27   28 ar
  46   27   51 1
  47   29   33 2
  48   29   34 am
  49   29   30 1
  50   30   31 1
  51   30   52 1
  52   31   32 1
  53   31   36 1
  54   31   37 1
  55   32   53 1
  56   32   54 1
  57   32   55 1
  58   34   35 1
  59   34   56 1
  60   35   57 1
  61   35   58 1
  62   35   59 1
  63   36   60 1
  64   36   61 1
  65   36   62 1
  66   37   63 1
  67   37   64 1
  68   37   65 1

#	End of record

