#	Name: ASD01148118
#	Creating user name:	WinNT
#	Creation time:	15. 06. 2019 19:02

#	Modifying user name:	WinNT
#	Modification time:	15. 06. 2019 19:02

#	Program:	/corina/corina34_cracker 3.40 0067  02.08.2006

@<TRIPOS>MOLECULE
ASD01148118
  35   34    0    0    0
SMALL
NO_CHARGES


@<TRIPOS>ATOM
   1 C1            -0.0167     1.3769     0.0096 C.ar    
   2 C2             0.0021    -0.0041     0.0020 C.ar    
   3 C3             1.1747     2.0871     0.0021 C.ar    
   4 C4             2.3858     1.4112    -0.0136 C.ar    
   5 C5             2.4064     0.0303    -0.0218 C.ar    
   6 C6             1.2141    -0.6815    -0.0132 C.ar    
   7 C7            -1.3320     2.1123     0.0198 C.3     
   8 C8            -2.1350     1.7385    -1.2276 C.3     
   9 C9            -2.1232     1.7249     1.2708 C.3     
  10 C10            3.6796     2.1839    -0.0224 C.3     
  11 C11            4.4996     1.8195     1.2168 C.3     
  12 C12            4.4748     1.8329    -1.2815 C.3     
  13 O13            1.1554     3.4469     0.0096 O.3     
  14 N14            1.2340    -2.0807    -0.0210 N.pl3   
  15 H15           -0.9257    -0.5569     0.0083 H       
  16 H16            3.3495    -0.4958    -0.0347 H       
  17 H17           -1.1475     3.1866     0.0248 H       
  18 H18           -2.3195     0.6642    -1.2326 H       
  19 H19           -3.0864     2.2705    -1.2202 H       
  20 H20           -1.5714     2.0145    -2.1188 H       
  21 H21           -1.5511     1.9913     2.1595 H       
  22 H22           -3.0745     2.2569     1.2782 H       
  23 H23           -2.3076     0.6507     1.2658 H       
  24 H24            3.4647     3.2525    -0.0144 H       
  25 H25            5.4354     2.3784     1.2105 H       
  26 H26            3.9331     2.0695     2.1139 H       
  27 H27            4.7146     0.7509     1.2089 H       
  28 H28            3.8906     2.0926    -2.1643 H       
  29 H29            5.4106     2.3918    -1.2878 H       
  30 H30            4.6897     0.7644    -1.2894 H       
  31 H31            1.1582     3.8354     0.8951 H       
  32 H32            2.0809    -2.5537    -0.0323 H       
  33 H33            0.4010    -2.5777    -0.0150 H       
  34 Cl34          10.4354     8.8354     7.1595 Cl      
  35 H35           10.4354    10.2054     7.1595 H       
@<TRIPOS>BOND
   1    1    2 ar
   2    1    3 ar
   3    1    7 1
   4    2    6 ar
   5    2   15 1
   6    3    4 ar
   7    3   13 1
   8    4    5 ar
   9    4   10 1
  10    5    6 ar
  11    5   16 1
  12    6   14 1
  13    7    8 1
  14    7    9 1
  15    7   17 1
  16    8   18 1
  17    8   19 1
  18    8   20 1
  19    9   21 1
  20    9   22 1
  21    9   23 1
  22   10   11 1
  23   10   12 1
  24   10   24 1
  25   11   25 1
  26   11   26 1
  27   11   27 1
  28   12   28 1
  29   12   29 1
  30   12   30 1
  31   13   31 1
  32   14   32 1
  33   14   33 1
  34   34   35 1

#	End of record

