#	Name: ASD01420157
#	Creating user name:	WinNT
#	Creation time:	15. 06. 2019 19:20

#	Modifying user name:	WinNT
#	Modification time:	15. 06. 2019 19:20

#	Program:	/corina/corina34_cracker 3.40 0067  02.08.2006

@<TRIPOS>MOLECULE
ASD01420157
  53   55    0    0    0
SMALL
NO_CHARGES


@<TRIPOS>ATOM
   1 C1             2.4116     0.1925     1.0155 C.ar    
   2 C2             1.7130    -0.7952     0.3844 C.ar    
   3 C3             0.9613    -0.5169    -0.7672 C.ar    
   4 C4             0.9240     0.7818    -1.2763 C.ar    
   5 C5             2.3880     1.4940     0.5246 C.ar    
   6 O6             2.9668     2.6414     0.9326 O.3     
   7 C7             1.6370     1.7875    -0.6304 C.ar    
   8 C8             1.8252     3.2209    -0.8708 C.2     
   9 C9             2.6402     3.6626     0.1163 C.2     
  10 C10            1.2325     4.0376    -1.9901 C.3     
  11 C11            3.1026     5.0572     0.2750 C.ar    
  12 C12            2.1916     6.1113     0.1836 C.ar    
  13 C13            2.6268     7.4107     0.3326 C.ar    
  14 C14            3.9693     7.6720     0.5735 C.ar    
  15 C15            4.8786     6.6263     0.6651 C.ar    
  16 C16            4.4506     5.3238     0.5225 C.ar    
  17 O17            4.3944     8.9542     0.7193 O.3     
  18 C18            0.2144    -1.5922    -1.4369 C.2     
  19 C19            0.2516    -2.8485    -0.9437 C.2     
  20 C20           -0.4905    -3.9169    -1.6091 C.2     
  21 O21           -1.1419    -3.6745    -2.6074 O.2     
  22 O22           -0.4533    -5.1723    -1.1162 O.3     
  23 C23            5.7882     9.1516     0.9651 C.3     
  24 C24            6.0752    10.6483     1.1003 C.3     
  25 C25            7.5675    10.8597     1.3634 C.3     
  26 N26            7.8431    12.2967     1.4931 N.3     
  27 C27            9.2101    12.5289     1.9783 C.3     
  28 C28            7.6102    12.9944     0.2215 C.3     
  29 H29            2.9822    -0.0365     1.9034 H       
  30 H30            1.7392    -1.8017     0.7751 H       
  31 H31            0.3481     1.0041    -2.1624 H       
  32 H32            0.3160     4.5161    -1.6449 H       
  33 H33            1.9462     4.8009    -2.3003 H       
  34 H34            1.0067     3.3867    -2.8347 H       
  35 H35            1.1475     5.9089    -0.0041 H       
  36 H36            1.9229     8.2267     0.2617 H       
  37 H37            5.9218     6.8337     0.8522 H       
  38 H38            5.1576     4.5110     0.5980 H       
  39 H39           -0.3639    -1.3770    -2.3233 H       
  40 H40            0.8299    -3.0637    -0.0573 H       
  41 H41           -0.9746    -5.8096    -1.6234 H       
  42 H42            6.0702     8.6428     1.8869 H       
  43 H43            6.3648     8.7446     0.1345 H       
  44 H44            5.7932    11.1570     0.1784 H       
  45 H45            5.4986    11.0553     1.9309 H       
  46 H46            7.8496    10.3509     2.2852 H       
  47 H47            8.1441    10.4527     0.5327 H       
  48 H48            9.9232    12.0984     1.2752 H       
  49 H49            9.3877    13.6008     2.0652 H       
  50 H50            9.3338    12.0598     2.9544 H       
  51 H51            6.5708    12.8637    -0.0796 H       
  52 H52            7.8217    14.0564     0.3457 H       
  53 H53            8.2654    12.5807    -0.5452 H       
@<TRIPOS>BOND
   1    1    2 ar
   2    1    5 ar
   3    1   29 1
   4    2    3 ar
   5    2   30 1
   6    3    4 ar
   7    3   18 1
   8    4    7 ar
   9    4   31 1
  10    5    7 ar
  11    5    6 1
  12    6    9 1
  13    7    8 1
  14    8    9 2
  15    8   10 1
  16    9   11 1
  17   10   32 1
  18   10   33 1
  19   10   34 1
  20   11   12 ar
  21   11   16 ar
  22   12   13 ar
  23   12   35 1
  24   13   14 ar
  25   13   36 1
  26   14   15 ar
  27   14   17 1
  28   15   16 ar
  29   15   37 1
  30   16   38 1
  31   17   23 1
  32   18   19 2
  33   18   39 1
  34   19   20 1
  35   19   40 1
  36   20   21 2
  37   20   22 1
  38   22   41 1
  39   23   24 1
  40   23   42 1
  41   23   43 1
  42   24   25 1
  43   24   44 1
  44   24   45 1
  45   25   26 1
  46   25   46 1
  47   25   47 1
  48   26   27 1
  49   26   28 1
  50   27   48 1
  51   27   49 1
  52   27   50 1
  53   28   51 1
  54   28   52 1
  55   28   53 1

#	End of record

