#	Name: ASD01148369
#	Creating user name:	WinNT
#	Creation time:	15. 06. 2019 19:02

#	Modifying user name:	WinNT
#	Modification time:	15. 06. 2019 19:02

#	Program:	/corina/corina34_cracker 3.40 0067  02.08.2006

@<TRIPOS>MOLECULE
ASD01148369
  50   52    0    0    0
SMALL
NO_CHARGES


@<TRIPOS>ATOM
   1 C1            -0.4096     1.8307    -0.0443 C.ar    
   2 C2            -0.4707     0.4512     0.0156 C.ar    
   3 C3             0.6940    -0.2895     0.0947 C.ar    
   4 C4             1.9195     0.3495     0.1133 C.ar    
   5 C5             1.9806     1.7294     0.0524 C.ar    
   6 C6             0.8162     2.4699    -0.0251 C.ar    
   7 C7             3.3167     2.4261     0.0738 C.3     
   8 O8             4.3316     1.6154    -0.5525 O.3     
   9 C9             3.3042     3.6758    -0.8386 C.3     
  10 C10            3.8466     3.1338    -2.1475 C.2     
  11 N11            4.3977     1.9899    -1.9143 N.2     
  12 C12            3.7594     3.7998    -3.4618 C.ar    
  13 C13            4.3038     3.1867    -4.5934 C.ar    
  14 C14            3.1275     5.0406    -3.5755 C.ar    
  15 C15            3.0461     5.6619    -4.8014 C.ar    
  16 C16            3.5955     5.0515    -5.9316 C.ar    
  17 C17            4.2224     3.8078    -5.8188 C.ar    
  18 C18            3.5082     5.7182    -7.2470 C.2     
  19 O19            4.0809     5.2433    -8.2083 O.2     
  20 N20            2.7935     6.8530    -7.3813 N.am    
  21 C21            4.8155     3.1497    -7.0380 C.3     
  22 C22            3.7159     2.7952     1.5039 C.3     
  23 F23            3.7860     1.6351     2.2826 F       
  24 F24            4.9652     3.4247     1.4916 F       
  25 F25            2.7616     3.6632     2.0452 F       
  26 C26            2.7119     7.4765    -8.6115 C.2     
  27 N27            3.3201     6.9721    -9.6324 N.2     
  28 O28            3.2365     7.6110   -10.8932 O.3     
  29 C29            3.9568     6.9442   -11.9317 C.3     
  30 C30            0.6274    -1.7935     0.1610 C.3     
  31 F31           -0.7099    -2.2030     0.1280 F       
  32 F32            1.3093    -2.3392    -0.9319 F       
  33 F33            1.2210    -2.2347     1.3485 F       
  34 H34           -1.3193     2.4091    -0.1105 H       
  35 H35           -1.4282    -0.0480     0.0011 H       
  36 H36            2.8293    -0.2291     0.1757 H       
  37 H37            0.8639     3.5478    -0.0723 H       
  38 H38            2.2890     4.0515    -0.9665 H       
  39 H39            3.9580     4.4519    -0.4407 H       
  40 H40            4.7887     2.2256    -4.5062 H       
  41 H41            2.7025     5.5123    -2.7018 H       
  42 H42            2.5574     6.6209    -4.8894 H       
  43 H43            2.3365     7.2320    -6.6142 H       
  44 H44            5.8128     3.5509    -7.2185 H       
  45 H45            4.8807     2.0739    -6.8747 H       
  46 H46            4.1820     3.3482    -7.9024 H       
  47 H47            2.1393     8.3858    -8.7191 H       
  48 H48            5.0128     6.8933   -11.6664 H       
  49 H49            3.5643     5.9350   -12.0560 H       
  50 H50            3.8429     7.4958   -12.8649 H       
@<TRIPOS>BOND
   1    1    2 ar
   2    1    6 ar
   3    1   34 1
   4    2    3 ar
   5    2   35 1
   6    3    4 ar
   7    3   30 1
   8    4    5 ar
   9    4   36 1
  10    5    6 ar
  11    5    7 1
  12    6   37 1
  13    7    8 1
  14    7    9 1
  15    7   22 1
  16    8   11 1
  17    9   10 1
  18    9   38 1
  19    9   39 1
  20   10   11 2
  21   10   12 1
  22   12   13 ar
  23   12   14 ar
  24   13   17 ar
  25   13   40 1
  26   14   15 ar
  27   14   41 1
  28   15   16 ar
  29   15   42 1
  30   16   17 ar
  31   16   18 1
  32   17   21 1
  33   18   19 2
  34   18   20 am
  35   20   26 1
  36   20   43 1
  37   21   44 1
  38   21   45 1
  39   21   46 1
  40   22   23 1
  41   22   24 1
  42   22   25 1
  43   26   27 2
  44   26   47 1
  45   27   28 1
  46   28   29 1
  47   29   48 1
  48   29   49 1
  49   29   50 1
  50   30   31 1
  51   30   32 1
  52   30   33 1

#	End of record

