#	Name: ASD04882030
#	Creating user name:	WinNT
#	Creation time:	15. 06. 2019 20:53

#	Modifying user name:	WinNT
#	Modification time:	15. 06. 2019 20:53

#	Program:	/corina/corina34_cracker 3.40 0067  02.08.2006

@<TRIPOS>MOLECULE
ASD04882030
  73   77    0    0    0
SMALL
NO_CHARGES


@<TRIPOS>ATOM
   1 C1             1.0146    -0.3232    -1.2350 C.ar    
   2 C2             0.8422    -1.3013    -2.1970 C.ar    
   3 C3             1.8269    -1.5281    -3.1413 C.ar    
   4 C4             2.9861    -0.7779    -3.1262 C.ar    
   5 C5             3.1626     0.2057    -2.1610 C.ar    
   6 C6             2.1717     0.4309    -1.2142 C.ar    
   7 N7             4.3341     0.9660    -2.1425 N.3     
   8 C8             5.1011     0.7219    -0.9130 C.3     
   9 C9             6.4117     1.5104    -0.9675 C.3     
  10 N10            6.1136     2.9409    -1.1235 N.3     
  11 C11            5.3466     3.1851    -2.3530 C.3     
  12 C12            4.0360     2.3965    -2.2986 C.3     
  13 C13            7.2815     3.6990    -1.1051 C.ar    
  14 C14            7.6932     4.3674    -2.2520 C.ar    
  15 C15            8.8477     5.1188    -2.2381 C.ar    
  16 C16            9.6089     5.2107    -1.0700 C.ar    
  17 C17            9.1971     4.5393     0.0851 C.ar    
  18 C18            8.0354     3.7914     0.0686 C.ar    
  19 N19            7.6192     3.1171     1.2241 N.am    
  20 C20            8.5266     2.7307     2.1426 C.2     
  21 C21            8.1036     1.9448     3.3055 C.2     
  22 O22            9.6974     3.0345     2.0067 O.2     
  23 C23            8.9075     1.4924     4.3005 C.2     
  24 C24           10.8458     6.0147    -1.0557 C.2     
  25 O25           11.5076     6.0941    -0.0387 O.2     
  26 S26            6.4588     1.4248     3.6651 S.3     
  27 C27            7.0036     0.6553     5.0912 C.2     
  28 N28            8.2823     0.8113     5.2278 N.2     
  29 C29            4.0587    -1.0261    -4.1552 C.3     
  30 N30           11.2422     6.6612    -2.1698 N.am    
  31 C31           12.4705     7.4595    -2.1556 C.3     
  32 C32           12.6898     8.0826    -3.5357 C.3     
  33 C33           13.9725     8.9164    -3.5209 C.3     
  34 N34           14.1825     9.5129    -4.8423 N.am    
  35 C35           13.7083    10.7138    -5.2164 C.2     
  36 C36           14.9429     8.8790    -5.9258 C.3     
  37 C37           14.5352     9.6326    -7.2112 C.3     
  38 C38           14.1054    11.0076    -6.6463 C.3     
  39 O39           13.0565    11.4538    -4.5105 O.2     
  40 Br40           5.8955    -0.2848     6.3012 Br      
  41 H41            0.2418    -0.1456    -0.5018 H       
  42 H42           -0.0633    -1.8897    -2.2108 H       
  43 H43            1.6893    -2.2931    -3.8911 H       
  44 H44            2.3057     1.1947    -0.4625 H       
  45 H45            4.5180     1.0448    -0.0505 H       
  46 H46            5.3203    -0.3423    -0.8264 H       
  47 H47            6.9690     1.3537    -0.0439 H       
  48 H48            7.0069     1.1685    -1.8142 H       
  49 H49            5.1274     4.2493    -2.4396 H       
  50 H50            5.9297     2.8622    -3.2155 H       
  51 H51            3.4787     2.5532    -3.2221 H       
  52 H52            3.4408     2.7384    -1.4518 H       
  53 H53            7.1068     4.2972    -3.1562 H       
  54 H54            9.1650     5.6370    -3.1310 H       
  55 H55            9.7836     4.6082     0.9894 H       
  56 H56            6.6779     2.9282     1.3629 H       
  57 H57            9.9711     1.6782     4.3256 H       
  58 H58            3.8317    -0.4623    -5.0600 H       
  59 H59            5.0227    -0.7058    -3.7598 H       
  60 H60            4.0977    -2.0898    -4.3901 H       
  61 H61           10.7143     6.5978    -2.9811 H       
  62 H62           12.3816     8.2498    -1.4102 H       
  63 H63           13.3171     6.8194    -1.9073 H       
  64 H64           12.7787     7.2923    -4.2812 H       
  65 H65           11.8432     8.7227    -3.7841 H       
  66 H66           13.8836     9.7066    -2.7755 H       
  67 H67           14.8191     8.2763    -3.2725 H       
  68 H68           16.0130     8.9867    -5.7487 H       
  69 H69           14.6774     7.8249    -6.0063 H       
  70 H70           15.3838     9.7383    -7.8871 H       
  71 H71           13.7025     9.1346    -7.7078 H       
  72 H72           13.2561    11.4009    -7.2050 H       
  73 H73           14.9393    11.7089    -6.6740 H       
@<TRIPOS>BOND
   1    1    2 ar
   2    1    6 ar
   3    1   41 1
   4    2    3 ar
   5    2   42 1
   6    3    4 ar
   7    3   43 1
   8    4    5 ar
   9    4   29 1
  10    5    6 ar
  11    5    7 1
  12    6   44 1
  13    7    8 1
  14    7   12 1
  15    8    9 1
  16    8   45 1
  17    8   46 1
  18    9   10 1
  19    9   47 1
  20    9   48 1
  21   10   11 1
  22   10   13 1
  23   11   12 1
  24   11   49 1
  25   11   50 1
  26   12   51 1
  27   12   52 1
  28   13   14 ar
  29   13   18 ar
  30   14   15 ar
  31   14   53 1
  32   15   16 ar
  33   15   54 1
  34   16   17 ar
  35   16   24 1
  36   17   18 ar
  37   17   55 1
  38   18   19 1
  39   19   20 am
  40   19   56 1
  41   20   21 1
  42   20   22 2
  43   21   23 2
  44   21   26 1
  45   23   28 1
  46   23   57 1
  47   24   25 2
  48   24   30 am
  49   26   27 1
  50   27   28 2
  51   27   40 1
  52   29   58 1
  53   29   59 1
  54   29   60 1
  55   30   31 1
  56   30   61 1
  57   31   32 1
  58   31   62 1
  59   31   63 1
  60   32   33 1
  61   32   64 1
  62   32   65 1
  63   33   34 1
  64   33   66 1
  65   33   67 1
  66   34   35 am
  67   34   36 1
  68   35   39 2
  69   35   38 1
  70   36   37 1
  71   36   68 1
  72   36   69 1
  73   37   38 1
  74   37   70 1
  75   37   71 1
  76   38   72 1
  77   38   73 1

#	End of record

