#	Name: ASD01209168
#	Creating user name:	WinNT
#	Creation time:	15. 06. 2019 19:11

#	Modifying user name:	WinNT
#	Modification time:	15. 06. 2019 19:11

#	Program:	/corina/corina34_cracker 3.40 0067  02.08.2006

@<TRIPOS>MOLECULE
ASD01209168
  73   75    0    0    0
SMALL
NO_CHARGES


@<TRIPOS>ATOM
   1 O1             0.8791     0.1424    -0.4690 O.3     
   2 O2             2.9679     0.9711     0.8957 O.3     
   3 C3             2.3594     6.0548    -8.6319 C.ar    
   4 C4             1.4800     6.2039    -9.6943 C.ar    
   5 C5             0.1536     5.8189    -9.5616 C.ar    
   6 C6            -0.2977     5.2829    -8.3671 C.ar    
   7 C7             0.5835     5.1312    -7.2957 C.ar    
   8 C8             1.9177     5.5147    -7.4352 C.ar    
   9 O9            -0.7040     5.9680   -10.6054 O.3     
  10 C10            0.1060     4.5605    -6.0183 C.2     
  11 N11            0.9587     4.4148    -4.9848 N.am    
  12 O12           -1.0557     4.2227    -5.9001 O.2     
  13 C13            0.5101     3.8786    -3.7847 C.2     
  14 P14            2.0781     1.2158    -0.4236 P.3     
  15 O15            2.9261     1.0594    -1.6265 O.2     
  16 C16            1.3839     2.9010    -0.3845 C.3     
  17 N17            1.2448     3.6961    -2.7322 N.2     
  18 S18           -1.0931     3.3700    -3.4779 S.3     
  19 C19           -0.6428     2.9034    -1.8398 C.2     
  20 C20            0.6535     3.1735    -1.6742 C.2     
  21 C21            1.0973    -1.2627    -0.6107 C.3     
  22 C22           -0.2488    -1.9899    -0.6169 C.3     
  23 C23            3.7312    -0.2177     1.1102 C.3     
  24 C24            4.4537    -0.1241     2.4556 C.3     
  25 O25            3.6575     6.4339    -8.7672 O.3     
  26 C26            4.4798     6.3600    -7.6008 C.3     
  27 C27            5.6371     7.3525    -7.7290 C.3     
  28 C28            5.0372     4.9422    -7.4588 C.3     
  29 O29            6.4823     6.9613    -8.8128 O.3     
  30 C30           -0.2036     6.6351   -11.7659 C.3     
  31 C31           -1.3686     7.2565   -12.5389 C.3     
  32 C32           -2.0072     8.3357   -11.7031 C.ar    
  33 C33           -1.5547     9.6387   -11.7935 C.ar    
  34 C34           -3.0494     8.0235   -10.8502 C.ar    
  35 C35           -3.6353     9.0134   -10.0836 C.ar    
  36 C36           -3.1787    10.3153   -10.1694 C.ar    
  37 C37           -2.1405    10.6286   -11.0268 C.ar    
  38 C38            0.5221     5.6277   -12.6600 C.3     
  39 H39            1.8288     6.6212   -10.6274 H       
  40 H40           -1.3304     4.9839    -8.2645 H       
  41 H41            2.6029     5.3990    -6.6085 H       
  42 H42            1.8857     4.6844    -5.0792 H       
  43 H43            0.6901     2.9888     0.4516 H       
  44 H44            2.1910     3.6237    -0.2643 H       
  45 H45           -1.3017     2.4767    -1.0980 H       
  46 H46            1.6194    -1.4567    -1.5477 H       
  47 H47            1.7008    -1.6225     0.2227 H       
  48 H48           -0.0823    -3.0617    -0.7249 H       
  49 H49           -0.7708    -1.7959     0.3201 H       
  50 H50           -0.8523    -1.6301    -1.4502 H       
  51 H51            3.0657    -1.0810     1.1145 H       
  52 H52            4.4642    -0.3280     0.3110 H       
  53 H53            5.0360    -1.0309     2.6192 H       
  54 H54            5.1192     0.7392     2.4513 H       
  55 H55            3.7207    -0.0138     3.2548 H       
  56 H56            3.8854     6.6066    -6.7210 H       
  57 H57            5.2409     8.3500    -7.9190 H       
  58 H58            6.2131     7.3605    -6.8037 H       
  59 H59            5.6644     4.8858    -6.5691 H       
  60 H60            4.2127     4.2351    -7.3674 H       
  61 H61            5.6315     4.6956    -8.3386 H       
  62 H62            7.2389     7.5469    -8.9528 H       
  63 H63            0.4909     7.4188   -11.4634 H       
  64 H64           -0.9983     7.6884   -13.4687 H       
  65 H65           -2.1067     6.4869   -12.7644 H       
  66 H66           -0.7432     9.8833   -12.4629 H       
  67 H67           -3.4061     7.0063   -10.7832 H       
  68 H68           -4.4499     8.7697    -9.4178 H       
  69 H69           -3.6367    11.0888    -9.5707 H       
  70 H70           -1.7838    11.6458   -11.0939 H       
  71 H71           -0.1724     4.8440   -12.9625 H       
  72 H72            0.9038     6.1365   -13.5452 H       
  73 H73            1.3520     5.1850   -12.1093 H       
@<TRIPOS>BOND
   1    1   21 1
   2    1   14 1
   3    2   23 1
   4    2   14 1
   5    3    4 ar
   6    3   25 1
   7    3    8 ar
   8    4    5 ar
   9    4   39 1
  10    5    6 ar
  11    5    9 1
  12    6    7 ar
  13    6   40 1
  14    7    8 ar
  15    7   10 1
  16    8   41 1
  17    9   30 1
  18   10   11 am
  19   10   12 2
  20   11   13 1
  21   11   42 1
  22   13   17 2
  23   13   18 1
  24   14   15 2
  25   14   16 1
  26   16   20 1
  27   16   43 1
  28   16   44 1
  29   17   20 1
  30   18   19 1
  31   19   20 2
  32   19   45 1
  33   21   22 1
  34   21   46 1
  35   21   47 1
  36   22   48 1
  37   22   49 1
  38   22   50 1
  39   23   24 1
  40   23   51 1
  41   23   52 1
  42   24   53 1
  43   24   54 1
  44   24   55 1
  45   25   26 1
  46   26   27 1
  47   26   28 1
  48   26   56 1
  49   27   29 1
  50   27   57 1
  51   27   58 1
  52   28   59 1
  53   28   60 1
  54   28   61 1
  55   29   62 1
  56   30   31 1
  57   30   38 1
  58   30   63 1
  59   31   32 1
  60   31   64 1
  61   31   65 1
  62   32   33 ar
  63   32   34 ar
  64   33   37 ar
  65   33   66 1
  66   34   35 ar
  67   34   67 1
  68   35   36 ar
  69   35   68 1
  70   36   37 ar
  71   36   69 1
  72   37   70 1
  73   38   71 1
  74   38   72 1
  75   38   73 1

#	End of record

