#	Name: ASD04590817
#	Creating user name:	WinNT
#	Creation time:	15. 06. 2019 20:51

#	Modifying user name:	WinNT
#	Modification time:	15. 06. 2019 20:51

#	Program:	/corina/corina34_cracker 3.40 0067  02.08.2006

@<TRIPOS>MOLECULE
ASD04590817
  87   92    0    0    0
SMALL
NO_CHARGES


@<TRIPOS>ATOM
   1 N1            -3.5997    -3.6476     0.0073 N.ar    
   2 C2            -2.3349    -3.2626     0.1199 C.ar    
   3 N3            -1.3327    -4.1261     0.1482 N.ar    
   4 C4            -1.5626    -5.4331     0.0639 C.ar    
   5 C5            -2.8959    -5.8742    -0.0561 C.ar    
   6 C6            -3.9163    -4.9288    -0.0821 C.ar    
   7 N7            -0.7405    -6.5326     0.0669 N.pl3   
   8 C8            -1.4854    -7.6937    -0.0474 C.ar    
   9 C9            -2.8442    -7.3400    -0.1282 C.ar    
  10 C10           -1.1480    -9.0402    -0.0929 C.ar    
  11 N11           -2.0822    -9.9617    -0.2095 N.ar    
  12 C12           -3.3670    -9.6629    -0.2877 C.ar    
  13 C13           -3.7949    -8.3528    -0.2495 C.ar    
  14 N14           -2.0538    -1.9094     0.2104 N.pl3   
  15 C15           -3.0811    -0.9737     0.0860 C.ar    
  16 N16           -4.3058    -1.3704    -0.2177 N.ar    
  17 N17           -5.2807    -0.5450    -0.3423 N.ar    
  18 C18           -5.1262     0.7583    -0.1752 C.ar    
  19 C19           -3.8696     1.2731     0.1475 C.ar    
  20 C20           -2.8200     0.3824     0.2873 C.ar    
  21 N21           -6.2151     1.6150    -0.3214 N.3     
  22 C22           -5.9385     2.6511    -1.3245 C.3     
  23 C23           -7.2016     3.4814    -1.5639 C.3     
  24 C24           -7.6409     4.1250    -0.2458 C.3     
  25 C25           -7.8757     3.0274     0.7957 C.3     
  26 C26           -6.5930     2.2103     0.9667 C.3     
  27 C27            0.7196    -6.4839     0.1754 C.3     
  28 C28            1.3088    -5.6802    -0.9970 C.3     
  29 C29            2.0559    -4.4809    -0.3778 C.3     
  30 C30            2.3920    -4.9447     1.0613 C.3     
  31 C31            1.1292    -5.7450     1.4662 C.3     
  32 O32           -6.6197     5.0113     0.2165 O.3     
  33 N33           -8.2418     3.6399     2.0797 N.3     
  34 C34           -9.5518     4.2991     1.9941 C.3     
  35 C35           -8.2221     2.6464     3.1616 C.3     
  36 Si36          -6.7748     6.5420    -0.3251 Si      
  37 C37           -5.3855     7.5834     0.3503 C.3     
  38 C38           -6.7096     6.5516    -2.1869 C.3     
  39 C39           -8.4064     7.2393     0.2428 C.3     
  40 C40           -4.0456     7.0107    -0.1160 C.3     
  41 C41           -5.5310     9.0193    -0.1577 C.3     
  42 C42           -5.4391     7.5755     1.8794 C.3     
  43 H43           -4.9479    -5.2354    -0.1735 H       
  44 H44           -0.1105    -9.3343    -0.0325 H       
  45 H45           -4.0929   -10.4569    -0.3824 H       
  46 H46           -4.8465    -8.1154    -0.3139 H       
  47 H47           -1.1426    -1.6123     0.3602 H       
  48 H48           -3.7219     2.3337     0.2878 H       
  49 H49           -1.8271     0.7270     0.5362 H       
  50 H50           -5.1399     3.3002    -0.9655 H       
  51 H51           -5.6313     2.1800    -2.2582 H       
  52 H52           -6.9917     4.2602    -2.2970 H       
  53 H53           -7.9967     2.8353    -1.9361 H       
  54 H54           -8.5645     4.6821    -0.4025 H       
  55 H55           -8.6814     2.3742     0.4606 H       
  56 H56           -6.7612     1.4190     1.6971 H       
  57 H57           -5.7913     2.8615     1.3150 H       
  58 H58            1.1275    -7.4947     0.1775 H       
  59 H59            2.0033    -6.3006    -1.5634 H       
  60 H60            0.5083    -5.3263    -1.6467 H       
  61 H61            2.9694    -4.2719    -0.9344 H       
  62 H62            1.4125    -3.6013    -0.3546 H       
  63 H63            3.2733    -5.5861     1.0645 H       
  64 H64            2.5341    -4.0879     1.7200 H       
  65 H65            0.3362    -5.0696     1.7872 H       
  66 H66            1.3666    -6.4585     2.2553 H       
  67 H67          -10.3116     3.5641     1.7282 H       
  68 H68           -9.7984     4.7441     2.9581 H       
  69 H69           -9.5175     5.0780     1.2324 H       
  70 H70           -7.1992     2.3067     3.3243 H       
  71 H71           -8.6048     3.0981     4.0768 H       
  72 H72           -8.8475     1.7972     2.8864 H       
  73 H73           -7.5224     5.9423    -2.5821 H       
  74 H74           -6.8133     7.5745    -2.5488 H       
  75 H75           -5.7550     6.1436    -2.5192 H       
  76 H76           -8.4445     7.2337     1.3321 H       
  77 H77           -8.5100     8.2622    -0.1191 H       
  78 H78           -9.2192     6.6300    -0.1523 H       
  79 H79           -4.0075     7.0164    -1.2054 H       
  80 H80           -3.2328     7.6200     0.2791 H       
  81 H81           -3.9419     5.9878     0.2459 H       
  82 H82           -6.4856     9.4272     0.1746 H       
  83 H83           -4.7182     9.6286     0.2375 H       
  84 H84           -5.4929     9.0249    -1.2470 H       
  85 H85           -5.3354     6.5526     2.2413 H       
  86 H86           -4.6262     8.1848     2.2745 H       
  87 H87           -6.3937     7.9835     2.2116 H       
@<TRIPOS>BOND
   1    1    2 ar
   2    1    6 ar
   3    2    3 ar
   4    2   14 1
   5    3    4 ar
   6    4    5 ar
   7    4    7 1
   8    5    6 ar
   9    5    9 1
  10    6   43 1
  11    7    8 1
  12    7   27 1
  13    8    9 ar
  14    8   10 ar
  15    9   13 ar
  16   10   11 ar
  17   10   44 1
  18   11   12 ar
  19   12   13 ar
  20   12   45 1
  21   13   46 1
  22   14   15 1
  23   14   47 1
  24   15   16 ar
  25   15   20 ar
  26   16   17 ar
  27   17   18 ar
  28   18   19 ar
  29   18   21 1
  30   19   20 ar
  31   19   48 1
  32   20   49 1
  33   21   22 1
  34   21   26 1
  35   22   23 1
  36   22   50 1
  37   22   51 1
  38   23   24 1
  39   23   52 1
  40   23   53 1
  41   24   25 1
  42   24   32 1
  43   24   54 1
  44   25   26 1
  45   25   33 1
  46   25   55 1
  47   26   56 1
  48   26   57 1
  49   27   28 1
  50   27   31 1
  51   27   58 1
  52   28   29 1
  53   28   59 1
  54   28   60 1
  55   29   30 1
  56   29   61 1
  57   29   62 1
  58   30   31 1
  59   30   63 1
  60   30   64 1
  61   31   65 1
  62   31   66 1
  63   32   36 1
  64   33   34 1
  65   33   35 1
  66   34   67 1
  67   34   68 1
  68   34   69 1
  69   35   70 1
  70   35   71 1
  71   35   72 1
  72   36   37 1
  73   36   38 1
  74   36   39 1
  75   37   40 1
  76   37   41 1
  77   37   42 1
  78   38   73 1
  79   38   74 1
  80   38   75 1
  81   39   76 1
  82   39   77 1
  83   39   78 1
  84   40   79 1
  85   40   80 1
  86   40   81 1
  87   41   82 1
  88   41   83 1
  89   41   84 1
  90   42   85 1
  91   42   86 1
  92   42   87 1

#	End of record

