#	Name: ASD08151094
#	Creating user name:	WinNT
#	Creation time:	15. 06. 2019 21:17

#	Modifying user name:	WinNT
#	Modification time:	15. 06. 2019 21:17

#	Program:	/corina/corina34_cracker 3.40 0067  02.08.2006

@<TRIPOS>MOLECULE
ASD08151094
  40   40    0    0    0
SMALL
NO_CHARGES


@<TRIPOS>ATOM
   1 C1            -0.2681     2.1894    -0.0160 C.3     
   2 S2            -0.5366     0.3954     0.0006 S.o2    
   3 O3            -1.7985     0.0854     0.5757 O.2     
   4 O4            -0.1327    -0.1806    -1.2340 O.2     
   5 O5             0.4749    -0.1306     1.0090 O.3     
   6 F6             1.0593     2.4591    -0.3659 F       
   7 F7            -1.1258     2.7807    -0.9497 F       
   8 F8            -0.5308     2.7120     1.2549 F       
   9 C9             0.0872     0.0057     2.3018 C.ar    
  10 C10           -0.7717    -0.9176     2.8703 C.ar    
  11 C11           -1.1664    -0.7724     4.2002 C.ar    
  12 C12           -0.6952     0.3063     4.9602 C.ar    
  13 C13            0.1528     1.2211     4.4048 C.ar    
  14 C14            0.5613     1.0829     3.0710 C.ar    
  15 C15           -2.0554    -1.7276     4.7900 C.1     
  16 C16           -2.7843    -2.5107     5.2735 C.1     
  17 Si17          -3.9639    -3.7780     6.0561 Si      
  18 C18           -4.2952    -3.3068     7.8278 C.3     
  19 C19           -5.5681    -3.8006     5.1091 C.3     
  20 C20           -3.1850    -5.4695     5.9986 C.3     
  21 N21           -1.2712    -2.0574     2.0687 N.pl3   
  22 O22           -0.6505    -3.1051     2.0470 O.2     
  23 O23           -2.3030    -1.9474     1.4309 O.2     
  24 F24           -1.0818     0.4421     6.2475 F       
  25 C25            1.4761     2.0627     2.4776 C.2     
  26 O26            1.9247     1.8780     1.3656 O.2     
  27 C27            1.8594     3.2993     3.2490 C.3     
  28 H28            0.5127     2.0506     4.9955 H       
  29 H29           -4.7509    -2.3172     7.8614 H       
  30 H30           -4.9719    -4.0338     8.2767 H       
  31 H31           -3.3566    -3.2936     8.3818 H       
  32 H32           -5.3743    -4.0763     4.0725 H       
  33 H33           -6.2448    -4.5277     5.5581 H       
  34 H34           -6.0238    -2.8110     5.1427 H       
  35 H35           -2.2464    -5.4563     6.5527 H       
  36 H36           -3.8618    -6.1965     6.4476 H       
  37 H37           -2.9912    -5.7452     4.9620 H       
  38 H38            2.7518     3.0962     3.8409 H       
  39 H39            2.0624     4.1132     2.5530 H       
  40 H40            1.0411     3.5828     3.9109 H       
@<TRIPOS>BOND
   1    1    2 1
   2    1    6 1
   3    1    7 1
   4    1    8 1
   5    2    3 2
   6    2    4 2
   7    2    5 1
   8    5    9 1
   9    9   10 ar
  10    9   14 ar
  11   10   11 ar
  12   10   21 1
  13   11   12 ar
  14   11   15 1
  15   12   13 ar
  16   12   24 1
  17   13   14 ar
  18   13   28 1
  19   14   25 1
  20   15   16 3
  21   16   17 1
  22   17   18 1
  23   17   19 1
  24   17   20 1
  25   18   29 1
  26   18   30 1
  27   18   31 1
  28   19   32 1
  29   19   33 1
  30   19   34 1
  31   20   35 1
  32   20   36 1
  33   20   37 1
  34   21   22 2
  35   21   23 2
  36   25   26 2
  37   25   27 1
  38   27   38 1
  39   27   39 1
  40   27   40 1

#	End of record

