#	Name: ASD01884861
#	Creating user name:	WinNT
#	Creation time:	15. 06. 2019 19:49

#	Modifying user name:	WinNT
#	Modification time:	15. 06. 2019 19:49

#	Program:	/corina/corina34_cracker 3.40 0067  02.08.2006

@<TRIPOS>MOLECULE
ASD01884861
  35   39    0    0    0
SMALL
NO_CHARGES


@<TRIPOS>ATOM
   1 C1            -0.0164     1.3612     0.0095 C.ar    
   2 C2             0.0021    -0.0041     0.0020 C.ar    
   3 C3            -1.1922    -0.7345     0.0095 C.ar    
   4 C4            -2.4132    -0.0728     0.0247 C.ar    
   5 C5            -2.4368     1.3218     0.0324 C.ar    
   6 C6            -1.2301     2.0456     0.0306 C.ar    
   7 C7            -3.5088     2.3207     0.0480 C.2     
   8 C8            -2.9203     3.5270     0.0488 C.2     
   9 N9            -1.5598     3.3828     0.0394 N.pl3   
  10 C10           -1.1535    -2.2158     0.0007 C.2     
  11 C11           -0.6204    -2.9069     1.0735 C.2     
  12 C12           -1.6672    -2.9380    -1.1038 C.2     
  13 C13           -1.6312    -4.2835    -1.1100 C.2     
  14 N14           -1.1017    -4.9745    -0.0579 N.pl3   
  15 C15           -0.5978    -4.3126     1.0354 C.2     
  16 Cl16           0.0118    -2.0523     2.4460 Cl      
  17 C17           -0.9367    -6.3008     0.2022 C.2     
  18 N18           -0.3658    -6.4044     1.3746 N.2     
  19 N19           -0.1615    -5.2374     1.8766 N.2     
  20 C20           -1.3391    -7.4416    -0.6965 C.3     
  21 H21           -0.9222     4.1137     0.0381 H       
  22 C22           -0.2358    -8.3884    -1.1731 C.3     
  23 C23           -1.2467    -8.8577    -0.1249 C.3     
  24 Cl24           1.4765     2.2470     0.0000 Cl      
  25 H25            0.9476    -0.5257    -0.0102 H       
  26 H26           -3.3364    -0.6333     0.0302 H       
  27 H27           -4.5706     2.1237     0.0566 H       
  28 H28           -3.4434     4.4719     0.0585 H       
  29 H29           -2.0899    -2.4072    -1.9441 H       
  30 H30           -2.0263    -4.8235    -1.9578 H       
  31 H31           -2.1543    -7.2299    -1.3885 H       
  32 H32           -0.3254    -8.8000    -2.1784 H       
  33 H33            0.7810    -8.1862    -0.8366 H       
  34 H34           -0.8949    -8.9643     0.9012 H       
  35 H35           -2.0013    -9.5781    -0.4406 H       
@<TRIPOS>BOND
   1    1    2 ar
   2    1   24 1
   3    1    6 ar
   4    2    3 ar
   5    2   25 1
   6    3    4 ar
   7    3   10 1
   8    4    5 ar
   9    4   26 1
  10    5    6 ar
  11    5    7 1
  12    6    9 1
  13    7    8 2
  14    7   27 1
  15    8    9 1
  16    8   28 1
  17    9   21 1
  18   10   11 2
  19   10   12 1
  20   11   16 1
  21   11   15 1
  22   12   13 2
  23   12   29 1
  24   13   14 1
  25   13   30 1
  26   14   15 1
  27   14   17 1
  28   15   19 2
  29   17   18 2
  30   17   20 1
  31   18   19 1
  32   20   22 1
  33   20   23 1
  34   20   31 1
  35   22   23 1
  36   22   32 1
  37   22   33 1
  38   23   34 1
  39   23   35 1

#	End of record

