#	Name: ASD01816412
#	Creating user name:	WinNT
#	Creation time:	15. 06. 2019 19:35

#	Modifying user name:	WinNT
#	Modification time:	15. 06. 2019 19:35

#	Program:	/corina/corina34_cracker 3.40 0067  02.08.2006

@<TRIPOS>MOLECULE
ASD01816412
  48   53    0    0    0
SMALL
NO_CHARGES


@<TRIPOS>ATOM
   1 C1            -0.0167     1.3813     0.0096 C.ar    
   2 C2             0.0021    -0.0041     0.0020 C.ar    
   3 C3             1.1984    -0.6910    -0.0131 C.ar    
   4 C4             2.4015     0.0058    -0.0203 C.ar    
   5 C5             2.3791     1.4106    -0.0126 C.ar    
   6 C6             1.1662     2.0917     0.0022 C.ar    
   7 N7             3.6053    -0.6773    -0.0345 N.pl3   
   8 C8             4.7970    -0.0587    -0.0416 C.2     
   9 C9             4.8999     1.3101    -0.0356 C.2     
  10 C10            3.6669     2.1300    -0.0205 C.2     
  11 C11            5.9971     2.2728    -0.0406 C.2     
  12 N12            5.4247     3.4959    -0.0297 N.am    
  13 N13            4.0324     3.3801    -0.0178 N.2     
  14 O14            7.1915     2.0226    -0.0522 O.2     
  15 C15            3.5779    -2.1421    -0.0416 C.3     
  16 C16            3.5558    -2.6372    -1.4648 C.ar    
  17 C17            4.7437    -2.8863    -2.1272 C.ar    
  18 C18            4.7267    -3.3397    -3.4317 C.ar    
  19 C19            3.5152    -3.5458    -4.0778 C.ar    
  20 C20            2.3241    -3.2952    -3.4099 C.ar    
  21 C21            2.3475    -2.8469    -2.1037 C.ar    
  22 N22            3.4947    -4.0054    -5.4019 N.pl3   
  23 C23            2.3900    -4.2464    -6.1437 C.2     
  24 C24            2.7968    -4.6754    -7.3609 C.2     
  25 C25            4.1959    -4.6978    -7.3642 C.2     
  26 N26            4.6150    -4.2908    -6.1931 N.2     
  27 C27            6.1250     4.7049    -0.0297 C.2     
  28 C28            5.5649     5.9237    -0.0189 C.2     
  29 C29            6.4651     6.9751    -0.0213 C.2     
  30 C30            7.7496     6.6170    -0.0339 C.2     
  31 S31            7.8767     4.8629    -0.0360 S.3     
  32 H32           -0.9602     1.9068     0.0169 H       
  33 H33           -0.9289    -0.5515     0.0083 H       
  34 H34            1.2003    -1.7709    -0.0189 H       
  35 H35            1.1506     3.1715     0.0077 H       
  36 H36            5.6983    -0.6537    -0.0519 H       
  37 H37            4.4655    -2.5245     0.4624 H       
  38 H38            2.6859    -2.4913     0.4785 H       
  39 H39            5.6858    -2.7257    -1.6241 H       
  40 H40            5.6549    -3.5333    -3.9488 H       
  41 H41            1.3802    -3.4543    -3.9100 H       
  42 H42            1.4213    -2.6518    -1.5836 H       
  43 H43            1.3667    -4.1198    -5.8222 H       
  44 H44            2.1550    -4.9518    -8.1843 H       
  45 H45            4.8222    -4.9952    -8.1923 H       
  46 H46            4.4954     6.0730    -0.0096 H       
  47 H47            6.1508     8.0083    -0.0139 H       
  48 H48            8.5855     7.3008    -0.0379 H       
@<TRIPOS>BOND
   1    1    2 ar
   2    1    6 ar
   3    1   32 1
   4    2    3 ar
   5    2   33 1
   6    3    4 ar
   7    3   34 1
   8    4    5 ar
   9    4    7 1
  10    5    6 ar
  11    5   10 1
  12    6   35 1
  13    7    8 1
  14    7   15 1
  15    8    9 2
  16    8   36 1
  17    9   10 1
  18    9   11 1
  19   10   13 2
  20   11   12 am
  21   11   14 2
  22   12   13 1
  23   12   27 1
  24   15   16 1
  25   15   37 1
  26   15   38 1
  27   16   17 ar
  28   16   21 ar
  29   17   18 ar
  30   17   39 1
  31   18   19 ar
  32   18   40 1
  33   19   20 ar
  34   19   22 1
  35   20   21 ar
  36   20   41 1
  37   21   42 1
  38   22   23 1
  39   22   26 1
  40   23   24 2
  41   23   43 1
  42   24   25 1
  43   24   44 1
  44   25   26 2
  45   25   45 1
  46   27   28 2
  47   27   31 1
  48   28   29 1
  49   28   46 1
  50   29   30 2
  51   29   47 1
  52   30   31 1
  53   30   48 1

#	End of record

