#	Name: ASD01230084
#	Creating user name:	WinNT
#	Creation time:	15. 06. 2019 19:11

#	Modifying user name:	WinNT
#	Modification time:	15. 06. 2019 19:11

#	Program:	/corina/corina34_cracker 3.40 0067  02.08.2006

@<TRIPOS>MOLECULE
ASD01230084
  48   51    0    0    0
SMALL
NO_CHARGES


@<TRIPOS>ATOM
   1 C1            -0.0168     1.3906     0.0097 C.ar    
   2 C2             0.0021    -0.0041     0.0020 C.ar    
   3 C3            -1.2688    -0.7651     0.0096 C.2     
   4 N4            -2.4262    -0.1228     0.0236 N.2     
   5 C5            -3.5771    -0.7928     0.0306 C.2     
   6 N6            -3.5942    -2.1594     0.0235 N.pl3   
   7 C7            -2.4194    -2.8547     0.0090 C.2     
   8 C8            -1.2479    -2.1754    -0.0040 C.2     
   9 C9             1.2225    -0.6792    -0.0133 C.ar    
  10 C10            2.4029     0.0352    -0.0207 C.ar    
  11 C11            2.3776     1.4184    -0.0126 C.ar    
  12 C12            1.1703     2.0938     0.0021 C.ar    
  13 C13           -4.9218    -0.3708     0.0448 C.2     
  14 C14           -5.7149    -1.5326     0.0455 C.2     
  15 N15           -4.9298    -2.5771     0.0330 N.2     
  16 C16           -5.4018     1.0133     0.0569 C.2     
  17 O17           -4.6053     1.9338     0.0552 O.2     
  18 C18           -7.1804     2.5797     0.0814 C.2     
  19 N19           -6.7253     1.2675     0.0699 N.am    
  20 N20           -6.4197     3.6296     0.0803 N.2     
  21 C21           -7.0224     4.8040     0.0924 C.2     
  22 C22           -8.3552     4.7436     0.1042 C.2     
  23 S23           -8.8253     3.0457     0.0916 S.3     
  24 S24           -9.4535     6.1213     0.1220 S.o2    
  25 N25           -9.7735     6.5134    -1.4548 N.am    
  26 O26          -10.6758     5.6529     0.6750 O.2     
  27 O27           -8.7214     7.2110     0.6658 O.2     
  28 C28           -6.2662     6.1076     0.0932 C.3     
  29 C29           -2.4262    -4.3616     0.0015 C.3     
  30 F30           -1.1094    -4.8339    -0.0132 F       
  31 F31           -3.0771    -4.8307     1.1476 F       
  32 F32           -3.0985    -4.8193    -1.1368 F       
  33 C33            3.6705     2.1926    -0.0203 C.3     
  34 F34            4.0582     2.4397    -1.3415 F       
  35 F35            3.4900     3.4084     0.6479 F       
  36 F36            4.6635     1.4484     0.6257 F       
  37 H37           -0.9587     1.9189     0.0170 H       
  38 H38           -0.3082    -2.7076    -0.0159 H       
  39 H39            1.2434    -1.7590    -0.0189 H       
  40 H40            3.3484    -0.4865    -0.0325 H       
  41 H41            1.1569     3.1737     0.0077 H       
  42 H42           -6.7946    -1.5571     0.0546 H       
  43 H43           -7.3600     0.5340     0.0712 H       
  44 H44           -9.3694     6.0023    -2.1733 H       
  45 H45          -10.3651     7.2543    -1.6598 H       
  46 H46           -6.0934     6.4280    -0.9342 H       
  47 H47           -6.8490     6.8653     0.6169 H       
  48 H48           -5.3094     5.9722     0.5975 H       
@<TRIPOS>BOND
   1    1    2 ar
   2    1   12 ar
   3    1   37 1
   4    2    3 1
   5    2    9 ar
   6    3    4 2
   7    3    8 1
   8    4    5 1
   9    5    6 1
  10    5   13 2
  11    6    7 1
  12    6   15 1
  13    7   29 1
  14    7    8 2
  15    8   38 1
  16    9   10 ar
  17    9   39 1
  18   10   11 ar
  19   10   40 1
  20   11   33 1
  21   11   12 ar
  22   12   41 1
  23   13   14 1
  24   13   16 1
  25   14   15 2
  26   14   42 1
  27   16   17 2
  28   16   19 am
  29   18   19 1
  30   18   20 2
  31   18   23 1
  32   19   43 1
  33   20   21 1
  34   21   22 2
  35   21   28 1
  36   22   23 1
  37   22   24 1
  38   24   25 am
  39   24   26 2
  40   24   27 2
  41   25   44 1
  42   25   45 1
  43   28   46 1
  44   28   47 1
  45   28   48 1
  46   29   30 1
  47   29   31 1
  48   29   32 1
  49   33   34 1
  50   33   35 1
  51   33   36 1

#	End of record

