#	Name: ASD01916570
#	Creating user name:	WinNT
#	Creation time:	15. 06. 2019 20:07

#	Modifying user name:	WinNT
#	Modification time:	15. 06. 2019 20:07

#	Program:	/corina/corina34_cracker 3.40 0067  02.08.2006

@<TRIPOS>MOLECULE
ASD01916570
  43   47    0    0    0
SMALL
NO_CHARGES


@<TRIPOS>ATOM
   1 C1            -0.0171     1.4100     0.0098 C.ar    
   2 C2             0.0021    -0.0041     0.0020 C.ar    
   3 C3            -1.1908    -0.7262    -0.0307 C.ar    
   4 C4            -2.3843    -0.0657    -0.0379 C.ar    
   5 C5            -2.4223     1.3367    -0.0105 C.ar    
   6 C6            -1.2417     2.0754     0.0120 C.ar    
   7 N7             1.1587     2.0832     0.0022 N.2     
   8 C8             2.3110     1.4717     0.0189 C.2     
   9 N9             2.4086     0.1185     0.1409 N.am    
  10 C10            1.3116    -0.6682     0.0468 C.2     
  11 C11           -3.6842     2.0135    -0.0055 C.1     
  12 O12            1.4065    -1.8811     0.0005 O.2     
  13 C13           -4.7188     2.5683    -0.0014 C.1     
  14 C14           -5.9808     3.2451     0.0035 C.ar    
  15 C15            3.5591     2.2971    -0.1693 C.3     
  16 C16            4.8686     1.5318    -0.3880 C.3     
  17 C17            4.7572     0.0051    -0.5433 C.3     
  18 C18            3.7021    -0.5061     0.4409 C.3     
  19 N19           -6.0170     4.5739     0.0295 N.ar    
  20 C20           -7.1573     5.2327     0.0345 C.ar    
  21 C21           -8.3665     4.5614     0.0128 C.ar    
  22 C22           -8.3759     3.1733    -0.0147 C.ar    
  23 C23           -7.1653     2.5044    -0.0248 C.ar    
  24 C24            4.2365     2.3453    -1.5302 C.3     
  25 C25            6.1366     2.0492     0.2943 C.3     
  26 O26            7.2364     1.1990    -0.0367 O.3     
  27 H27           -1.1696    -1.8058    -0.0506 H       
  28 H28           -3.3069    -0.6263    -0.0653 H       
  29 H29           -1.2749     3.1547     0.0309 H       
  30 H30            3.6119     3.2038     0.4333 H       
  31 H31            4.4563    -0.2385    -1.5623 H       
  32 H32            5.7192    -0.4569    -0.3218 H       
  33 H33            4.0009    -0.2523     1.4579 H       
  34 H34            3.6130    -1.5885     0.3481 H       
  35 H35           -7.1481     6.3125     0.0563 H       
  36 H36           -9.2954     5.1123     0.0175 H       
  37 H37           -9.3079     2.6279    -0.0321 H       
  38 H38           -7.1360     1.4250    -0.0460 H       
  39 H39            3.7698     1.7908    -2.3444 H       
  40 H40            4.7262     3.2763    -1.8157 H       
  41 H41            6.3453     3.0630    -0.0475 H       
  42 H42            5.9923     2.0526     1.3747 H       
  43 H43            8.0752     1.4677     0.3623 H       
@<TRIPOS>BOND
   1    1    2 ar
   2    1    7 1
   3    1    6 ar
   4    2    3 ar
   5    2   10 1
   6    3    4 ar
   7    3   27 1
   8    4    5 ar
   9    4   28 1
  10    5    6 ar
  11    5   11 1
  12    6   29 1
  13    7    8 2
  14    8    9 1
  15    8   15 1
  16    9   10 am
  17    9   18 1
  18   10   12 2
  19   11   13 3
  20   13   14 1
  21   14   19 ar
  22   14   23 ar
  23   15   16 1
  24   15   24 1
  25   15   30 1
  26   16   17 1
  27   16   25 1
  28   16   24 1
  29   17   18 1
  30   17   31 1
  31   17   32 1
  32   18   33 1
  33   18   34 1
  34   19   20 ar
  35   20   21 ar
  36   20   35 1
  37   21   22 ar
  38   21   36 1
  39   22   23 ar
  40   22   37 1
  41   23   38 1
  42   24   39 1
  43   24   40 1
  44   25   26 1
  45   25   41 1
  46   25   42 1
  47   26   43 1

#	End of record

