#	Name: ASD01917864
#	Creating user name:	WinNT
#	Creation time:	15. 06. 2019 20:10

#	Modifying user name:	WinNT
#	Modification time:	15. 06. 2019 20:10

#	Program:	/corina/corina34_cracker 3.40 0067  02.08.2006

@<TRIPOS>MOLECULE
ASD01917864
  47   51    0    0    0
SMALL
NO_CHARGES


@<TRIPOS>ATOM
   1 C1            -0.0146     1.3273     0.0001 C.2     
   2 C2            -0.0053    -0.0188     0.0026 C.2     
   3 C3            -1.2755    -0.8554     0.0141 C.3     
   4 C4            -2.4420     0.0108     0.4951 C.3     
   5 N5            -2.4110     1.2979    -0.2159 N.am    
   6 C6            -1.2588     2.1854     0.0202 C.3     
   7 C7            -3.4039     1.6536    -1.0549 C.2     
   8 O8            -4.2939     0.8652    -1.3131 O.2     
   9 S9             1.6467     1.9019    -0.0227 S.3     
  10 C10            2.2121     0.2889    -0.0221 C.2     
  11 N11            1.2188    -0.5286    -0.0075 N.2     
  12 C12            3.6634    -0.1167    -0.0371 C.3     
  13 O13            4.1068    -0.2503    -1.3890 O.3     
  14 C14            5.4023    -0.6136    -1.5804 C.ar    
  15 C15            5.8995    -0.7618    -2.8670 C.ar    
  16 C16            7.2167    -1.1313    -3.0589 C.ar    
  17 C17            8.0393    -1.3534    -1.9700 C.ar    
  18 C18            7.5460    -1.2068    -0.6867 C.ar    
  19 C19            6.2312    -0.8315    -0.4895 C.ar    
  20 C20           -3.4116     2.9933    -1.6578 C.2     
  21 C21           -2.9907     4.1527    -1.0760 C.2     
  22 N22           -3.1517     5.1837    -1.9400 N.pl3   
  23 C23           -3.6882     4.7358    -3.1295 C.ar    
  24 C24           -3.8701     3.3485    -3.0133 C.ar    
  25 C25           -4.0398     5.3730    -4.3151 C.ar    
  26 C26           -4.5666     4.6428    -5.3578 C.ar    
  27 C27           -4.7521     3.2728    -5.2389 C.ar    
  28 C28           -4.3971     2.6216    -4.0780 C.ar    
  29 H29           -1.4820    -1.2182    -0.9927 H       
  30 H30           -1.1480    -1.7020     0.6887 H       
  31 H31           -3.3835    -0.4977     0.2872 H       
  32 H32           -2.3493     0.1844     1.5672 H       
  33 H33           -1.3590     2.6724     0.9902 H       
  34 H34           -1.2020     2.9362    -0.7679 H       
  35 H35            4.2587     0.6447     0.4670 H       
  36 H36            3.7797    -1.0696     0.4793 H       
  37 H37            5.2573    -0.5887    -3.7179 H       
  38 H38            7.6042    -1.2471    -4.0604 H       
  39 H39            9.0688    -1.6422    -2.1221 H       
  40 H40            8.1904    -1.3816     0.1622 H       
  41 H41            5.8464    -0.7171     0.5131 H       
  42 H42           -2.5893     4.2364    -0.0768 H       
  43 H43           -2.9226     6.1067    -1.7490 H       
  44 H44           -3.9003     6.4390    -4.4179 H       
  45 H45           -4.8382     5.1415    -6.2764 H       
  46 H46           -5.1667     2.7129    -6.0641 H       
  47 H47           -4.5421     1.5551    -3.9880 H       
@<TRIPOS>BOND
   1    1    2 2
   2    1    9 1
   3    1    6 1
   4    2    3 1
   5    2   11 1
   6    3    4 1
   7    3   29 1
   8    3   30 1
   9    4    5 1
  10    4   31 1
  11    4   32 1
  12    5    6 1
  13    5    7 am
  14    6   33 1
  15    6   34 1
  16    7    8 2
  17    7   20 1
  18    9   10 1
  19   10   11 2
  20   10   12 1
  21   12   13 1
  22   12   35 1
  23   12   36 1
  24   13   14 1
  25   14   15 ar
  26   14   19 ar
  27   15   16 ar
  28   15   37 1
  29   16   17 ar
  30   16   38 1
  31   17   18 ar
  32   17   39 1
  33   18   19 ar
  34   18   40 1
  35   19   41 1
  36   20   21 2
  37   20   24 1
  38   21   22 1
  39   21   42 1
  40   22   23 1
  41   22   43 1
  42   23   25 ar
  43   23   24 ar
  44   24   28 ar
  45   25   26 ar
  46   25   44 1
  47   26   27 ar
  48   26   45 1
  49   27   28 ar
  50   27   46 1
  51   28   47 1

#	End of record

