#	Name: ASD01883730
#	Creating user name:	WinNT
#	Creation time:	15. 06. 2019 19:46

#	Modifying user name:	WinNT
#	Modification time:	15. 06. 2019 19:46

#	Program:	/corina/corina34_cracker 3.40 0067  02.08.2006

@<TRIPOS>MOLECULE
ASD01883730
  51   55    0    0    0
SMALL
NO_CHARGES


@<TRIPOS>ATOM
   1 C1            -0.0164     1.3569     0.0095 C.2     
   2 C2             0.0021    -0.0041     0.0020 C.2     
   3 C3            -1.2087    -0.7162     0.0102 C.2     
   4 C4            -2.3862    -0.0574     0.0255 C.2     
   5 N5            -2.4197     1.3075     0.0332 N.pl3   
   6 C6            -1.2553     2.0305     0.0309 C.2     
   7 C7            -3.4497     2.2079     0.0483 C.2     
   8 C8            -2.9006     3.4425     0.0495 C.2     
   9 N9            -1.5714     3.3178     0.0396 N.2     
  10 Cl10           1.4697     2.2543     0.0001 Cl      
  11 C11           -4.9213     1.8835     0.0605 C.3     
  12 C12           -5.4602     1.9049    -1.3713 C.3     
  13 F13           -4.7795     0.9546    -2.1400 F       
  14 F14           -6.8263     1.6037    -1.3600 F       
  15 F15           -5.2674     3.1759    -1.9232 F       
  16 C16            1.3152    -0.7434    -0.0155 C.3     
  17 N17            1.6969    -1.0962     1.3585 N.3     
  18 C18            2.8409    -2.0170     1.3669 C.3     
  19 C19            3.1060    -2.4868     2.8003 C.3     
  20 C20            3.3701    -1.2766     3.6886 C.3     
  21 C21            2.2120    -0.2888     3.6132 C.3     
  22 C22            1.9758     0.1072     2.1527 C.3     
  23 C23            3.5955    -1.7260     5.1456 C.3     
  24 C24            4.6743    -0.7629     5.6048 C.ar    
  25 C25            5.2030    -0.1697     4.4653 C.ar    
  26 O26            4.6050    -0.6454     3.3370 O.3     
  27 C27            5.1482    -0.4339     6.8554 C.ar    
  28 C28            6.1583     0.5022     6.9877 C.ar    
  29 C29            6.6879     1.1046     5.8612 C.ar    
  30 C30            6.2170     0.7743     4.6075 C.ar    
  31 H31           -1.1971    -1.7961     0.0040 H       
  32 H32           -3.3111    -0.6151     0.0314 H       
  33 H33           -3.4459     4.3746     0.0594 H       
  34 H34           -5.0715     0.8932     0.4905 H       
  35 H35           -5.4517     2.6239     0.6594 H       
  36 H36            1.2127    -1.6520    -0.6088 H       
  37 H37            2.0842    -0.1077    -0.4544 H       
  38 H38            2.6186    -2.8786     0.7373 H       
  39 H39            3.7230    -1.5043     0.9834 H       
  40 H40            2.2360    -3.0280     3.1723 H       
  41 H41            3.9757    -3.1437     2.8127 H       
  42 H42            1.3112    -0.7534     4.0142 H       
  43 H43            2.4536     0.5999     4.1963 H       
  44 H44            2.8648     0.6024     1.7621 H       
  45 H45            1.1256     0.7868     2.0934 H       
  46 H46            2.6873    -1.6045     5.7360 H       
  47 H47            3.9498    -2.7561     5.1854 H       
  48 H48            4.7318    -0.9069     7.7325 H       
  49 H49            6.5316     0.7619     7.9673 H       
  50 H50            7.4745     1.8375     5.9636 H       
  51 H51            6.6363     1.2494     3.7330 H       
@<TRIPOS>BOND
   1    1    2 2
   2    1   10 1
   3    1    6 1
   4    2    3 1
   5    2   16 1
   6    3    4 2
   7    3   31 1
   8    4    5 1
   9    4   32 1
  10    5    6 1
  11    5    7 1
  12    6    9 2
  13    7    8 2
  14    7   11 1
  15    8    9 1
  16    8   33 1
  17   11   12 1
  18   11   34 1
  19   11   35 1
  20   12   13 1
  21   12   14 1
  22   12   15 1
  23   16   17 1
  24   16   36 1
  25   16   37 1
  26   17   18 1
  27   17   22 1
  28   18   19 1
  29   18   38 1
  30   18   39 1
  31   19   20 1
  32   19   40 1
  33   19   41 1
  34   20   21 1
  35   20   23 1
  36   20   26 1
  37   21   22 1
  38   21   42 1
  39   21   43 1
  40   22   44 1
  41   22   45 1
  42   23   24 1
  43   23   46 1
  44   23   47 1
  45   24   25 ar
  46   24   27 ar
  47   25   26 1
  48   25   30 ar
  49   27   28 ar
  50   27   48 1
  51   28   29 ar
  52   28   49 1
  53   29   30 ar
  54   29   50 1
  55   30   51 1

#	End of record

