#	Name: ASD01910517
#	Creating user name:	WinNT
#	Creation time:	15. 06. 2019 19:56

#	Modifying user name:	WinNT
#	Modification time:	15. 06. 2019 19:56

#	Program:	/corina/corina34_cracker 3.40 0067  02.08.2006

@<TRIPOS>MOLECULE
ASD01910517
  48   52    0    0    0
SMALL
NO_CHARGES


@<TRIPOS>ATOM
   1 N1             0.0806     0.1652     0.1034 N.2     
   2 C2             0.1253    -1.0142     0.6709 C.2     
   3 N3             1.4310    -1.3156     0.8611 N.2     
   4 C4             2.1000    -0.2919     0.3933 C.2     
   5 O5             1.2045     0.5905    -0.0613 O.3     
   6 C6            -1.0334    -1.8579     1.0361 C.2     
   7 C7            -2.3336    -1.5308     0.8341 C.2     
   8 C8            -3.1359    -2.6428     1.3398 C.ar    
   9 C9            -2.2239    -3.5972     1.8294 C.ar    
  10 N10           -0.9571    -3.0983     1.6278 N.pl3   
  11 C11            3.9968     1.1028     1.1781 C.3     
  12 C12            3.5989    -0.1372     0.3714 C.3     
  13 C13            4.0746     0.0252    -1.0741 C.3     
  14 C14            5.5997     0.1495    -1.1001 C.3     
  15 C15            6.0203     1.3928    -0.3100 C.3     
  16 N16            5.4443     1.3129     1.0392 N.am    
  17 C17            6.2289     1.4297     2.1288 C.2     
  18 C18            7.6926     1.5562     1.9749 C.ar    
  19 O19            5.7320     1.4310     3.2383 O.2     
  20 C20            8.2258     2.5042     1.0989 C.ar    
  21 C21            9.5923     2.6183     0.9595 C.ar    
  22 C22           10.4372     1.7940     1.6870 C.ar    
  23 C23            9.9131     0.8508     2.5578 C.ar    
  24 C24            8.5482     0.7322     2.7091 C.ar    
  25 F25           11.7759     1.9100     1.5465 F       
  26 C26           -4.5100    -2.8913     1.4114 C.ar    
  27 C27           -4.9603    -4.0597     1.9564 C.ar    
  28 C28           -4.0644    -5.0039     2.4405 C.ar    
  29 C29           -2.7066    -4.7807     2.3800 C.ar    
  30 H30           -2.7055    -0.6215     0.3853 H       
  31 H31           -0.1342    -3.5503     1.8718 H       
  32 H32            3.4629     1.9734     0.7971 H       
  33 H33            3.7488     0.9505     2.2285 H       
  34 H34            4.0627    -1.0208     0.8099 H       
  35 H35            3.7712    -0.8449    -1.6562 H       
  36 H36            3.6297     0.9226    -1.5041 H       
  37 H37            6.0447    -0.7368    -0.6477 H       
  38 H38            5.9397     0.2417    -2.1316 H       
  39 H39            7.1074     1.4317    -0.2415 H       
  40 H40            5.6515     2.2870    -0.8125 H       
  41 H41            7.5686     3.1464     0.5315 H       
  42 H42           10.0057     3.3508     0.2820 H       
  43 H43           10.5757     0.2111     3.1218 H       
  44 H44            8.1411    -0.0026     3.3879 H       
  45 H45           -5.2129    -2.1616     1.0374 H       
  46 H46           -6.0218    -4.2509     2.0117 H       
  47 H47           -4.4362    -5.9231     2.8686 H       
  48 H48           -2.0185    -5.5218     2.7591 H       
@<TRIPOS>BOND
   1    1    2 2
   2    1    5 1
   3    2    3 1
   4    2    6 1
   5    3    4 2
   6    4    5 1
   7    4   12 1
   8    6    7 2
   9    6   10 1
  10    7    8 1
  11    7   30 1
  12    8    9 ar
  13    8   26 ar
  14    9   10 1
  15    9   29 ar
  16   10   31 1
  17   11   12 1
  18   11   16 1
  19   11   32 1
  20   11   33 1
  21   12   13 1
  22   12   34 1
  23   13   14 1
  24   13   35 1
  25   13   36 1
  26   14   15 1
  27   14   37 1
  28   14   38 1
  29   15   16 1
  30   15   39 1
  31   15   40 1
  32   16   17 am
  33   17   18 1
  34   17   19 2
  35   18   20 ar
  36   18   24 ar
  37   20   21 ar
  38   20   41 1
  39   21   22 ar
  40   21   42 1
  41   22   23 ar
  42   22   25 1
  43   23   24 ar
  44   23   43 1
  45   24   44 1
  46   26   27 ar
  47   26   45 1
  48   27   28 ar
  49   27   46 1
  50   28   29 ar
  51   28   47 1
  52   29   48 1

#	End of record

