#	Name: ASD08178101
#	Creating user name:	WinNT
#	Creation time:	15. 06. 2019 21:18

#	Modifying user name:	WinNT
#	Modification time:	15. 06. 2019 21:18

#	Program:	/corina/corina34_cracker 3.40 0067  02.08.2006

@<TRIPOS>MOLECULE
ASD08178101
  73   76    0    0    0
SMALL
NO_CHARGES


@<TRIPOS>ATOM
   1 C1            -0.0184     1.5028     0.0103 C.2     
   2 C2             0.0021    -0.0041     0.0020 C.3     
   3 C3             0.0221    -0.5218     1.4416 C.3     
   4 C4             0.0906    -4.2741     3.3609 C.3     
   5 C5             0.1086    -4.6210     4.8273 C.2     
   6 N6            -0.9281    -4.8115     5.5801 N.2     
   7 N7            -0.7035    -5.0951     6.7896 N.2     
   8 C8             0.5358    -5.1706     7.1711 C.2     
   9 S9             1.5453    -4.8479     5.8252 S.3     
  10 N10            0.9711    -5.4695     8.4577 N.am    
  11 N11            1.0171     2.2809     0.0046 N.2     
  12 C12            0.0736    -5.7112     9.4337 C.2     
  13 O13           -1.1137    -5.6681     9.1899 O.2     
  14 C14            0.5452    -6.0351    10.8278 C.3     
  15 C15           -0.6469    -6.2610    11.7217 C.ar    
  16 N16            0.7904     3.5228     0.0134 N.2     
  17 C17           -0.4495     3.9094     0.0274 C.2     
  18 S18           -1.4568     2.5237     0.0218 S.3     
  19 C19           -2.3433    -7.7160    12.6007 C.ar    
  20 C20           -1.1440    -5.2237    12.4861 C.ar    
  21 C21           -2.2382    -5.4302    13.3062 C.ar    
  22 C22           -2.8369    -6.6750    13.3634 C.ar    
  23 C23           -1.2495    -7.5098    11.7730 C.ar    
  24 N24           -0.8870     5.2295     0.0390 N.am    
  25 C25            0.0089     6.2364     0.0358 C.2     
  26 O26            1.1967     5.9912     0.0228 O.2     
  27 C27           -0.4651     7.6668     0.0485 C.3     
  28 C28            0.7256     8.5906     0.0419 C.ar    
  29 C29            1.2195     9.0900     1.2312 C.ar    
  30 C30            2.3120     9.9378     1.2258 C.ar    
  31 C31            2.9129    10.2873     0.0308 C.ar    
  32 C32            2.4229     9.7900    -1.1615 C.ar    
  33 C33            1.3301     8.9357    -1.1584 C.ar    
  34 O34            0.8465     8.4449    -2.3298 O.3     
  35 C35            1.5124     8.8506    -3.5273 C.3     
  36 C36            0.8315     8.2020    -4.7342 C.3     
  37 O37           -0.7621    -8.5321    11.0218 O.3     
  38 C38           -1.4253    -9.7929    11.1337 C.3     
  39 C39           -0.7404   -10.8123    10.2212 C.3     
  40 C40            0.0684    -2.7531     3.1968 C.3     
  41 S41            0.0467    -2.3356     1.4317 S.3     
  42 H42           -0.8875    -0.3767    -0.5057 H       
  43 H43            0.8922    -0.3525    -0.5218 H       
  44 H44            0.9118    -0.1491     1.9494 H       
  45 H45           -0.8680    -0.1733     1.9655 H       
  46 H46            0.9818    -4.6784     2.8810 H       
  47 H47           -0.7979    -4.7026     2.8970 H       
  48 H48            1.9207    -5.5040     8.6527 H       
  49 H49            1.1575    -6.9366    10.8040 H       
  50 H50            1.1363    -5.2045    11.2136 H       
  51 H51           -2.8139    -8.6871    12.6427 H       
  52 H52           -0.6777    -4.2505    12.4437 H       
  53 H53           -2.6255    -4.6178    13.9032 H       
  54 H54           -3.6913    -6.8338    14.0046 H       
  55 H55           -1.8369     5.4256     0.0495 H       
  56 H56           -1.0758     7.8550    -0.8345 H       
  57 H57           -1.0583     7.8451     0.9454 H       
  58 H58            0.7519     8.8185     2.1661 H       
  59 H59            2.6963    10.3278     2.1568 H       
  60 H60            3.7658    10.9498     0.0292 H       
  61 H61            2.8924    10.0636    -2.0948 H       
  62 H62            1.4622     9.9353    -3.6213 H       
  63 H63            2.5556     8.5372    -3.4869 H       
  64 H64            0.8817     7.1173    -4.6402 H       
  65 H65           -0.2117     8.5154    -4.7746 H       
  66 H66            1.3394     8.5115    -5.6477 H       
  67 H67           -1.3763   -10.1389    12.1661 H       
  68 H68           -2.4683    -9.6825    10.8366 H       
  69 H69           -0.7894   -10.4663     9.1887 H       
  70 H70            0.3026   -10.9227    10.5182 H       
  71 H71           -1.2463   -11.7740    10.3065 H       
  72 H72           -0.8229    -2.3488     3.6768 H       
  73 H73            0.9569    -2.3246     3.6607 H       
@<TRIPOS>BOND
   1    1    2 1
   2    1   11 2
   3    1   18 1
   4    2    3 1
   5    2   42 1
   6    2   43 1
   7    3   41 1
   8    3   44 1
   9    3   45 1
  10    4    5 1
  11    4   40 1
  12    4   46 1
  13    4   47 1
  14    5    6 2
  15    5    9 1
  16    6    7 1
  17    7    8 2
  18    8    9 1
  19    8   10 1
  20   10   12 am
  21   10   48 1
  22   11   16 1
  23   12   13 2
  24   12   14 1
  25   14   15 1
  26   14   49 1
  27   14   50 1
  28   15   20 ar
  29   15   23 ar
  30   16   17 2
  31   17   18 1
  32   17   24 1
  33   19   23 ar
  34   19   22 ar
  35   19   51 1
  36   20   21 ar
  37   20   52 1
  38   21   22 ar
  39   21   53 1
  40   22   54 1
  41   23   37 1
  42   24   25 am
  43   24   55 1
  44   25   26 2
  45   25   27 1
  46   27   28 1
  47   27   56 1
  48   27   57 1
  49   28   29 ar
  50   28   33 ar
  51   29   30 ar
  52   29   58 1
  53   30   31 ar
  54   30   59 1
  55   31   32 ar
  56   31   60 1
  57   32   33 ar
  58   32   61 1
  59   33   34 1
  60   34   35 1
  61   35   36 1
  62   35   62 1
  63   35   63 1
  64   36   64 1
  65   36   65 1
  66   36   66 1
  67   37   38 1
  68   38   39 1
  69   38   67 1
  70   38   68 1
  71   39   69 1
  72   39   70 1
  73   39   71 1
  74   40   41 1
  75   40   72 1
  76   40   73 1

#	End of record

