#	Name: ASD09740646
#	Creating user name:	WinNT
#	Creation time:	15. 06. 2019 21:23

#	Modifying user name:	WinNT
#	Modification time:	15. 06. 2019 21:23

#	Program:	/corina/corina34_cracker 3.40 0067  02.08.2006

@<TRIPOS>MOLECULE
ASD09740646
  62   66    0    0    0
SMALL
NO_CHARGES


@<TRIPOS>ATOM
   1 N1            -0.0479     1.3589     0.6175 N.2     
   2 N2            -0.0456     0.1283     0.8927 N.2     
   3 C3             1.0819     2.0059     0.7242 C.2     
   4 S4             2.3139     0.8590     1.2541 S.3     
   5 C5             1.0855    -0.4078     1.2638 C.2     
   6 C6             1.2911     3.4431     0.4500 C.ar    
   7 C7             0.2234     4.2356     0.0362 C.ar    
   8 C8             2.5595     4.0080     0.6114 C.ar    
   9 C9             2.7604     5.3477     0.3570 C.ar    
  10 C10            1.7052     6.1456    -0.0612 C.ar    
  11 C11            0.4265     5.5905    -0.2211 C.ar    
  12 O12            1.9085     7.4637    -0.3098 O.3     
  13 C13            3.2549     7.9371    -0.2389 C.3     
  14 C14            3.3990     9.1953    -1.0975 C.3     
  15 C15            3.6032     8.2683     1.2137 C.3     
  16 C16           -0.6644     6.4114    -0.6530 C.1     
  17 N17           -1.5298     7.0626    -0.9957 N.1     
  18 C18            1.2992    -1.8245     1.6280 C.ar    
  19 C19            0.2309    -2.7251     1.5914 C.ar    
  20 C20            0.4370    -4.0462     1.9321 C.ar    
  21 C21            1.7004    -4.4744     2.3087 C.ar    
  22 C22            2.7602    -3.5874     2.3467 C.ar    
  23 C23            2.5683    -2.2654     2.0029 C.ar    
  24 C24           -1.2208    -2.5110     1.2209 C.3     
  25 C25           -1.7809    -3.9237     0.9507 C.3     
  26 C26           -0.8626    -4.8139     1.8148 C.3     
  27 N27           -1.4534    -5.0186     3.1397 N.am    
  28 C28           -1.1295    -6.1103     3.8606 C.2     
  29 O29           -0.4279    -6.9751     3.3723 O.2     
  30 N30           -1.5832    -6.2435     5.1226 N.am    
  31 C31           -2.5325    -5.2743     5.6926 C.3     
  32 C32           -3.7077    -6.0486     6.3002 C.3     
  33 O33           -3.2036    -7.0442     7.1938 O.3     
  34 C34           -2.3872    -8.0353     6.5654 C.3     
  35 C35           -1.1487    -7.3659     5.9693 C.3     
  36 H36           -0.7583     3.8021    -0.0852 H       
  37 H37            3.3851     3.3925     0.9369 H       
  38 H38            3.7428     5.7780     0.4840 H       
  39 H39            3.9311     7.1660    -0.6079 H       
  40 H40            2.7227     9.9664    -0.7284 H       
  41 H41            4.4260     9.5564    -1.0434 H       
  42 H42            3.1508     8.9593    -2.1323 H       
  43 H43            3.5006     7.3720     1.8254 H       
  44 H44            4.6302     8.6294     1.2677 H       
  45 H45            2.9270     9.0394     1.5827 H       
  46 H46            1.8581    -5.5092     2.5749 H       
  47 H47            3.7407    -3.9310     2.6416 H       
  48 H48            3.3960    -1.5722     2.0325 H       
  49 H49           -1.7569    -2.0430     2.0465 H       
  50 H50           -1.2955    -1.8965     0.3237 H       
  51 H51           -2.8168    -3.9996     1.2811 H       
  52 H52           -1.6895    -4.1816    -0.1044 H       
  53 H53           -0.6930    -5.7718     1.3233 H       
  54 H54           -2.0777    -4.3685     3.4981 H       
  55 H55           -2.0384    -4.6889     6.4680 H       
  56 H56           -2.8963    -4.6116     4.9074 H       
  57 H57           -4.3526    -5.3611     6.8476 H       
  58 H58           -4.2778    -6.5284     5.5047 H       
  59 H59           -2.0820    -8.7771     7.3034 H       
  60 H60           -2.9525    -8.5224     5.7708 H       
  61 H61           -0.5944    -8.0874     5.3691 H       
  62 H62           -0.5133    -6.9893     6.7710 H       
@<TRIPOS>BOND
   1    1    2 1
   2    1    3 2
   3    2    5 2
   4    3    4 1
   5    3    6 1
   6    4    5 1
   7    5   18 1
   8    6    7 ar
   9    6    8 ar
  10    7   11 ar
  11    7   36 1
  12    8    9 ar
  13    8   37 1
  14    9   10 ar
  15    9   38 1
  16   10   11 ar
  17   10   12 1
  18   11   16 1
  19   12   13 1
  20   13   14 1
  21   13   15 1
  22   13   39 1
  23   14   40 1
  24   14   41 1
  25   14   42 1
  26   15   43 1
  27   15   44 1
  28   15   45 1
  29   16   17 3
  30   18   19 ar
  31   18   23 ar
  32   19   20 ar
  33   19   24 1
  34   20   21 ar
  35   20   26 1
  36   21   22 ar
  37   21   46 1
  38   22   23 ar
  39   22   47 1
  40   23   48 1
  41   24   25 1
  42   24   49 1
  43   24   50 1
  44   25   26 1
  45   25   51 1
  46   25   52 1
  47   26   27 1
  48   26   53 1
  49   27   28 am
  50   27   54 1
  51   28   29 2
  52   28   30 am
  53   30   31 1
  54   30   35 1
  55   31   32 1
  56   31   55 1
  57   31   56 1
  58   32   33 1
  59   32   57 1
  60   32   58 1
  61   33   34 1
  62   34   35 1
  63   34   59 1
  64   34   60 1
  65   35   61 1
  66   35   62 1

#	End of record

