#	Name: ASD03092899
#	Creating user name:	WinNT
#	Creation time:	15. 06. 2019 20:33

#	Modifying user name:	WinNT
#	Modification time:	15. 06. 2019 20:33

#	Program:	/corina/corina34_cracker 3.40 0067  02.08.2006

@<TRIPOS>MOLECULE
ASD03092899
  47   50    0    0    0
SMALL
NO_CHARGES


@<TRIPOS>ATOM
   1 C1             0.9603    -0.8619     1.4676 C.3     
   2 N2             0.9081     0.0394     0.3139 N.am    
   3 C3             0.8518     1.4889     0.5187 C.3     
   4 C4             0.7994     1.9971     1.9609 C.3     
   5 C5             2.0780     2.1631     1.1373 C.3     
   6 C6             0.9119    -0.4649    -0.9360 C.2     
   7 O7             1.0516    -1.6609    -1.1088 O.2     
   8 C8             0.7471     0.4313    -2.0916 C.2     
   9 N9             0.7037     1.7313    -2.0309 N.2     
  10 C10            0.5524     2.3843    -3.1568 C.2     
  11 C11            0.4573     1.5874    -4.2808 C.2     
  12 S12            0.5866    -0.0929    -3.7647 S.3     
  13 C13            0.2830     2.0592    -5.6681 C.ar    
  14 C14           -0.7100     2.9928    -5.9723 C.ar    
  15 C15           -0.8671     3.4299    -7.2711 C.ar    
  16 C16           -0.0442     2.9462    -8.2730 C.ar    
  17 C17            0.9419     2.0208    -7.9815 C.ar    
  18 C18            1.1155     1.5777    -6.6843 C.ar    
  19 F19            2.0826     0.6785    -6.3991 F       
  20 S20           -0.2539     3.5114    -9.9286 S.o2    
  21 N21            0.7102     4.8446   -10.1172 N.am    
  22 O22            0.2884     2.5020   -10.7690 O.2     
  23 O23           -1.5954     3.9689   -10.0296 O.2     
  24 C24            0.4877     3.8636    -3.2193 C.ar    
  25 C25            1.1911     4.5536    -4.2059 C.ar    
  26 C26            1.1276     5.9308    -4.2596 C.ar    
  27 C27            0.3671     6.6277    -3.3360 C.ar    
  28 Cl28           0.2910     8.3604    -3.4095 Cl      
  29 C29           -0.3333     5.9475    -2.3543 C.ar    
  30 C30           -0.2812     4.5700    -2.2952 C.ar    
  31 H31           -0.0515    -1.0541     1.8246 H       
  32 H32            1.4265    -1.8023     1.1733 H       
  33 H33            1.5448    -0.4001     2.2634 H       
  34 H34            0.2953     2.0486    -0.2330 H       
  35 H35            0.2082     2.8913     2.1583 H       
  36 H36            0.8069     1.2529     2.7573 H       
  37 H37            2.9267     1.5282     1.3918 H       
  38 H38            2.3280     3.1666     0.7928 H       
  39 H39           -1.3538     3.3716    -5.1922 H       
  40 H40           -1.6351     4.1517    -7.5070 H       
  41 H41            1.5802     1.6474    -8.7686 H       
  42 H42            1.2487     5.1625    -9.3757 H       
  43 H43            0.7364     5.3076   -10.9692 H       
  44 H44            1.7849     4.0110    -4.9266 H       
  45 H45            1.6722     6.4663    -5.0231 H       
  46 H46           -0.9247     6.4959    -1.6360 H       
  47 H47           -0.8315     4.0401    -1.5317 H       
@<TRIPOS>BOND
   1    1    2 1
   2    1   31 1
   3    1   32 1
   4    1   33 1
   5    2    3 1
   6    2    6 am
   7    3    5 1
   8    3    4 1
   9    3   34 1
  10    4    5 1
  11    4   35 1
  12    4   36 1
  13    5   37 1
  14    5   38 1
  15    6    7 2
  16    6    8 1
  17    8   12 1
  18    8    9 2
  19    9   10 1
  20   10   11 2
  21   10   24 1
  22   11   12 1
  23   11   13 1
  24   13   18 ar
  25   13   14 ar
  26   14   15 ar
  27   14   39 1
  28   15   16 ar
  29   15   40 1
  30   16   17 ar
  31   16   20 1
  32   17   18 ar
  33   17   41 1
  34   18   19 1
  35   20   21 am
  36   20   22 2
  37   20   23 2
  38   21   42 1
  39   21   43 1
  40   24   30 ar
  41   24   25 ar
  42   25   26 ar
  43   25   44 1
  44   26   27 ar
  45   26   45 1
  46   27   28 1
  47   27   29 ar
  48   29   30 ar
  49   29   46 1
  50   30   47 1

#	End of record

