#	Name: ASD09116415
#	Creating user name:	WinNT
#	Creation time:	15. 06. 2019 21:21

#	Modifying user name:	WinNT
#	Modification time:	15. 06. 2019 21:21

#	Program:	/corina/corina34_cracker 3.40 0067  02.08.2006

@<TRIPOS>MOLECULE
ASD09116415
  80   86    0    0    0
SMALL
NO_CHARGES


@<TRIPOS>ATOM
   1 N1            -0.5524     5.2988     0.2989 N.2     
   2 N2            -1.0153     6.3037    -0.5657 N.pl3   
   3 C3             0.7385     5.1847     0.0969 C.2     
   4 N4             1.1116     6.0598    -0.8443 N.2     
   5 C5             0.0643     6.7428    -1.2543 C.2     
   6 N6             0.0661     7.7332    -2.2181 N.pl3   
   7 C7            -2.3290     6.7592    -0.6909 C.ar    
   8 N8             1.5859     4.2946     0.7566 N.pl3   
   9 C9             2.9636     4.3474     0.5346 C.ar    
  10 C10            3.5798     5.5557     0.2110 C.ar    
  11 C11            3.7374     3.1967     0.6393 C.ar    
  12 N12            5.0366     3.2372     0.4327 N.ar    
  13 C13            5.6579     4.3683     0.1178 C.ar    
  14 C14            4.9457     5.5628    -0.0001 C.ar    
  15 N15           -2.5658     7.9835    -1.1379 N.ar    
  16 N16           -3.7554     8.4545    -1.2629 N.ar    
  17 C17           -4.8221     7.7373    -0.9482 C.ar    
  18 C18           -4.6702     6.4262    -0.4881 C.ar    
  19 C19           -3.3943     5.9218    -0.3503 C.ar    
  20 C20           -6.1910     8.2960    -1.0397 C.ar    
  21 C21           -7.0498     8.1591     0.0520 C.ar    
  22 C22           -6.5477     7.5008     1.3078 C.3     
  23 C23           -6.4909     5.9831     1.1563 C.3     
  24 C24           -5.8848     5.5962    -0.1901 C.3     
  25 C25           -6.6262     8.9443    -2.1902 C.ar    
  26 C26           -7.9165     9.4339    -2.2526 C.ar    
  27 C27           -8.7710     9.2778    -1.1764 C.ar    
  28 C28           -8.3390     8.6406    -0.0260 C.ar    
  29 C29            7.1181     4.3629    -0.1041 C.2     
  30 C30            7.8023     3.2325     0.0113 C.2     
  31 C31            9.2922     3.2270    -0.2151 C.3     
  32 N32            9.9642     2.6593     0.9615 N.3     
  33 C33           11.3869     2.4179     0.6895 C.3     
  34 C34           12.0199     1.6952     1.8807 C.3     
  35 C35           11.8601     2.5557     3.1371 C.3     
  36 C36           10.3724     2.8328     3.3706 C.3     
  37 C37            9.7872     3.5226     2.1361 C.3     
  38 N38           12.4140     1.8413     4.2951 N.3     
  39 C39           13.8679     1.6447     4.1487 C.3     
  40 C40           14.5417     2.2797     5.3833 C.3     
  41 C41           13.4002     2.2978     6.4338 C.3     
  42 C42           12.1634     2.5868     5.5470 C.3     
  43 H43            0.8944     7.9798    -2.6585 H       
  44 H44           -0.7609     8.1818    -2.4541 H       
  45 H45            1.2183     3.6389     1.3697 H       
  46 H46            3.0030     6.4649     0.1269 H       
  47 H47            3.2667     2.2586     0.8937 H       
  48 H48            5.4548     6.4801    -0.2567 H       
  49 H49           -3.2245     4.9196     0.0148 H       
  50 H50           -5.5484     7.8744     1.5312 H       
  51 H51           -7.2139     7.7521     2.1330 H       
  52 H52           -5.8815     5.5651     1.9576 H       
  53 H53           -7.5003     5.5776     1.2253 H       
  54 H54           -6.6258     5.7507    -0.9744 H       
  55 H55           -5.6027     4.5435    -0.1669 H       
  56 H56           -5.9587     9.0648    -3.0307 H       
  57 H57           -8.2585     9.9398    -3.1434 H       
  58 H58           -9.7813     9.6553    -1.2338 H       
  59 H59           -9.0117     8.5210     0.8103 H       
  60 H60            7.6288     5.2794    -0.3603 H       
  61 H61            7.2917     2.3160     0.2676 H       
  62 H62            9.5242     2.6233    -1.0925 H       
  63 H63            9.6393     4.2479    -0.3744 H       
  64 H64           11.4864     1.8015    -0.2040 H       
  65 H65           11.8932     3.3703     0.5317 H       
  66 H66           11.5232     0.7366     2.0305 H       
  67 H67           13.0794     1.5301     1.6850 H       
  68 H68           12.3896     3.4989     3.0025 H       
  69 H69            9.8498     1.8921     3.5438 H       
  70 H70           10.2548     3.4805     4.2394 H       
  71 H71           10.3010     4.4697     1.9716 H       
  72 H72            8.7247     3.7085     2.2935 H       
  73 H73           14.0959     0.5796     4.1086 H       
  74 H74           14.2189     2.1358     3.2411 H       
  75 H75           15.3728     1.6644     5.7279 H       
  76 H76           14.8770     3.2928     5.1610 H       
  77 H77           13.3089     1.3305     6.9279 H       
  78 H78           13.5528     3.0939     7.1625 H       
  79 H79           12.0837     3.6546     5.3433 H       
  80 H80           11.2566     2.2230     6.0302 H       
@<TRIPOS>BOND
   1    1    2 1
   2    1    3 2
   3    2    7 1
   4    2    5 1
   5    3    4 1
   6    3    8 1
   7    4    5 2
   8    5    6 1
   9    6   43 1
  10    6   44 1
  11    7   15 ar
  12    7   19 ar
  13    8    9 1
  14    8   45 1
  15    9   10 ar
  16    9   11 ar
  17   10   14 ar
  18   10   46 1
  19   11   12 ar
  20   11   47 1
  21   12   13 ar
  22   13   14 ar
  23   13   29 1
  24   14   48 1
  25   15   16 ar
  26   16   17 ar
  27   17   18 ar
  28   17   20 1
  29   18   19 ar
  30   18   24 1
  31   19   49 1
  32   20   21 ar
  33   20   25 ar
  34   21   22 1
  35   21   28 ar
  36   22   23 1
  37   22   50 1
  38   22   51 1
  39   23   24 1
  40   23   52 1
  41   23   53 1
  42   24   54 1
  43   24   55 1
  44   25   26 ar
  45   25   56 1
  46   26   27 ar
  47   26   57 1
  48   27   28 ar
  49   27   58 1
  50   28   59 1
  51   29   30 2
  52   29   60 1
  53   30   31 1
  54   30   61 1
  55   31   32 1
  56   31   62 1
  57   31   63 1
  58   32   33 1
  59   32   37 1
  60   33   34 1
  61   33   64 1
  62   33   65 1
  63   34   35 1
  64   34   66 1
  65   34   67 1
  66   35   36 1
  67   35   38 1
  68   35   68 1
  69   36   37 1
  70   36   69 1
  71   36   70 1
  72   37   71 1
  73   37   72 1
  74   38   39 1
  75   38   42 1
  76   39   40 1
  77   39   73 1
  78   39   74 1
  79   40   41 1
  80   40   75 1
  81   40   76 1
  82   41   42 1
  83   41   77 1
  84   41   78 1
  85   42   79 1
  86   42   80 1

#	End of record

