#	Name: ASD03081194
#	Creating user name:	WinNT
#	Creation time:	15. 06. 2019 20:27

#	Modifying user name:	WinNT
#	Modification time:	15. 06. 2019 20:27

#	Program:	/corina/corina34_cracker 3.40 0067  02.08.2006

@<TRIPOS>MOLECULE
ASD03081194
  43   45    0    0    0
SMALL
NO_CHARGES


@<TRIPOS>ATOM
   1 C1             0.0301     1.5870    -0.0779 C.2     
   2 C2             0.1520     0.1218    -0.0264 C.2     
   3 C3             1.5323    -0.4713    -0.2305 C.3     
   4 C4             2.5222     0.4296     0.5236 C.3     
   5 C5             2.4523     1.8398    -0.0596 C.3     
   6 N6             1.0867     2.3433    -0.0817 N.2     
   7 C7            -1.5581     3.4282     0.4973 C.ar    
   8 C8            -1.3151     2.2083    -0.1323 C.ar    
   9 C9            -2.3606     1.5806    -0.8162 C.ar    
  10 C10           -3.5974     2.2020    -0.8378 C.ar    
  11 C11           -3.7579     3.4123    -0.1883 C.ar    
  12 N12           -2.7526     3.9808     0.4496 N.ar    
  13 C13           -0.9223    -0.6633     0.1943 C.2     
  14 C14           -0.8029    -2.1224     0.0737 C.ar    
  15 C15           -1.5515    -2.9635     0.9139 C.ar    
  16 C16           -1.4330    -4.3364     0.7930 C.ar    
  17 C17           -0.5774    -4.8793    -0.1553 C.ar    
  18 C18            0.1648    -4.0488    -0.9884 C.ar    
  19 C19            0.0526    -2.6810    -0.8824 C.ar    
  20 O20           -0.4640    -6.2274    -0.2701 O.3     
  21 C21            0.4341    -6.7205    -1.2662 C.3     
  22 O22           -2.3874    -2.4310     1.8412 O.3     
  23 C23           -3.1163    -3.3477     2.6601 C.3     
  24 H24            1.5664    -1.4826     0.1747 H       
  25 H25            1.7775    -0.4864    -1.2925 H       
  26 H26            2.2574     0.4582     1.5806 H       
  27 H27            3.5327     0.0371     0.4094 H       
  28 H28            3.0675     2.5059     0.5453 H       
  29 H29            2.8423     1.8237    -1.0773 H       
  30 H30           -0.7610     3.9222     1.0331 H       
  31 H31           -2.2071     0.6352    -1.3153 H       
  32 H32           -4.4280     1.7466    -1.3565 H       
  33 H33           -4.7215     3.8997    -0.2032 H       
  34 H34           -1.8704    -0.2192     0.4596 H       
  35 H35           -2.0065    -4.9863     1.4373 H       
  36 H36            0.8288    -4.4787    -1.7237 H       
  37 H37            0.6272    -2.0394    -1.5341 H       
  38 H38            0.4297    -7.8104    -1.2520 H       
  39 H39            0.1166    -6.3686    -2.2478 H       
  40 H40            1.4411    -6.3585    -1.0587 H       
  41 H41           -3.7423    -3.9794     2.0298 H       
  42 H42           -2.4177    -3.9704     3.2188 H       
  43 H43           -3.7449    -2.7924     3.3562 H       
@<TRIPOS>BOND
   1    1    2 1
   2    1    6 2
   3    1    8 1
   4    2    3 1
   5    2   13 2
   6    3    4 1
   7    3   24 1
   8    3   25 1
   9    4    5 1
  10    4   26 1
  11    4   27 1
  12    5    6 1
  13    5   28 1
  14    5   29 1
  15    7    8 ar
  16    7   12 ar
  17    7   30 1
  18    8    9 ar
  19    9   10 ar
  20    9   31 1
  21   10   11 ar
  22   10   32 1
  23   11   12 ar
  24   11   33 1
  25   13   14 1
  26   13   34 1
  27   14   15 ar
  28   14   19 ar
  29   15   16 ar
  30   15   22 1
  31   16   17 ar
  32   16   35 1
  33   17   18 ar
  34   17   20 1
  35   18   19 ar
  36   18   36 1
  37   19   37 1
  38   20   21 1
  39   21   38 1
  40   21   39 1
  41   21   40 1
  42   22   23 1
  43   23   41 1
  44   23   42 1
  45   23   43 1

#	End of record

