#	Name: ASD03091554
#	Creating user name:	WinNT
#	Creation time:	15. 06. 2019 20:30

#	Modifying user name:	WinNT
#	Modification time:	15. 06. 2019 20:30

#	Program:	/corina/corina34_cracker 3.40 0067  02.08.2006

@<TRIPOS>MOLECULE
ASD03091554
  34   35    0    0    0
SMALL
NO_CHARGES


@<TRIPOS>ATOM
   1 C1            -0.0167     1.3824     0.0096 C.ar    
   2 C2             0.0021    -0.0041     0.0020 C.ar    
   3 C3             1.2046    -0.6815    -0.0131 C.ar    
   4 C4             2.4062     0.0180    -0.0204 C.ar    
   5 C5             2.4068     1.3992    -0.0129 C.ar    
   6 C6             1.1923     2.0960     0.0019 C.ar    
   7 C7             1.1833     3.5639     0.0094 C.2     
   8 O8             0.1292     4.1639     0.0223 O.2     
   9 C9             2.4837     4.3254     0.0011 C.3     
  10 C10            2.1950     5.8279     0.0114 C.3     
  11 C11            3.4954     6.5894     0.0030 C.ar    
  12 C12            4.1087     6.9292     1.1990 C.ar    
  13 C13            4.0833     6.9463    -1.2007 C.ar    
  14 C14            5.2811     7.6471    -1.2057 C.ar    
  15 C15            5.8879     7.9888    -0.0123 C.ar    
  16 C16            5.3064     7.6300     1.1887 C.ar    
  17 O17            3.5372     6.5766     2.3805 O.3     
  18 O18           -1.1994     2.0471     0.0188 O.3     
  19 O19            3.5849    -0.6601    -0.0344 O.3     
  20 O20            3.4874     6.6097    -2.3747 O.3     
  21 H21           -0.9266    -0.5553     0.0083 H       
  22 H22            1.2122    -1.7614    -0.0190 H       
  23 H23            3.3415     1.9403    -0.0182 H       
  24 H24            3.0652     4.0611     0.8843 H       
  25 H25            3.0486     4.0701    -0.8955 H       
  26 H26            1.6135     6.0921    -0.8719 H       
  27 H27            1.6302     6.0832     0.9080 H       
  28 H28            5.7394     7.9254    -2.1432 H       
  29 H29            6.8202     8.5339    -0.0183 H       
  30 H30            5.7845     7.8950     2.1201 H       
  31 H31            3.8176     5.7120     2.7105 H       
  32 H32           -1.5381     2.2350     0.9049 H       
  33 H33            3.9179    -0.8517    -0.9218 H       
  34 H34            2.8686     7.2746    -2.7065 H       
@<TRIPOS>BOND
   1    1    2 ar
   2    1    6 ar
   3    1   18 1
   4    2    3 ar
   5    2   21 1
   6    3    4 ar
   7    3   22 1
   8    4    5 ar
   9    4   19 1
  10    5    6 ar
  11    5   23 1
  12    6    7 1
  13    7    8 2
  14    7    9 1
  15    9   10 1
  16    9   24 1
  17    9   25 1
  18   10   11 1
  19   10   26 1
  20   10   27 1
  21   11   13 ar
  22   11   12 ar
  23   12   16 ar
  24   12   17 1
  25   13   14 ar
  26   13   20 1
  27   14   15 ar
  28   14   28 1
  29   15   16 ar
  30   15   29 1
  31   16   30 1
  32   17   31 1
  33   18   32 1
  34   19   33 1
  35   20   34 1

#	End of record

