#	Name: ASD09200018
#	Creating user name:	WinNT
#	Creation time:	15. 06. 2019 21:21

#	Modifying user name:	WinNT
#	Modification time:	15. 06. 2019 21:21

#	Program:	/corina/corina34_cracker 3.40 0067  02.08.2006

@<TRIPOS>MOLECULE
ASD09200018
  59   62    0    0    0
SMALL
NO_CHARGES


@<TRIPOS>ATOM
   1 C1             0.2307     1.1660     0.1644 C.3     
   2 C2             0.4795    -0.3361     0.3123 C.3     
   3 C3             1.2641    -0.5728     1.6040 C.3     
   4 C4             2.6041     0.1625     1.5454 C.3     
   5 N5             2.4313     1.5678     1.2111 N.3     
   6 C6             1.5631     1.9141     0.0964 C.3     
   7 C7             2.2326     1.6779    -1.2564 C.3     
   8 C8             1.2475     3.4240     0.1968 C.3     
   9 C9             3.2310     0.0877     2.9563 C.3     
  10 C10            3.5557    -0.5501     0.5859 C.3     
  11 N11           -0.8108    -1.0319     0.3982 N.am    
  12 C12           -0.9041    -2.3260     0.0336 C.2     
  13 S13            0.2645    -3.2168    -0.4970 S.o     
  14 C14           -0.6605    -4.7117    -0.7321 C.2     
  15 C15           -1.9134    -4.3752    -0.3473 C.2     
  16 N16           -2.0120    -3.0742     0.0681 N.am    
  17 C17           -3.0532    -5.3138    -0.3680 C.ar    
  18 C18           -2.8698    -6.6281    -0.8004 C.ar    
  19 C19           -3.9479    -7.5049    -0.8167 C.ar    
  20 C20           -5.2074    -7.0678    -0.4012 C.ar    
  21 C21           -5.3853    -5.7649     0.0266 C.ar    
  22 C22           -4.3198    -4.8896     0.0515 C.ar    
  23 C23           -3.7611    -8.9034    -1.2755 C.ar    
  24 C24           -4.8411    -9.7841    -1.2926 C.ar    
  25 C25           -4.6615   -11.0839    -1.7203 C.ar    
  26 C26           -3.4125   -11.5131    -2.1315 C.ar    
  27 C27           -2.3368   -10.6434    -2.1163 C.ar    
  28 C28           -2.5062    -9.3397    -1.6964 C.ar    
  29 H29           -0.3360     1.3518    -0.7495 H       
  30 H30           -0.3431     1.5251     1.0203 H       
  31 H31            1.0299    -0.7169    -0.5428 H       
  32 H32            0.6856    -0.2045     2.4529 H       
  33 H33            1.4427    -1.6419     1.7297 H       
  34 H34            2.2430     2.1308     2.0270 H       
  35 H35            2.3953     0.6097    -1.3997 H       
  36 H36            1.5901     2.0573    -2.0510 H       
  37 H37            3.1900     2.1982    -1.2838 H       
  38 H38            2.1756     3.9934     0.1452 H       
  39 H39            0.5966     3.7147    -0.6277 H       
  40 H40            0.7479     3.6286     1.1437 H       
  41 H41            3.3790    -0.9561     3.2333 H       
  42 H42            4.1916     0.6029     2.9549 H       
  43 H43            2.5646     0.5635     3.6758 H       
  44 H44            3.0696    -0.6755    -0.3816 H       
  45 H45            4.4609     0.0447     0.4634 H       
  46 H46            3.8156    -1.5279     0.9914 H       
  47 H47           -1.5959    -0.5600     0.7173 H       
  48 H48            0.4401    -2.7690    -1.7531 H       
  49 H49           -0.3074    -5.6651    -1.0966 H       
  50 H50           -2.8571    -2.7062     0.3702 H       
  51 H51           -1.8942    -6.9623    -1.1214 H       
  52 H52           -6.0451    -7.7493    -0.4143 H       
  53 H53           -6.3618    -5.4326     0.3464 H       
  54 H54           -4.4645    -3.8731     0.3866 H       
  55 H55           -5.8166    -9.4501    -0.9714 H       
  56 H56           -5.4977   -11.7673    -1.7335 H       
  57 H57           -3.2765   -12.5312    -2.4655 H       
  58 H58           -1.3637   -10.9840    -2.4378 H       
  59 H59           -1.6658    -8.6615    -1.6849 H       
@<TRIPOS>BOND
   1    1    2 1
   2    1    6 1
   3    1   29 1
   4    1   30 1
   5    2    3 1
   6    2   11 1
   7    2   31 1
   8    3    4 1
   9    3   32 1
  10    3   33 1
  11    4    5 1
  12    4    9 1
  13    4   10 1
  14    5    6 1
  15    5   34 1
  16    6    7 1
  17    6    8 1
  18    7   35 1
  19    7   36 1
  20    7   37 1
  21    8   38 1
  22    8   39 1
  23    8   40 1
  24    9   41 1
  25    9   42 1
  26    9   43 1
  27   10   44 1
  28   10   45 1
  29   10   46 1
  30   11   12 am
  31   11   47 1
  32   12   13 2
  33   12   16 am
  34   13   14 1
  35   13   48 1
  36   14   15 2
  37   14   49 1
  38   15   16 1
  39   15   17 1
  40   16   50 1
  41   17   18 ar
  42   17   22 ar
  43   18   19 ar
  44   18   51 1
  45   19   20 ar
  46   19   23 1
  47   20   21 ar
  48   20   52 1
  49   21   22 ar
  50   21   53 1
  51   22   54 1
  52   23   24 ar
  53   23   28 ar
  54   24   25 ar
  55   24   55 1
  56   25   26 ar
  57   25   56 1
  58   26   27 ar
  59   26   57 1
  60   27   28 ar
  61   27   58 1
  62   28   59 1

#	End of record

