#	Name: ASD07931690
#	Creating user name:	WinNT
#	Creation time:	15. 06. 2019 21:13

#	Modifying user name:	WinNT
#	Modification time:	15. 06. 2019 21:13

#	Program:	/corina/corina34_cracker 3.40 0067  02.08.2006

@<TRIPOS>MOLECULE
ASD07931690
  57   61    0    0    0
SMALL
NO_CHARGES


@<TRIPOS>ATOM
   1 C1             0.1855     1.7670     1.6059 C.2     
   2 C2             0.1993     0.4314     1.9015 C.2     
   3 C3             1.4576    -0.3077     1.7729 C.2     
   4 N4             2.5641     0.3415     1.3710 N.am    
   5 C5             2.5240     1.6858     1.0772 C.2     
   6 C6             1.3668     2.3931     1.1893 C.2     
   7 C7             3.8436    -0.3680     1.2374 C.3     
   8 C8             4.5419     0.1446    -0.0310 C.3     
   9 N9             4.7593     1.5916     0.1086 N.am    
  10 C10            3.7687     2.3516     0.6335 C.2     
  11 C11            6.0237     2.2002    -0.3123 C.3     
  12 O12            1.5010    -1.4992     2.0281 O.2     
  13 N13           -0.9665    -0.2166     2.3195 N.pl3   
  14 C14           -2.1043    -0.4065     1.5779 C.2     
  15 C15           -1.1847    -0.7826     3.5356 C.2     
  16 N16           -2.3879    -1.2879     3.5488 N.2     
  17 C17           -2.9741    -1.0716     2.3617 C.2     
  18 C18           -4.3657    -1.4991     1.9724 C.3     
  19 C19            6.3281     1.8264    -1.7735 C.3     
  20 C20            7.1860     1.6442     0.5361 C.3     
  21 C21            7.7665     0.4934    -0.3228 C.3     
  22 C22            7.6647     1.0562    -1.7622 C.3     
  23 O23            3.8993     3.5559     0.7376 O.2     
  24 O24            9.1287     0.2385     0.0261 O.3     
  25 C25            9.6114    -1.0039    -0.2392 C.ar    
  26 C26           10.8870    -1.3573     0.1771 C.ar    
  27 C27            8.8276    -1.9227    -0.9215 C.ar    
  28 C28            9.3207    -3.1851    -1.1901 C.ar    
  29 C29           10.5939    -3.5330    -0.7789 C.ar    
  30 C30           11.3753    -2.6206    -0.0938 C.ar    
  31 C31            8.4698    -4.1838    -1.9314 C.3     
  32 F32            8.6947    -4.0584    -3.3065 F       
  33 F33            8.8049    -5.4783    -1.5201 F       
  34 F34            7.1197    -3.9417    -1.6557 F       
  35 H35           -0.7304     2.3332     1.6887 H       
  36 H36            1.3593     3.4473     0.9545 H       
  37 H37            4.4682    -0.1680     2.1080 H       
  38 H38            3.6633    -1.4395     1.1510 H       
  39 H39            5.5007    -0.3599    -0.1505 H       
  40 H40            3.9122    -0.0490    -0.8994 H       
  41 H41            5.9692     3.2838    -0.2076 H       
  42 H42           -2.2708    -0.0845     0.5606 H       
  43 H43           -0.4803    -0.8101     4.3539 H       
  44 H44           -5.0726    -0.7088     2.2252 H       
  45 H45           -4.4009    -1.6886     0.8996 H       
  46 H46           -4.6303    -2.4090     2.5110 H       
  47 H47            5.5350     1.1921    -2.1696 H       
  48 H48            6.4221     2.7286    -2.3779 H       
  49 H49            7.9396     2.4140     0.7019 H       
  50 H50            6.8152     1.2610     1.4868 H       
  51 H51            7.1643    -0.4090    -0.2174 H       
  52 H52            7.6432     0.2440    -2.4888 H       
  53 H53            8.4956     1.7311    -1.9676 H       
  54 H54           11.4976    -0.6451     0.7121 H       
  55 H55            7.8326    -1.6516    -1.2424 H       
  56 H56           10.9774    -4.5204    -0.9894 H       
  57 H57           12.3697    -2.8948     0.2263 H       
@<TRIPOS>BOND
   1    1    2 2
   2    1    6 1
   3    1   35 1
   4    2    3 1
   5    2   13 1
   6    3    4 am
   7    3   12 2
   8    4    5 1
   9    4    7 1
  10    5    6 2
  11    5   10 1
  12    6   36 1
  13    7    8 1
  14    7   37 1
  15    7   38 1
  16    8    9 1
  17    8   39 1
  18    8   40 1
  19    9   10 am
  20    9   11 1
  21   10   23 2
  22   11   19 1
  23   11   20 1
  24   11   41 1
  25   13   14 1
  26   13   15 1
  27   14   17 2
  28   14   42 1
  29   15   16 2
  30   15   43 1
  31   16   17 1
  32   17   18 1
  33   18   44 1
  34   18   45 1
  35   18   46 1
  36   19   22 1
  37   19   47 1
  38   19   48 1
  39   20   21 1
  40   20   49 1
  41   20   50 1
  42   21   22 1
  43   21   24 1
  44   21   51 1
  45   22   52 1
  46   22   53 1
  47   24   25 1
  48   25   26 ar
  49   25   27 ar
  50   26   30 ar
  51   26   54 1
  52   27   28 ar
  53   27   55 1
  54   28   29 ar
  55   28   31 1
  56   29   30 ar
  57   29   56 1
  58   30   57 1
  59   31   32 1
  60   31   33 1
  61   31   34 1

#	End of record

