#	Name: ASD03092014
#	Creating user name:	WinNT
#	Creation time:	15. 06. 2019 20:31

#	Modifying user name:	WinNT
#	Modification time:	15. 06. 2019 20:31

#	Program:	/corina/corina34_cracker 3.40 0067  02.08.2006

@<TRIPOS>MOLECULE
ASD03092014
  48   50    0    0    0
SMALL
NO_CHARGES


@<TRIPOS>ATOM
   1 N1            -0.0334     1.2254    -0.2319 N.pl3   
   2 C2            -0.0865    -0.1217    -0.0305 C.2     
   3 C3            -1.3935    -0.4513     0.1902 C.2     
   4 C4            -2.1495     0.7260     0.1205 C.2     
   5 N5            -1.3368     1.7272    -0.1263 N.2     
   6 C6             1.1735     2.0099    -0.5043 C.3     
   7 C7             1.4759     1.9703    -1.9801 C.2     
   8 N8             2.5482     2.6264    -2.4661 N.am    
   9 O9             0.7544     1.3481    -2.7305 O.2     
  10 C10            2.8422     2.5879    -3.9007 C.3     
  11 C11            3.4198     3.3780    -1.5596 C.3     
  12 N12           -3.5360     0.8199     0.2907 N.pl3   
  13 C13           -4.1543     2.0739     0.3132 C.ar    
  14 C14           -5.4868     2.1987    -0.0571 C.ar    
  15 C15           -6.0962     3.4401    -0.0335 C.ar    
  16 C16           -5.3767     4.5585     0.3597 C.ar    
  17 C17           -4.0483     4.4344     0.7286 C.ar    
  18 C18           -3.4380     3.1954     0.7117 C.ar    
  19 F19           -7.3924     3.5633    -0.3940 F       
  20 F20           -5.9729     5.7706     0.3825 F       
  21 C21            1.0609    -1.0553    -0.0478 C.ar    
  22 C22            2.2061    -0.7699     0.6960 C.ar    
  23 C23            3.2735    -1.6427     0.6779 C.ar    
  24 C24            3.2102    -2.8048    -0.0793 C.ar    
  25 C25            2.0728    -3.0930    -0.8217 C.ar    
  26 C26            0.9983    -2.2278    -0.8043 C.ar    
  27 Cl27          -0.4236    -2.5886    -1.7325 Cl      
  28 O28            4.2643    -3.6619    -0.0943 O.3     
  29 C29            4.1324    -4.8385    -0.8944 C.3     
  30 H30           -1.7759    -1.4427     0.3837 H       
  31 H31            1.0134     3.0424    -0.1937 H       
  32 H32            2.0127     1.5897     0.0500 H       
  33 H33            2.3382     3.4171    -4.3973 H       
  34 H34            3.9181     2.6728    -4.0535 H       
  35 H35            2.4891     1.6453    -4.3188 H       
  36 H36            4.2129     2.7257    -1.1941 H       
  37 H37            3.8594     4.2204    -2.0936 H       
  38 H38            2.8356     3.7472    -0.7167 H       
  39 H39           -4.0677     0.0151     0.3930 H       
  40 H40           -6.0466     1.3274    -0.3637 H       
  41 H41           -3.4896     5.3067     1.0342 H       
  42 H42           -2.4016     3.0999     1.0000 H       
  43 H43            2.2567     0.1338     1.2851 H       
  44 H44            4.1603    -1.4218     1.2533 H       
  45 H45            2.0275    -3.9978    -1.4097 H       
  46 H46            5.0420    -5.4342    -0.8174 H       
  47 H47            3.2835    -5.4244    -0.5419 H       
  48 H48            3.9711    -4.5545    -1.9344 H       
@<TRIPOS>BOND
   1    1    2 1
   2    1    6 1
   3    1    5 1
   4    2    3 2
   5    2   21 1
   6    3    4 1
   7    3   30 1
   8    4    5 2
   9    4   12 1
  10    6    7 1
  11    6   31 1
  12    6   32 1
  13    7    8 am
  14    7    9 2
  15    8   10 1
  16    8   11 1
  17   10   33 1
  18   10   34 1
  19   10   35 1
  20   11   36 1
  21   11   37 1
  22   11   38 1
  23   12   13 1
  24   12   39 1
  25   13   14 ar
  26   13   18 ar
  27   14   15 ar
  28   14   40 1
  29   15   16 ar
  30   15   19 1
  31   16   17 ar
  32   16   20 1
  33   17   18 ar
  34   17   41 1
  35   18   42 1
  36   21   22 ar
  37   21   26 ar
  38   22   23 ar
  39   22   43 1
  40   23   24 ar
  41   23   44 1
  42   24   25 ar
  43   24   28 1
  44   25   26 ar
  45   25   45 1
  46   26   27 1
  47   28   29 1
  48   29   46 1
  49   29   47 1
  50   29   48 1

#	End of record

