#	Name: ASD03091079
#	Creating user name:	WinNT
#	Creation time:	15. 06. 2019 20:30

#	Modifying user name:	WinNT
#	Modification time:	15. 06. 2019 20:30

#	Program:	/corina/corina34_cracker 3.40 0067  02.08.2006

@<TRIPOS>MOLECULE
ASD03091079
  53   56    0    0    0
SMALL
NO_CHARGES


@<TRIPOS>ATOM
   1 C1            -0.0395     1.4498    -0.3767 C.2     
   2 C2            -0.0083    -0.0162    -0.1860 C.ar    
   3 C3             1.2138    -0.6879    -0.1194 C.ar    
   4 C4             1.2404    -2.0559     0.0587 C.ar    
   5 C5             0.0598    -2.7661     0.1722 C.ar    
   6 C6            -1.1621    -2.1070     0.1073 C.ar    
   7 C7            -1.1994    -0.7316    -0.0662 C.ar    
   8 O8             0.4813     1.9464    -1.3563 O.2     
   9 N9            -0.6503     2.2348     0.5328 N.am    
  10 C10           -1.8646     5.7997     0.9493 C.3     
  11 C11           -1.8849     4.2751     1.0867 C.3     
  12 C12           -0.6812     3.6872     0.3438 C.3     
  13 C13            0.6030     4.3046     0.9058 C.3     
  14 C14            0.5272     5.8280     0.7754 C.3     
  15 O15           -0.6309     6.3066     1.4623 O.3     
  16 N16            2.4810     0.0674    -0.2403 N.pl3   
  17 O17            3.5415    -0.5283    -0.3032 O.2     
  18 O18            2.4633     1.2848    -0.2770 O.2     
  19 N19           -5.0884    -3.7007    -0.5027 N.3     
  20 C20           -4.8146    -2.6599     0.5000 C.3     
  21 C21           -3.5160    -1.9354     0.1813 C.3     
  22 N22           -2.3525    -2.8292     0.2220 N.3     
  23 C23           -2.4498    -3.8542    -0.8266 C.3     
  24 C24           -3.0825    -5.1220    -0.2726 C.3     
  25 C25           -4.5740    -4.9960    -0.0357 C.3     
  26 C26           -4.6996    -3.3973    -1.8632 C.3     
  27 C27           -3.1924    -3.2782    -2.0184 C.3     
  28 H28            2.1869    -2.5737     0.1092 H       
  29 H29            0.0870    -3.8368     0.3115 H       
  30 H30           -2.1476    -0.2168    -0.1128 H       
  31 H31           -1.0694     1.8381     1.3125 H       
  32 H32           -1.9600     6.0712    -0.1021 H       
  33 H33           -2.6950     6.2265     1.5118 H       
  34 H34           -1.8303     4.0037     2.1410 H       
  35 H35           -2.8060     3.8828     0.6558 H       
  36 H36           -0.7620     3.9150    -0.7191 H       
  37 H37            0.7079     4.0337     1.9564 H       
  38 H38            1.4612     3.9333     0.3456 H       
  39 H39            1.4199     6.2752     1.2127 H       
  40 H40            0.4631     6.0999    -0.2782 H       
  41 H41           -5.6345    -1.9417     0.5052 H       
  42 H42           -4.7361    -3.1214     1.4843 H       
  43 H43           -3.5908    -1.4983    -0.8144 H       
  44 H44           -3.3715    -1.1345     0.9065 H       
  45 H45           -1.4394    -4.0963    -1.1562 H       
  46 H46           -2.9080    -5.9360    -0.9763 H       
  47 H47           -2.5984    -5.3703     0.6719 H       
  48 H48           -4.7744    -5.0949     1.0311 H       
  49 H49           -5.0878    -5.7960    -0.5687 H       
  50 H50           -5.0610    -4.1894    -2.5191 H       
  51 H51           -5.1612    -2.4559    -2.1613 H       
  52 H52           -2.9293    -2.2257    -2.1248 H       
  53 H53           -2.8856    -3.8111    -2.9183 H       
@<TRIPOS>BOND
   1    1    2 1
   2    1    8 2
   3    1    9 am
   4    2    3 ar
   5    2    7 ar
   6    3    4 ar
   7    3   16 1
   8    4    5 ar
   9    4   28 1
  10    5    6 ar
  11    5   29 1
  12    6    7 ar
  13    6   22 1
  14    7   30 1
  15    9   12 1
  16    9   31 1
  17   10   11 1
  18   10   15 1
  19   10   32 1
  20   10   33 1
  21   11   12 1
  22   11   34 1
  23   11   35 1
  24   12   13 1
  25   12   36 1
  26   13   14 1
  27   13   37 1
  28   13   38 1
  29   14   15 1
  30   14   39 1
  31   14   40 1
  32   16   17 2
  33   16   18 2
  34   19   20 1
  35   19   25 1
  36   19   26 1
  37   20   21 1
  38   20   41 1
  39   20   42 1
  40   21   22 1
  41   21   43 1
  42   21   44 1
  43   22   23 1
  44   23   24 1
  45   23   27 1
  46   23   45 1
  47   24   25 1
  48   24   46 1
  49   24   47 1
  50   25   48 1
  51   25   49 1
  52   26   27 1
  53   26   50 1
  54   26   51 1
  55   27   52 1
  56   27   53 1

#	End of record

