#	Name: ASD01120016
#	Creating user name:	WinNT
#	Creation time:	15. 06. 2019 18:58

#	Modifying user name:	WinNT
#	Modification time:	15. 06. 2019 18:58

#	Program:	/corina/corina34_cracker 3.40 0067  02.08.2006

@<TRIPOS>MOLECULE
ASD01120016
  50   53    0    0    0
SMALL
NO_CHARGES


@<TRIPOS>ATOM
   1 C1            -0.0905     1.3502     0.6499 C.ar    
   2 C2            -0.0522    -0.0389     0.4659 C.ar    
   3 C3            -1.1844    -0.7311     0.0969 C.ar    
   4 C4            -2.3851    -0.0372    -0.0957 C.ar    
   5 C5            -2.4161     1.3670     0.0921 C.ar    
   6 C6            -1.2524     2.0462     0.4722 C.ar    
   7 N7            -3.5158    -0.6646    -0.4558 N.ar    
   8 C8            -4.6258     0.0126    -0.6294 C.ar    
   9 N9            -4.7020     1.3238    -0.4658 N.ar    
  10 C10           -3.6440     2.0408    -0.1104 C.ar    
  11 N11           -3.7382     3.4079     0.0570 N.pl3   
  12 C12           -4.9822     4.0392    -0.0337 C.ar    
  13 C13           -6.1281     3.3762     0.3790 C.ar    
  14 C14           -7.3653     4.0094     0.2867 C.ar    
  15 C15           -7.4445     5.3058    -0.2201 C.ar    
  16 C16           -6.2988     5.9588    -0.6293 C.ar    
  17 C17           -5.0703     5.3338    -0.5323 C.ar    
  18 C18           -8.5951     3.3062     0.7257 C.2     
  19 O19            1.0403     2.0115     1.0146 O.3     
  20 O20            1.1142    -0.7096     0.6531 O.3     
  21 C21           -9.8114     3.8736     0.6569 C.2     
  22 S22          -10.9951     2.7211     1.2691 S.3     
  23 C23           -9.7100     1.5550     1.5676 C.2     
  24 N24           -8.5723     2.0656     1.2110 N.2     
  25 C25            0.9375     3.4264     1.1866 C.3     
  26 C26            2.3000     3.9910     1.5938 C.3     
  27 C27            1.0891    -2.1240     0.4504 C.3     
  28 C28            2.4831    -2.7006     0.7054 C.3     
  29 N29           -9.8874     0.2866     2.0960 N.pl3   
  30 H30           -1.1462    -1.8013    -0.0430 H       
  31 H31           -1.2714     3.1163     0.6165 H       
  32 H32           -5.5173    -0.5238    -0.9190 H       
  33 H33           -2.9412     3.9305     0.2376 H       
  34 H34           -6.0615     2.3719     0.7706 H       
  35 H35           -8.4024     5.7993    -0.2930 H       
  36 H36           -6.3626     6.9627    -1.0222 H       
  37 H37           -4.1771     5.8491    -0.8535 H       
  38 H38          -10.0264     4.8661     0.2892 H       
  39 H39            0.6198     3.8842     0.2498 H       
  40 H40            0.2062     3.6457     1.9645 H       
  41 H41            2.6177     3.5333     2.5306 H       
  42 H42            3.0314     3.7717     0.8159 H       
  43 H43            2.2216     5.0703     1.7250 H       
  44 H44            0.3767    -2.5772     1.1398 H       
  45 H45            0.7891    -2.3387    -0.5753 H       
  46 H46            3.1955    -2.2474     0.0160 H       
  47 H47            2.7831    -2.4858     1.7311 H       
  48 H48            2.4639    -3.7794     0.5508 H       
  49 H49          -10.7766    -0.0202     2.3327 H       
  50 H50           -9.1223    -0.2947     2.2291 H       
@<TRIPOS>BOND
   1    1    2 ar
   2    1   19 1
   3    1    6 ar
   4    2    3 ar
   5    2   20 1
   6    3    4 ar
   7    3   30 1
   8    4    5 ar
   9    4    7 ar
  10    5    6 ar
  11    5   10 ar
  12    6   31 1
  13    7    8 ar
  14    8    9 ar
  15    8   32 1
  16    9   10 ar
  17   10   11 1
  18   11   12 1
  19   11   33 1
  20   12   13 ar
  21   12   17 ar
  22   13   14 ar
  23   13   34 1
  24   14   15 ar
  25   14   18 1
  26   15   16 ar
  27   15   35 1
  28   16   17 ar
  29   16   36 1
  30   17   37 1
  31   18   21 2
  32   18   24 1
  33   19   25 1
  34   20   27 1
  35   21   22 1
  36   21   38 1
  37   22   23 1
  38   23   24 2
  39   23   29 1
  40   25   26 1
  41   25   39 1
  42   25   40 1
  43   26   41 1
  44   26   42 1
  45   26   43 1
  46   27   28 1
  47   27   44 1
  48   27   45 1
  49   28   46 1
  50   28   47 1
  51   28   48 1
  52   29   49 1
  53   29   50 1

#	End of record

