#	Name: ASD06170019
#	Creating user name:	WinNT
#	Creation time:	15. 06. 2019 21:05

#	Modifying user name:	WinNT
#	Modification time:	15. 06. 2019 21:05

#	Program:	/corina/corina34_cracker 3.40 0067  02.08.2006

@<TRIPOS>MOLECULE
ASD06170019
  65   70    0    0    0
SMALL
NO_CHARGES


@<TRIPOS>ATOM
   1 N1             0.8261     0.6795    -0.2415 N.pl3   
   2 N2             0.6615    -0.4362    -1.0673 N.am    
   3 C3             1.8709    -0.8365    -1.5083 C.2     
   4 C4             2.8624     0.0793    -0.9282 C.2     
   5 C5             2.1496     0.9943    -0.1541 C.2     
   6 C6             4.3145     0.0391    -1.1243 C.2     
   7 O7             5.0149     0.9238    -0.6683 O.2     
   8 N8             4.8740    -0.9777    -1.8096 N.am    
   9 C9             2.7273     2.1095     0.6236 C.ar    
  10 C10            2.3097     3.4172     0.3736 C.ar    
  11 C11            2.8609     4.4519     1.1114 C.ar    
  12 C12            3.8108     4.1454     2.0741 C.ar    
  13 C13            4.1790     2.8238     2.2696 C.ar    
  14 N14            3.6365     1.8590     1.5595 N.ar    
  15 C15           -0.5598    -1.0396    -1.3842 C.ar    
  16 C16           -0.8527    -1.3680    -2.7015 C.ar    
  17 C17           -2.0594    -1.9642    -3.0110 C.ar    
  18 C18           -2.9755    -2.2342    -2.0110 C.ar    
  19 C19           -2.6870    -1.9084    -0.6985 C.ar    
  20 C20           -1.4800    -1.3168    -0.3815 C.ar    
  21 O21            2.0980    -1.7776    -2.2459 O.2     
  22 C22           -0.2593     1.4043     0.4240 C.3     
  23 C23            6.2624    -1.0886    -1.8830 C.ar    
  24 C24            7.0539     0.0360    -1.6772 C.ar    
  25 C25            8.4296    -0.0852    -1.7523 C.ar    
  26 C26            8.9710    -1.3374    -2.0329 C.ar    
  27 C27            8.1203    -2.4138    -2.2265 C.ar    
  28 N28            6.8122    -2.2639    -2.1423 N.ar    
  29 O29           10.3182    -1.5015    -2.1163 O.3     
  30 N30           12.4501    -1.6573     1.4107 N.ar    
  31 C31           11.1387    -1.6115     1.4336 C.ar    
  32 C32           10.3874    -1.5574     0.2666 C.ar    
  33 C33           11.0258    -1.5524    -0.9613 C.ar    
  34 C34           12.4383    -1.6025    -0.9740 C.ar    
  35 C35           13.1553    -1.6004    -2.1794 C.ar    
  36 C36           14.5151    -1.6489    -2.1587 C.ar    
  37 C37           15.2105    -1.7011    -0.9472 C.ar    
  38 C38           14.5355    -1.7050     0.2525 C.ar    
  39 C39           13.1324    -1.6551     0.2594 C.ar    
  40 O40           16.5680    -1.7488    -0.9538 O.3     
  41 C41           17.2111    -1.7425    -2.2299 C.3     
  42 H42            4.3111    -1.6323    -2.2518 H       
  43 H43            1.5676     3.6198    -0.3845 H       
  44 H44            2.5580     5.4744     0.9405 H       
  45 H45            4.2597     4.9295     2.6658 H       
  46 H46            4.9186     2.5823     3.0187 H       
  47 H47           -0.1377    -1.1571    -3.4830 H       
  48 H48           -2.2878    -2.2195    -4.0352 H       
  49 H49           -3.9186    -2.7001    -2.2558 H       
  50 H50           -3.4049    -2.1202     0.0802 H       
  51 H51           -1.2536    -1.0664     0.6444 H       
  52 H52           -1.2180     0.9931     0.1080 H       
  53 H53           -0.1573     1.2995     1.5042 H       
  54 H54           -0.2101     2.4594     0.1551 H       
  55 H55            6.6001     0.9921    -1.4619 H       
  56 H56            9.0690     0.7713    -1.5973 H       
  57 H57            8.5329    -3.3877    -2.4448 H       
  58 H58           10.6297    -1.6152     2.3861 H       
  59 H59            9.3092    -1.5211     0.3172 H       
  60 H60           12.6294    -1.5608    -3.1219 H       
  61 H61           15.0635    -1.6475    -3.0892 H       
  62 H62           15.0821    -1.7455     1.1831 H       
  63 H63           16.9476    -0.8302    -2.7651 H       
  64 H64           18.2916    -1.7838    -2.0924 H       
  65 H65           16.8848    -2.6086    -2.8056 H       
@<TRIPOS>BOND
   1    1    2 1
   2    1    5 1
   3    1   22 1
   4    2    3 am
   5    2   15 1
   6    3    4 1
   7    3   21 2
   8    4    5 2
   9    4    6 1
  10    5    9 1
  11    6    7 2
  12    6    8 am
  13    8   23 1
  14    8   42 1
  15    9   10 ar
  16    9   14 ar
  17   10   11 ar
  18   10   43 1
  19   11   12 ar
  20   11   44 1
  21   12   13 ar
  22   12   45 1
  23   13   14 ar
  24   13   46 1
  25   15   16 ar
  26   15   20 ar
  27   16   17 ar
  28   16   47 1
  29   17   18 ar
  30   17   48 1
  31   18   19 ar
  32   18   49 1
  33   19   20 ar
  34   19   50 1
  35   20   51 1
  36   22   52 1
  37   22   53 1
  38   22   54 1
  39   23   24 ar
  40   23   28 ar
  41   24   25 ar
  42   24   55 1
  43   25   26 ar
  44   25   56 1
  45   26   27 ar
  46   26   29 1
  47   27   28 ar
  48   27   57 1
  49   29   33 1
  50   30   31 ar
  51   30   39 ar
  52   31   32 ar
  53   31   58 1
  54   32   33 ar
  55   32   59 1
  56   33   34 ar
  57   34   35 ar
  58   34   39 ar
  59   35   36 ar
  60   35   60 1
  61   36   37 ar
  62   36   61 1
  63   37   38 ar
  64   37   40 1
  65   38   39 ar
  66   38   62 1
  67   40   41 1
  68   41   63 1
  69   41   64 1
  70   41   65 1

#	End of record

