#	Name: ASD00450020
#	Creating user name:	WinNT
#	Creation time:	15. 06. 2019 18:36

#	Modifying user name:	WinNT
#	Modification time:	15. 06. 2019 18:36

#	Program:	/corina/corina34_cracker 3.40 0067  02.08.2006

@<TRIPOS>MOLECULE
ASD00450020
  59   62    0    0    0
SMALL
NO_CHARGES


@<TRIPOS>ATOM
   1 C1             0.1514     1.2428     1.0565 C.ar    
   2 C2             0.2988     0.3472     2.1390 C.ar    
   3 C3             1.5730     0.0945     2.6523 C.ar    
   4 C4             2.6618     0.7121     2.1066 C.ar    
   5 C5             2.5221     1.5973     1.0376 C.ar    
   6 C6             1.2705     1.8659     0.5094 C.ar    
   7 C7            -1.2047     1.4907     0.5446 C.2     
   8 N8            -2.2270     0.8406     1.1481 N.am    
   9 C9            -1.9920    -0.0054     2.1860 C.2     
  10 N10           -0.8063    -0.2474     2.6555 N.2     
  11 O11           -1.4004     2.2514    -0.3855 O.2     
  12 N12            3.6523     2.2170     0.4964 N.pl3   
  13 C13            4.8328     1.4900     0.3250 C.ar    
  14 C14            6.0021     2.1404    -0.0505 C.ar    
  15 C15            7.1699     1.4219    -0.2202 C.ar    
  16 C16            7.1794     0.0553    -0.0180 C.ar    
  17 C17            6.0135    -0.6014     0.3571 C.ar    
  18 C18            4.8405     0.1177     0.5349 C.ar    
  19 C19            5.9961     3.6308    -0.2731 C.3     
  20 N20            6.0240    -1.9849     0.5606 N.am    
  21 C21            7.0917    -2.5735     1.1352 C.2     
  22 C22            7.1521    -4.0460     1.2481 C.ar    
  23 O23            8.0050    -1.8932     1.5606 O.2     
  24 C24            8.2563    -4.6587     1.8426 C.ar    
  25 C25            8.3065    -6.0337     1.9447 C.ar    
  26 C26            7.2656    -6.8049     1.4592 C.ar    
  27 C27            6.1679    -6.2038     0.8686 C.ar    
  28 C28            6.1024    -4.8299     0.7657 C.ar    
  29 C29            9.4979    -6.6970     2.5863 C.3     
  30 C30            9.6294    -6.2311     3.9764 C.1     
  31 C31            9.3051    -8.2148     2.5732 C.3     
  32 C32           10.7637    -6.3370     1.8059 C.3     
  33 C33           -3.5988     1.0508     0.6791 C.3     
  34 N34            9.7308    -5.8716     5.0492 N.1     
  35 H35            1.6969    -0.5882     3.4800 H       
  36 H36            3.6443     0.5127     2.5083 H       
  37 H37            1.1633     2.5511    -0.3185 H       
  38 H38           -2.8347    -0.5047     2.6408 H       
  39 H39            3.6168     3.1518     0.2399 H       
  40 H40            8.0773     1.9297    -0.5120 H       
  41 H41            8.0939    -0.5034    -0.1519 H       
  42 H42            3.9344    -0.3895     0.8314 H       
  43 H43            6.2296     4.1389     0.6625 H       
  44 H44            6.7437     3.8891    -1.0232 H       
  45 H45            5.0108     3.9425    -0.6197 H       
  46 H46            5.2628    -2.5210     0.2883 H       
  47 H47            9.0699    -4.0578     2.2214 H       
  48 H48            7.3102    -7.8809     1.5410 H       
  49 H49            5.3589    -6.8116     0.4913 H       
  50 H50            5.2431    -4.3618     0.3087 H       
  51 H51            9.2077    -8.5598     1.5438 H       
  52 H52           10.1668    -8.6945     3.0372 H       
  53 H53            8.4033    -8.4713     3.1292 H       
  54 H54           10.9010    -5.2557     1.8152 H       
  55 H55           11.6254    -6.8167     2.2699 H       
  56 H56           10.6663    -6.6820     0.7765 H       
  57 H57           -3.8328     0.3228    -0.0976 H       
  58 H58           -4.2906     0.9280     1.5125 H       
  59 H59           -3.6938     2.0580     0.2735 H       
@<TRIPOS>BOND
   1    1    2 ar
   2    1    6 ar
   3    1    7 1
   4    2    3 ar
   5    2   10 1
   6    3    4 ar
   7    3   35 1
   8    4    5 ar
   9    4   36 1
  10    5    6 ar
  11    5   12 1
  12    6   37 1
  13    7    8 am
  14    7   11 2
  15    8    9 1
  16    8   33 1
  17    9   10 2
  18    9   38 1
  19   12   13 1
  20   12   39 1
  21   13   14 ar
  22   13   18 ar
  23   14   15 ar
  24   14   19 1
  25   15   16 ar
  26   15   40 1
  27   16   17 ar
  28   16   41 1
  29   17   18 ar
  30   17   20 1
  31   18   42 1
  32   19   43 1
  33   19   44 1
  34   19   45 1
  35   20   21 am
  36   20   46 1
  37   21   22 1
  38   21   23 2
  39   22   24 ar
  40   22   28 ar
  41   24   25 ar
  42   24   47 1
  43   25   26 ar
  44   25   29 1
  45   26   27 ar
  46   26   48 1
  47   27   28 ar
  48   27   49 1
  49   28   50 1
  50   29   30 1
  51   29   31 1
  52   29   32 1
  53   30   34 3
  54   31   51 1
  55   31   52 1
  56   31   53 1
  57   32   54 1
  58   32   55 1
  59   32   56 1
  60   33   57 1
  61   33   58 1
  62   33   59 1

#	End of record

