#	Name: ASD00170415
#	Creating user name:	WinNT
#	Creation time:	15. 06. 2019 18:32

#	Modifying user name:	WinNT
#	Modification time:	15. 06. 2019 18:32

#	Program:	/corina/corina34_cracker 3.40 0067  02.08.2006

@<TRIPOS>MOLECULE
ASD00170415
  70   74    0    0    0
SMALL
NO_CHARGES


@<TRIPOS>ATOM
   1 C1            -0.4425     0.7753    -0.3099 C.2     
   2 C2            -0.6395    -0.5098     0.1466 C.2     
   3 C3            -1.9982    -0.9642    -0.0299 C.2     
   4 C4            -2.7873    -0.0451    -0.6001 C.2     
   5 S5            -1.8882     1.4232    -0.9375 S.3     
   6 C6            -2.4786    -2.3311     0.3847 C.3     
   7 C7            -4.2214    -0.2390    -0.8993 C.ar    
   8 C8            -5.1519     0.7341    -0.5308 C.ar    
   9 C9            -6.4898     0.5481    -0.8126 C.ar    
  10 C10           -6.9111    -0.5997    -1.4589 C.ar    
  11 C11           -5.9934    -1.5708    -1.8276 C.ar    
  12 C12           -4.6503    -1.3934    -1.5566 C.ar    
  13 N13            0.7596     1.4476    -0.2602 N.pl3   
  14 C14            0.4163    -1.3269     0.7464 C.2     
  15 C15            1.2144    -2.2405    -0.0990 C.ar    
  16 O16            0.6374    -1.2544     1.9416 O.2     
  17 C17            2.2925    -2.9390     0.4479 C.ar    
  18 C18            3.0328    -3.7900    -0.3454 C.ar    
  19 C19            2.7087    -3.9525    -1.6822 C.ar    
  20 C20            1.6402    -3.2622    -2.2304 C.ar    
  21 C21            0.8893    -2.4125    -1.4458 C.ar    
  22 Cl22           3.6457    -5.0251    -2.6748 Cl      
  23 N23           -2.2607    -2.5103     1.8264 N.3     
  24 C24           -3.3077    -1.8354     2.6049 C.3     
  25 C25           -3.1109    -0.3205     2.5186 C.3     
  26 C26           -4.2014     0.3825     3.3295 C.3     
  27 C27           -5.5747     0.0136     2.7648 C.3     
  28 C28           -5.7715    -1.5013     2.8511 C.3     
  29 C29           -4.6810    -2.2042     2.0402 C.3     
  30 C30           -2.1825    -3.9355     2.1738 C.3     
  31 C31           -0.9630    -4.5602     1.4929 C.3     
  32 C32           -0.8815    -6.0446     1.8548 C.3     
  33 C33           -0.7504    -6.1932     3.3719 C.3     
  34 C34           -1.9698    -5.5684     4.0528 C.3     
  35 C35           -2.0513    -4.0841     3.6909 C.3     
  36 F36           -6.4121    -2.6898    -2.4584 F       
  37 H37           -3.5418    -2.4252     0.1635 H       
  38 H38           -1.9246    -3.0928    -0.1639 H       
  39 H39           -4.8252     1.6311    -0.0257 H       
  40 H40           -7.2100     1.3007    -0.5273 H       
  41 H41           -7.9595    -0.7401    -1.6770 H       
  42 H42           -3.9354    -2.1501    -1.8440 H       
  43 H43            1.5229     1.0444     0.1821 H       
  44 H44            0.8423     2.3241    -0.6675 H       
  45 H45            2.5463    -2.8129     1.4900 H       
  46 H46            3.8672    -4.3306     0.0764 H       
  47 H47            1.3924    -3.3926    -3.2735 H       
  48 H48            0.0562    -1.8750    -1.8743 H       
  49 H49           -3.2464    -2.1509     3.6464 H       
  50 H50           -2.1326    -0.0577     2.9209 H       
  51 H51           -3.1722    -0.0050     1.4771 H       
  52 H52           -4.1401     0.0669     4.3710 H       
  53 H53           -4.0612     1.4617     3.2680 H       
  54 H54           -6.3516     0.5144     3.3425 H       
  55 H55           -5.6360     0.3291     1.7232 H       
  56 H56           -5.7102    -1.8168     3.8926 H       
  57 H57           -6.7498    -1.7641     2.4488 H       
  58 H58           -4.7423    -1.8887     0.9987 H       
  59 H59           -4.8212    -3.2834     2.1017 H       
  60 H60           -3.0865    -4.4420     1.8359 H       
  61 H61           -1.0565    -4.4544     0.4121 H       
  62 H62           -0.0590    -4.0537     1.8308 H       
  63 H63           -1.7856    -6.5511     1.5169 H       
  64 H64           -0.0128    -6.4897     1.3697 H       
  65 H65           -0.6924    -7.2507     3.6297 H       
  66 H66            0.1536    -5.6867     3.7098 H       
  67 H67           -2.8739    -6.0750     3.7149 H       
  68 H68           -1.8764    -5.6743     5.1336 H       
  69 H69           -1.1473    -3.5776     4.0288 H       
  70 H70           -2.9201    -3.6390     4.1760 H       
@<TRIPOS>BOND
   1    1    2 2
   2    1   13 1
   3    1    5 1
   4    2    3 1
   5    2   14 1
   6    3    4 2
   7    3    6 1
   8    4    5 1
   9    4    7 1
  10    6   23 1
  11    6   37 1
  12    6   38 1
  13    7    8 ar
  14    7   12 ar
  15    8    9 ar
  16    8   39 1
  17    9   10 ar
  18    9   40 1
  19   10   11 ar
  20   10   41 1
  21   11   12 ar
  22   11   36 1
  23   12   42 1
  24   13   43 1
  25   13   44 1
  26   14   15 1
  27   14   16 2
  28   15   17 ar
  29   15   21 ar
  30   17   18 ar
  31   17   45 1
  32   18   19 ar
  33   18   46 1
  34   19   20 ar
  35   19   22 1
  36   20   21 ar
  37   20   47 1
  38   21   48 1
  39   23   24 1
  40   23   30 1
  41   24   25 1
  42   24   29 1
  43   24   49 1
  44   25   26 1
  45   25   50 1
  46   25   51 1
  47   26   27 1
  48   26   52 1
  49   26   53 1
  50   27   28 1
  51   27   54 1
  52   27   55 1
  53   28   29 1
  54   28   56 1
  55   28   57 1
  56   29   58 1
  57   29   59 1
  58   30   31 1
  59   30   35 1
  60   30   60 1
  61   31   32 1
  62   31   61 1
  63   31   62 1
  64   32   33 1
  65   32   63 1
  66   32   64 1
  67   33   34 1
  68   33   65 1
  69   33   66 1
  70   34   35 1
  71   34   67 1
  72   34   68 1
  73   35   69 1
  74   35   70 1

#	End of record

