#	Name: ASD01883688
#	Creating user name:	WinNT
#	Creation time:	15. 06. 2019 19:46

#	Modifying user name:	WinNT
#	Modification time:	15. 06. 2019 19:46

#	Program:	/corina/corina34_cracker 3.40 0067  02.08.2006

@<TRIPOS>MOLECULE
ASD01883688
  49   52    0    0    0
SMALL
NO_CHARGES


@<TRIPOS>ATOM
   1 C1             0.7382     2.1236    -0.6179 C.2     
   2 C2             0.5527     0.7379    -0.7150 C.2     
   3 C3            -0.7397     0.2373    -0.9747 C.2     
   4 C4            -1.7875     1.0689    -1.1290 C.2     
   5 N5            -1.6518     2.4238    -1.0429 N.pl3   
   6 C6            -0.4296     2.9909    -0.7868 C.2     
   7 C7            -2.5494     3.4524    -1.1612 C.2     
   8 C8            -1.8639     4.6018    -0.9835 C.2     
   9 N9            -0.5808     4.3027    -0.7568 N.2     
  10 C10           -4.0252     3.3245    -1.4378 C.3     
  11 C11           -4.2771     3.4702    -2.9398 C.3     
  12 C12            1.6961    -0.1861    -0.5479 C.ar    
  13 C13            1.7305    -1.0705     0.5313 C.ar    
  14 C14            2.7993    -1.9298     0.6811 C.ar    
  15 C15            3.8359    -1.9158    -0.2354 C.ar    
  16 C16            3.8078    -1.0415    -1.3075 C.ar    
  17 C17            2.7420    -0.1811    -1.4719 C.ar    
  18 C18            5.0007    -2.8566    -0.0649 C.3     
  19 C19            4.9734    -3.8932    -1.1584 C.ar    
  20 C20            4.6130    -5.1957    -0.8673 C.ar    
  21 C21            4.5880    -6.1465    -1.8704 C.ar    
  22 C22            4.9229    -5.7949    -3.1646 C.ar    
  23 C23            5.2824    -4.4923    -3.4559 C.ar    
  24 C24            5.3033    -3.5404    -2.4537 C.ar    
  25 F25           -3.5851     2.4678    -3.6281 F       
  26 F26           -5.6472     3.3515    -3.1966 F       
  27 F27           -3.8293     4.7244    -3.3683 F       
  28 C28            6.3092    -2.0676    -0.1428 C.3     
  29 O29            4.9090    -3.5028     1.2063 O.3     
  30 C30            2.0329     2.6760    -0.3549 C.1     
  31 N31            3.0600     3.1142    -0.1462 N.1     
  32 H32           -0.8914    -0.8293    -1.0514 H       
  33 H33           -2.7636     0.6512    -1.3270 H       
  34 H34           -2.2828     5.5967    -1.0160 H       
  35 H35           -4.3741     2.3473    -1.1039 H       
  36 H36           -4.5644     4.1055    -0.9016 H       
  37 H37            0.9225    -1.0819     1.2477 H       
  38 H38            2.8273    -2.6146     1.5157 H       
  39 H39            4.6199    -1.0356    -2.0193 H       
  40 H40            2.7212     0.5009    -2.3091 H       
  41 H41            4.3513    -5.4704     0.1438 H       
  42 H42            4.3071    -7.1642    -1.6428 H       
  43 H43            4.9041    -6.5379    -3.9481 H       
  44 H44            5.5445    -4.2176    -4.4670 H       
  45 H45            5.5841    -2.5227    -2.6812 H       
  46 H46            6.3290    -1.3178     0.6481 H       
  47 H47            7.1517    -2.7480    -0.0195 H       
  48 H48            6.3791    -1.5747    -1.1125 H       
  49 H49            4.1025    -4.0226     1.3261 H       
@<TRIPOS>BOND
   1    1    2 2
   2    1   30 1
   3    1    6 1
   4    2    3 1
   5    2   12 1
   6    3    4 2
   7    3   32 1
   8    4    5 1
   9    4   33 1
  10    5    6 1
  11    5    7 1
  12    6    9 2
  13    7    8 2
  14    7   10 1
  15    8    9 1
  16    8   34 1
  17   10   11 1
  18   10   35 1
  19   10   36 1
  20   11   25 1
  21   11   26 1
  22   11   27 1
  23   12   13 ar
  24   12   17 ar
  25   13   14 ar
  26   13   37 1
  27   14   15 ar
  28   14   38 1
  29   15   16 ar
  30   15   18 1
  31   16   17 ar
  32   16   39 1
  33   17   40 1
  34   18   19 1
  35   18   28 1
  36   18   29 1
  37   19   20 ar
  38   19   24 ar
  39   20   21 ar
  40   20   41 1
  41   21   22 ar
  42   21   42 1
  43   22   23 ar
  44   22   43 1
  45   23   24 ar
  46   23   44 1
  47   24   45 1
  48   28   46 1
  49   28   47 1
  50   28   48 1
  51   29   49 1
  52   30   31 3

#	End of record

