#	Name: ASD01910682
#	Creating user name:	WinNT
#	Creation time:	15. 06. 2019 19:56

#	Modifying user name:	WinNT
#	Modification time:	15. 06. 2019 19:56

#	Program:	/corina/corina34_cracker 3.40 0067  02.08.2006

@<TRIPOS>MOLECULE
ASD01910682
  53   56    0    0    0
SMALL
NO_CHARGES


@<TRIPOS>ATOM
   1 C1            12.4929    -1.8924     4.2627 C.ar    
   2 C2            13.1109    -2.0555     3.0302 C.ar    
   3 C3            12.3988    -1.7379     1.8874 C.ar    
   4 C4            11.0953    -1.2686     2.0112 C.ar    
   5 N5            10.5408    -1.1263     3.2053 N.ar    
   6 C6            11.1959    -1.4218     4.3119 C.ar    
   7 N7            10.3683    -0.9458     0.8712 N.3     
   8 C8             9.0225    -0.4725     1.2216 C.3     
   9 C9             8.3209     0.0418    -0.0399 C.3     
  10 N10            8.3620    -1.0157    -1.0614 N.am    
  11 C11            9.6596    -1.6361    -1.3689 C.3     
  12 C12           10.3084    -2.0843    -0.0550 C.3     
  13 C13            7.2404    -1.4055    -1.6989 C.2     
  14 C14            7.3212    -2.3800    -2.8082 C.ar    
  15 O15            6.1624    -0.9561    -1.3622 O.2     
  16 C16            6.3483    -3.3735    -2.9390 C.ar    
  17 C17            6.4217    -4.2853    -3.9739 C.ar    
  18 C18            7.4554    -4.2220    -4.8862 C.ar    
  19 C19            8.4364    -3.2323    -4.7680 C.ar    
  20 C20            8.3647    -2.3055    -3.7281 C.ar    
  21 C21            9.5085    -3.1673    -5.7150 C.1     
  22 C22           10.3875    -3.1140    -6.4915 C.1     
  23 C23           11.4596    -3.0490    -7.4386 C.ar    
  24 C24           12.4403    -2.0599    -7.3206 C.ar    
  25 C25           13.4700    -2.0014    -8.2344 C.ar    
  26 C26           13.5345    -2.9232    -9.2715 C.ar    
  27 C27           12.5620    -3.9075    -9.3931 C.ar    
  28 C28           11.5319    -3.9779    -8.4806 C.ar    
  29 O29           14.5515    -2.8615   -10.1700 O.3     
  30 C30           14.5574    -3.8399   -11.2115 C.3     
  31 H31           13.0199    -2.1355     5.1735 H       
  32 H32           14.1248    -2.4217     2.9650 H       
  33 H33           12.8491    -1.8525     0.9124 H       
  34 H34           10.7115    -1.2930     5.2685 H       
  35 H35            8.4475    -1.2945     1.6481 H       
  36 H36            9.0990     0.3347     1.9500 H       
  37 H37            7.2844     0.2871     0.1917 H       
  38 H38            8.8361     0.9283    -0.4098 H       
  39 H39            9.5081    -2.5001    -2.0160 H       
  40 H40           10.3034    -0.9109    -1.8665 H       
  41 H41           11.3175    -2.4460    -0.2526 H       
  42 H42            9.7155    -2.8839     0.3892 H       
  43 H43            5.5366    -3.4292    -2.2288 H       
  44 H44            5.6668    -5.0517    -4.0694 H       
  45 H45            7.5069    -4.9383    -5.6928 H       
  46 H46            9.1191    -1.5387    -3.6317 H       
  47 H47           12.3908    -1.3426    -6.5148 H       
  48 H48           14.2280    -1.2373    -8.1443 H       
  49 H49           12.6159    -4.6216   -10.2015 H       
  50 H50           10.7763    -4.7437    -8.5759 H       
  51 H51           14.6135    -4.8364   -10.7735 H       
  52 H52           13.6428    -3.7517   -11.7979 H       
  53 H53           15.4202    -3.6777   -11.8575 H       
@<TRIPOS>BOND
   1    1    2 ar
   2    1    6 ar
   3    1   31 1
   4    2    3 ar
   5    2   32 1
   6    3    4 ar
   7    3   33 1
   8    4    5 ar
   9    4    7 1
  10    5    6 ar
  11    6   34 1
  12    7    8 1
  13    7   12 1
  14    8    9 1
  15    8   35 1
  16    8   36 1
  17    9   10 1
  18    9   37 1
  19    9   38 1
  20   10   11 1
  21   10   13 am
  22   11   12 1
  23   11   39 1
  24   11   40 1
  25   12   41 1
  26   12   42 1
  27   13   14 1
  28   13   15 2
  29   14   16 ar
  30   14   20 ar
  31   16   17 ar
  32   16   43 1
  33   17   18 ar
  34   17   44 1
  35   18   19 ar
  36   18   45 1
  37   19   20 ar
  38   19   21 1
  39   20   46 1
  40   21   22 3
  41   22   23 1
  42   23   24 ar
  43   23   28 ar
  44   24   25 ar
  45   24   47 1
  46   25   26 ar
  47   25   48 1
  48   26   27 ar
  49   26   29 1
  50   27   28 ar
  51   27   49 1
  52   28   50 1
  53   29   30 1
  54   30   51 1
  55   30   52 1
  56   30   53 1

#	End of record

