#	Name: ASD01882003
#	Creating user name:	WinNT
#	Creation time:	15. 06. 2019 19:43

#	Modifying user name:	WinNT
#	Modification time:	15. 06. 2019 19:43

#	Program:	/corina/corina34_cracker 3.40 0067  02.08.2006

@<TRIPOS>MOLECULE
ASD01882003
  58   61    0    0    0
SMALL
NO_CHARGES


@<TRIPOS>ATOM
   1 N1            -0.0178     1.4650     0.0101 N.am    
   2 C2             0.0021    -0.0041     0.0020 C.3     
   3 C3             0.8580    -0.4791    -1.1763 C.3     
   4 C4             2.2423     0.1678    -1.0896 C.3     
   5 C5             2.1025     1.6893    -1.1766 C.3     
   6 C6             1.2607     2.1889     0.0018 C.3     
   7 C7            -1.1868     2.1359     0.0193 C.2     
   8 O8            -2.2375     1.5256     0.0210 O.2     
   9 O9            -1.1902     3.4822     0.0266 O.3     
  10 C10            1.0015    -2.0014    -1.1223 C.3     
  11 O11           -0.2780    -2.6076    -1.3162 O.3     
  12 N12           -0.7469    -8.0650    -1.2816 N.pl3   
  13 N13           -2.1315    -8.1025    -1.5034 N.2     
  14 N14           -2.5823    -6.9016    -1.5998 N.2     
  15 C15           -1.5799    -6.0119    -1.4566 C.ar    
  16 C16           -0.3924    -6.7355    -1.2513 C.ar    
  17 C17           -1.5328    -4.6111    -1.4778 C.ar    
  18 C18           -0.3267    -3.9665    -1.2965 C.ar    
  19 C19            0.8415    -4.6972    -1.0939 C.ar    
  20 C20            0.8113    -6.0632    -1.0721 C.ar    
  21 C21            0.1450    -9.2144    -1.1098 C.3     
  22 C22            0.6849    -9.6493    -2.4737 C.3     
  23 C23            1.7305   -10.7661    -2.4962 C.3     
  24 C24            0.3034   -11.0446    -2.9723 C.3     
  25 Br25          -3.1138    -3.6107    -1.7525 Br      
  26 C26           -2.4856     4.1381     0.0364 C.3     
  27 C27           -3.2605     3.7182     1.2870 C.3     
  28 C28           -2.2890     5.6554     0.0437 C.3     
  29 C29           -3.2723     3.7317    -1.2114 C.3     
  30 H30            0.4307    -0.3688     0.9355 H       
  31 H31           -1.0141    -0.3827    -0.1084 H       
  32 H32            0.3799    -0.1912    -2.1126 H       
  33 H33            2.7097    -0.1004    -0.1422 H       
  34 H34            2.8614    -0.1876    -1.9133 H       
  35 H35            3.0905     2.1482    -1.1383 H       
  36 H36            1.6127     1.9568    -2.1129 H       
  37 H37            1.0750     3.2573    -0.1088 H       
  38 H38            1.7919     2.0030     0.9352 H       
  39 H39            1.6821    -2.3303    -1.9076 H       
  40 H40            1.3990    -2.2946    -0.1507 H       
  41 H41            1.7792    -4.1800    -0.9536 H       
  42 H42            1.7226    -6.6208    -0.9145 H       
  43 H43            0.9761    -8.9357    -0.4621 H       
  44 H44           -0.4073   -10.0385    -0.6581 H       
  45 H45            0.7785    -8.8572    -3.2166 H       
  46 H46            2.5117   -10.7089    -3.2541 H       
  47 H47            2.0337   -11.1910    -1.5393 H       
  48 H48           -0.3323   -11.6527    -2.3287 H       
  49 H49            0.1458   -11.1706    -4.0435 H       
  50 H50           -2.7000     4.0076     2.1759 H       
  51 H51           -4.2329     4.2105     1.2943 H       
  52 H52           -3.4005     2.6372     1.2818 H       
  53 H53           -1.7370     5.9545    -0.8473 H       
  54 H54           -3.2615     6.1477     0.0510 H       
  55 H55           -1.7285     5.9448     0.9326 H       
  56 H56           -3.4124     2.6508    -1.2166 H       
  57 H57           -4.2448     4.2241    -1.2041 H       
  58 H58           -2.7203     4.0309    -2.1024 H       
@<TRIPOS>BOND
   1    1    2 1
   2    1    6 1
   3    1    7 am
   4    2    3 1
   5    2   30 1
   6    2   31 1
   7    3    4 1
   8    3   10 1
   9    3   32 1
  10    4    5 1
  11    4   33 1
  12    4   34 1
  13    5    6 1
  14    5   35 1
  15    5   36 1
  16    6   37 1
  17    6   38 1
  18    7    8 2
  19    7    9 1
  20    9   26 1
  21   10   11 1
  22   10   39 1
  23   10   40 1
  24   11   18 1
  25   12   13 1
  26   12   16 1
  27   12   21 1
  28   13   14 2
  29   14   15 1
  30   15   16 ar
  31   15   17 ar
  32   16   20 ar
  33   17   18 ar
  34   17   25 1
  35   18   19 ar
  36   19   20 ar
  37   19   41 1
  38   20   42 1
  39   21   22 1
  40   21   43 1
  41   21   44 1
  42   22   23 1
  43   22   24 1
  44   22   45 1
  45   23   24 1
  46   23   46 1
  47   23   47 1
  48   24   48 1
  49   24   49 1
  50   26   27 1
  51   26   29 1
  52   26   28 1
  53   27   50 1
  54   27   51 1
  55   27   52 1
  56   28   53 1
  57   28   54 1
  58   28   55 1
  59   29   56 1
  60   29   57 1
  61   29   58 1

#	End of record

