#	Name: ASD01911533
#	Creating user name:	WinNT
#	Creation time:	15. 06. 2019 19:57

#	Modifying user name:	WinNT
#	Modification time:	15. 06. 2019 19:57

#	Program:	/corina/corina34_cracker 3.40 0067  02.08.2006

@<TRIPOS>MOLECULE
ASD01911533
  55   56    0    0    0
SMALL
NO_CHARGES


@<TRIPOS>ATOM
   1 C1            -0.4639     0.6989     0.3022 C.2     
   2 C2            -0.1341    -0.7302     0.6483 C.3     
   3 O3             0.3894     1.4223    -0.1543 O.2     
   4 O4            -1.7071     1.1666     0.4959 O.3     
   5 O5             1.2391    -0.9882     0.3486 O.3     
   6 C6             1.6572    -2.3229     0.6415 C.3     
   7 C7             3.1359    -2.4844     0.2831 C.3     
   8 C8             1.4602    -2.6034     2.1326 C.3     
   9 C9             0.8232    -3.3099    -0.1777 C.3     
  10 N10            3.9492    -1.6393     1.1676 N.3     
  11 C11            5.3533    -2.0710     1.1634 C.3     
  12 C12            6.0591    -1.4965     2.3645 C.ar    
  13 C13            6.1708    -2.2426     3.5229 C.ar    
  14 C14            6.8182    -1.7156     4.6247 C.ar    
  15 C15            7.3543    -0.4427     4.5681 C.ar    
  16 C16            7.2434     0.3030     3.4094 C.ar    
  17 C17            6.5998    -0.2257     2.3061 C.ar    
  18 C18            3.8328    -0.2229     0.7955 C.3     
  19 C19            4.2454    -0.0459    -0.6430 C.ar    
  20 C20            3.2871    -0.0221    -1.6390 C.ar    
  21 C21            3.6655     0.1403    -2.9586 C.ar    
  22 C22            5.0023     0.2792    -3.2822 C.ar    
  23 C23            5.9605     0.2563    -2.2861 C.ar    
  24 C24            5.5817     0.0983    -0.9661 C.ar    
  25 C25           -1.9528     2.5527     0.1402 C.3     
  26 C26           -3.4142     2.9020     0.4290 C.3     
  27 H27           -0.3116    -0.8970     1.7108 H       
  28 H28           -0.7654    -1.4004     0.0649 H       
  29 H29            3.4280    -3.5271     0.4074 H       
  30 H30            3.2936    -2.1838    -0.7526 H       
  31 H31            0.4068    -2.4883     2.3879 H       
  32 H32            1.7791    -3.6214     2.3560 H       
  33 H33            2.0544    -1.9002     2.7162 H       
  34 H34            0.9635    -3.1101    -1.2400 H       
  35 H35            1.1421    -4.3280     0.0458 H       
  36 H36           -0.2303    -3.1949     0.0776 H       
  37 H37            5.3988    -3.1594     1.2013 H       
  38 H38            5.8391    -1.7186     0.2535 H       
  39 H39            5.7520    -3.2371     3.5672 H       
  40 H40            6.9049    -2.2983     5.5299 H       
  41 H41            7.8595    -0.0307     5.4291 H       
  42 H42            7.6619     1.2976     3.3652 H       
  43 H43            6.5163     0.3555     1.3997 H       
  44 H44            2.7998     0.1017     0.9198 H       
  45 H45            4.4812     0.3753     1.4357 H       
  46 H46            2.2427    -0.1306    -1.3862 H       
  47 H47            2.9168     0.1582    -3.7368 H       
  48 H48            5.2980     0.4054    -4.3132 H       
  49 H49            7.0049     0.3645    -2.5390 H       
  50 H50            6.3301     0.0841    -0.1875 H       
  51 H51           -1.3016     3.1996     0.7280 H       
  52 H52           -1.7474     2.6975    -0.9205 H       
  53 H53           -3.5986     3.9426     0.1619 H       
  54 H54           -4.0654     2.2551    -0.1589 H       
  55 H55           -3.6196     2.7572     1.4896 H       
@<TRIPOS>BOND
   1    1    2 1
   2    1    3 2
   3    1    4 1
   4    2    5 1
   5    2   27 1
   6    2   28 1
   7    4   25 1
   8    5    6 1
   9    6    7 1
  10    6    8 1
  11    6    9 1
  12    7   10 1
  13    7   29 1
  14    7   30 1
  15    8   31 1
  16    8   32 1
  17    8   33 1
  18    9   34 1
  19    9   35 1
  20    9   36 1
  21   10   11 1
  22   10   18 1
  23   11   12 1
  24   11   37 1
  25   11   38 1
  26   12   13 ar
  27   12   17 ar
  28   13   14 ar
  29   13   39 1
  30   14   15 ar
  31   14   40 1
  32   15   16 ar
  33   15   41 1
  34   16   17 ar
  35   16   42 1
  36   17   43 1
  37   18   19 1
  38   18   44 1
  39   18   45 1
  40   19   20 ar
  41   19   24 ar
  42   20   21 ar
  43   20   46 1
  44   21   22 ar
  45   21   47 1
  46   22   23 ar
  47   22   48 1
  48   23   24 ar
  49   23   49 1
  50   24   50 1
  51   25   26 1
  52   25   51 1
  53   25   52 1
  54   26   53 1
  55   26   54 1
  56   26   55 1

#	End of record

