#	Name: ASD05513021
#	Creating user name:	WinNT
#	Creation time:	15. 06. 2019 21:01

#	Modifying user name:	WinNT
#	Modification time:	15. 06. 2019 21:01

#	Program:	/corina/corina34_cracker 3.40 0067  02.08.2006

@<TRIPOS>MOLECULE
ASD05513021
  30   32    0    0    0
SMALL
NO_CHARGES


@<TRIPOS>ATOM
   1 C1            -0.1880     1.1316    -0.9096 C.2     
   2 C2             0.0021    -0.0041     0.0020 C.2     
   3 C3             1.1412    -0.7444    -0.0622 C.2     
   4 C4             2.5216    -0.2571    -0.2597 C.ar    
   5 C5             3.3488    -1.3900    -0.2549 C.ar    
   6 N6             2.5723    -2.5295    -0.0691 N.am    
   7 C7             1.2702    -2.2211     0.0574 C.2     
   8 C8             3.0688     1.0138    -0.4310 C.ar    
   9 C9             4.4334     1.1545    -0.5968 C.ar    
  10 C10            5.2513     0.0374    -0.5923 C.ar    
  11 C11            4.7184    -1.2259    -0.4228 C.ar    
  12 O12            0.3609    -3.0082     0.2300 O.2     
  13 O13            0.5993     1.3213    -1.8172 O.2     
  14 C14           -1.3393     2.0403    -0.7280 C.ar    
  15 Cl15           2.0407     2.4126    -0.4367 Cl      
  16 C16           -1.5231     3.1214    -1.5933 C.ar    
  17 C17           -2.5995     3.9660    -1.4184 C.ar    
  18 C18           -3.4968     3.7448    -0.3887 C.ar    
  19 C19           -3.3213     2.6747     0.4736 C.ar    
  20 C20           -2.2518     1.8186     0.3065 C.ar    
  21 Cl21          -4.4529     2.4060     1.7624 Cl      
  22 H22           -0.7627    -0.2513     0.7234 H       
  23 H23            2.9264    -3.4318    -0.0310 H       
  24 H24            4.8622     2.1366    -0.7302 H       
  25 H25            6.3170     0.1549    -0.7228 H       
  26 H26            5.3681    -2.0886    -0.4217 H       
  27 H27           -0.8235     3.2959    -2.3974 H       
  28 H28           -2.7421     4.8023    -2.0868 H       
  29 H29           -4.3377     4.4095    -0.2563 H       
  30 H30           -2.1156     0.9846     0.9791 H       
@<TRIPOS>BOND
   1    1    2 1
   2    1   13 2
   3    1   14 1
   4    2    3 2
   5    2   22 1
   6    3    4 1
   7    3    7 1
   8    4    5 ar
   9    4    8 ar
  10    5    6 1
  11    5   11 ar
  12    6    7 am
  13    6   23 1
  14    7   12 2
  15    8    9 ar
  16    8   15 1
  17    9   10 ar
  18    9   24 1
  19   10   11 ar
  20   10   25 1
  21   11   26 1
  22   14   16 ar
  23   14   20 ar
  24   16   17 ar
  25   16   27 1
  26   17   18 ar
  27   17   28 1
  28   18   19 ar
  29   18   29 1
  30   19   20 ar
  31   19   21 1
  32   20   30 1

#	End of record

