#	Name: ASD00071116
#	Creating user name:	WinNT
#	Creation time:	15. 06. 2019 18:30

#	Modifying user name:	WinNT
#	Modification time:	15. 06. 2019 18:30

#	Program:	/corina/corina34_cracker 3.40 0067  02.08.2006

@<TRIPOS>MOLECULE
ASD00071116
  60   64    0    0    0
SMALL
NO_CHARGES


@<TRIPOS>ATOM
   1 N1            -0.1981     1.2457     1.3139 N.2     
   2 C2            -0.0943    -0.0606     1.3407 C.2     
   3 N3             1.0313    -0.6778     0.8469 N.pl3   
   4 C4             1.7478    -0.0476    -0.2724 C.3     
   5 C5             1.7784     1.4416    -0.0261 C.ar    
   6 C6             2.7745     2.2215    -0.5702 C.ar    
   7 C7             2.7834     3.5876    -0.3458 C.ar    
   8 C8             1.7940     4.1740     0.4237 C.ar    
   9 C9             0.7942     3.4019     0.9779 C.ar    
  10 C10            0.7810     2.0227     0.7595 C.ar    
  11 N11           -1.1132    -0.8160     1.8644 N.pl3   
  12 C12           -2.2646    -0.1603     2.4894 C.3     
  13 C13           -3.3247    -1.1878     2.7919 C.ar    
  14 C14           -4.4690    -1.2275     2.0557 C.ar    
  15 C15           -5.4602    -2.1702     2.3207 C.ar    
  16 C16           -5.3128    -3.0793     3.3232 C.ar    
  17 C17           -4.1450    -3.0695     4.1044 C.ar    
  18 C18           -3.9572    -3.9918     5.1481 C.ar    
  19 C19           -2.8131    -3.9521     5.8840 C.ar    
  20 C20           -1.8218    -3.0089     5.6191 C.ar    
  21 C21           -1.9690    -2.1000     4.6169 C.ar    
  22 C22           -3.1345    -2.1136     3.8316 C.ar    
  23 C23            1.5073    -1.9373     1.4244 C.3     
  24 C24            2.6211    -1.6537     2.3990 C.ar    
  25 C25            2.3266    -1.2352     3.6874 C.ar    
  26 C26            3.3541    -0.9747     4.5831 C.ar    
  27 C27            4.6698    -1.1321     4.1916 C.ar    
  28 C28            4.9660    -1.5492     2.9081 C.ar    
  29 C29            3.9419    -1.8165     2.0105 C.ar    
  30 O30            4.2337    -2.2320     0.7499 O.3     
  31 C31            5.6135    -2.2605     0.3792 C.3     
  32 O32            1.0327    -1.0797     4.0729 O.3     
  33 C33            0.8033    -0.6456     5.4149 C.3     
  34 H34            2.7658    -0.4339    -0.3226 H       
  35 H35            1.2273    -0.2560    -1.2072 H       
  36 H36            3.5485     1.7676    -1.1714 H       
  37 H37            3.5656     4.1978    -0.7725 H       
  38 H38            1.8048     5.2408     0.5914 H       
  39 H39            0.0240     3.8626     1.5787 H       
  40 H40           -1.0711    -1.7841     1.8207 H       
  41 H41           -1.9502     0.3209     3.4155 H       
  42 H42           -2.6690     0.5895     1.8094 H       
  43 H43           -4.6109    -0.5174     1.2545 H       
  44 H44           -6.3590    -2.1797     1.7220 H       
  45 H45           -6.0897    -3.8040     3.5173 H       
  46 H46           -4.7171    -4.7279     5.3653 H       
  47 H47           -2.6714    -4.6620     6.6855 H       
  48 H48           -0.9234    -2.9989     6.2184 H       
  49 H49           -1.1927    -1.3745     4.4237 H       
  50 H50            0.6866    -2.4316     1.9443 H       
  51 H51            1.8763    -2.5850     0.6292 H       
  52 H52            3.1251    -0.6482     5.5868 H       
  53 H53            5.4681    -0.9286     4.8900 H       
  54 H54            5.9952    -1.6716     2.6044 H       
  55 H55            5.7014    -2.5280    -0.6738 H       
  56 H56            6.0539    -1.2769     0.5423 H       
  57 H57            6.1376    -2.9985     0.9865 H       
  58 H58            1.2307    -1.3693     6.1089 H       
  59 H59            1.2732     0.3259     5.5679 H       
  60 H60           -0.2691    -0.5623     5.5915 H       
@<TRIPOS>BOND
   1    1    2 2
   2    1   10 1
   3    2    3 1
   4    2   11 1
   5    3    4 1
   6    3   23 1
   7    4    5 1
   8    4   34 1
   9    4   35 1
  10    5    6 ar
  11    5   10 ar
  12    6    7 ar
  13    6   36 1
  14    7    8 ar
  15    7   37 1
  16    8    9 ar
  17    8   38 1
  18    9   10 ar
  19    9   39 1
  20   11   12 1
  21   11   40 1
  22   12   13 1
  23   12   41 1
  24   12   42 1
  25   13   14 ar
  26   13   22 ar
  27   14   15 ar
  28   14   43 1
  29   15   16 ar
  30   15   44 1
  31   16   17 ar
  32   16   45 1
  33   17   18 ar
  34   17   22 ar
  35   18   19 ar
  36   18   46 1
  37   19   20 ar
  38   19   47 1
  39   20   21 ar
  40   20   48 1
  41   21   22 ar
  42   21   49 1
  43   23   24 1
  44   23   50 1
  45   23   51 1
  46   24   25 ar
  47   24   29 ar
  48   25   26 ar
  49   25   32 1
  50   26   27 ar
  51   26   52 1
  52   27   28 ar
  53   27   53 1
  54   28   29 ar
  55   28   54 1
  56   29   30 1
  57   30   31 1
  58   31   55 1
  59   31   56 1
  60   31   57 1
  61   32   33 1
  62   33   58 1
  63   33   59 1
  64   33   60 1

#	End of record

