#	Name: ASD07301368
#	Creating user name:	WinNT
#	Creation time:	15. 06. 2019 21:11

#	Modifying user name:	WinNT
#	Modification time:	15. 06. 2019 21:11

#	Program:	/corina/corina34_cracker 3.40 0067  02.08.2006

@<TRIPOS>MOLECULE
ASD07301368
  51   53    0    0    0
SMALL
NO_CHARGES


@<TRIPOS>ATOM
   1 C1             1.3138    -0.5617    -0.0619 C.2     
   2 C2            -0.0271     0.0404     0.0036 C.2     
   3 C3            -0.0999     1.4560     0.0607 C.2     
   4 C4             1.0634     2.1498     0.0510 C.2     
   5 N5             2.2550     1.5070    -0.0114 N.pl3   
   6 N6             2.3644     0.2309    -0.0642 N.2     
   7 O7            -1.0349    -0.6493     0.0082 O.2     
   8 C8             3.4243     2.2747    -0.0184 C.ar    
   9 C9             3.3480     3.6585    -0.1150 C.ar    
  10 C10            4.5043     4.4134    -0.1212 C.ar    
  11 C11            5.7372     3.7934    -0.0314 C.ar    
  12 C12            5.8168     2.4161     0.0645 C.ar    
  13 C13            4.6642     1.6556     0.0770 C.ar    
  14 S14            7.2101     4.7605    -0.0397 S.o2    
  15 O15            8.2508     3.9028    -0.4873 O.2     
  16 O16            6.8823     5.9853    -0.6814 O.2     
  17 N17            7.5586     5.1363     1.5350 N.am    
  18 C18            8.4087     4.2571     2.3533 C.3     
  19 C19            9.5042     5.1109     3.0021 C.3     
  20 O20            8.9008     6.2177     3.6765 O.3     
  21 C21            8.1904     7.1110     2.8155 C.3     
  22 C22            7.0323     6.3625     2.1555 C.3     
  23 C23            1.4781    -2.0298    -0.1178 C.2     
  24 C24            2.7716    -2.5939    -0.1804 C.2     
  25 C25            2.9219    -3.9366    -0.2315 C.2     
  26 O26            0.4978    -2.7532    -0.1099 O.2     
  27 N27            4.1721    -4.4818    -0.2920 N.pl3   
  28 C28            5.3509    -3.6119    -0.3015 C.3     
  29 C29            4.3349    -5.9366    -0.3474 C.3     
  30 H30           -1.0517     1.9640     0.1099 H       
  31 H31            1.0412     3.2287     0.0931 H       
  32 H32            2.3855     4.1432    -0.1856 H       
  33 H33            4.4457     5.4892    -0.1967 H       
  34 H34            6.7812     1.9351     0.1341 H       
  35 H35            4.7269     0.5803     0.1564 H       
  36 H36            7.8070     3.7816     3.1278 H       
  37 H37            8.8638     3.4945     1.7213 H       
  38 H38           10.0600     4.5067     3.7191 H       
  39 H39           10.1824     5.4794     2.2324 H       
  40 H40            7.8010     7.9457     3.3984 H       
  41 H41            8.8638     7.4867     2.0451 H       
  42 H42            6.5763     6.9934     1.3926 H       
  43 H43            6.2896     6.1026     2.9098 H       
  44 H44            3.6406    -1.9526    -0.1874 H       
  45 H45            2.0529    -4.5779    -0.2245 H       
  46 H46            5.6775    -3.4314     0.7227 H       
  47 H47            6.1537    -4.0940    -0.8593 H       
  48 H48            5.0984    -2.6631    -0.7749 H       
  49 H49            3.3546    -6.4128    -0.3310 H       
  50 H50            4.8560    -6.2092    -1.2652 H       
  51 H51            4.9153    -6.2703     0.5128 H       
@<TRIPOS>BOND
   1    1    2 1
   2    1    6 2
   3    1   23 1
   4    2    3 1
   5    2    7 2
   6    3    4 2
   7    3   30 1
   8    4    5 1
   9    4   31 1
  10    5    6 1
  11    5    8 1
  12    8    9 ar
  13    8   13 ar
  14    9   10 ar
  15    9   32 1
  16   10   11 ar
  17   10   33 1
  18   11   12 ar
  19   11   14 1
  20   12   13 ar
  21   12   34 1
  22   13   35 1
  23   14   15 2
  24   14   16 2
  25   14   17 am
  26   17   18 1
  27   17   22 1
  28   18   19 1
  29   18   36 1
  30   18   37 1
  31   19   20 1
  32   19   38 1
  33   19   39 1
  34   20   21 1
  35   21   22 1
  36   21   40 1
  37   21   41 1
  38   22   42 1
  39   22   43 1
  40   23   24 1
  41   23   26 2
  42   24   25 2
  43   24   44 1
  44   25   27 1
  45   25   45 1
  46   27   28 1
  47   27   29 1
  48   28   46 1
  49   28   47 1
  50   28   48 1
  51   29   49 1
  52   29   50 1
  53   29   51 1

#	End of record

