#	Name: ASD01410570
#	Creating user name:	WinNT
#	Creation time:	15. 06. 2019 19:18

#	Modifying user name:	WinNT
#	Modification time:	15. 06. 2019 19:18

#	Program:	/corina/corina34_cracker 3.40 0067  02.08.2006

@<TRIPOS>MOLECULE
ASD01410570
  87   90    0    0    0
SMALL
NO_CHARGES


@<TRIPOS>ATOM
   1 C1            -0.9785    -0.5189    -1.1994 C.ar    
   2 C2            -0.4320    -0.3743    -2.4610 C.ar    
   3 C3             0.9311    -0.5147    -2.6471 C.ar    
   4 C4             1.7503    -0.7997    -1.5723 C.ar    
   5 C5             1.2044    -0.9449    -0.3046 C.ar    
   6 C6            -0.1634    -0.8036    -0.1207 C.ar    
   7 O7             2.0081    -1.2258     0.7544 O.3     
   8 C8             3.3396    -1.3745     0.5234 C.ar    
   9 C9             3.9078    -2.6428     0.5381 C.ar    
  10 C10            5.2584    -2.8050     0.3049 C.ar    
  11 C11            6.0599    -1.7000     0.0541 C.ar    
  12 C12            5.4925    -0.4168     0.0379 C.ar    
  13 C13            4.1233    -0.2637     0.2691 C.ar    
  14 N14            7.4243    -1.8645    -0.1805 N.am    
  15 C15            7.8760    -2.0345    -1.4389 C.2     
  16 C16            8.3670    -1.8526     0.9408 C.3     
  17 O17            9.0508    -2.2623    -1.6358 O.2     
  18 C18            6.9213    -1.9415    -2.6012 C.3     
  19 C19           -1.3235    -0.0638    -3.6357 C.3     
  20 C20            7.3485    -2.9257    -3.6920 C.3     
  21 C21            6.3792    -2.8313    -4.8720 C.3     
  22 C22            6.3966    -1.4082    -5.4338 C.3     
  23 C23            5.9694    -0.4241    -4.3429 C.3     
  24 C24            6.9387    -0.5185    -3.1629 C.3     
  25 C25            5.4273    -1.3138    -6.6138 C.3     
  26 C26            7.6366    -1.4285     2.2166 C.3     
  27 O27            9.7456    -3.5959    -0.0082 O.3     
  28 C28            8.9523    -3.2535     1.1299 C.3     
  29 C29           10.3418    -4.8924     0.0676 C.3     
  30 O30            7.1854    -0.0794     2.0811 O.3     
  31 C31            6.4866     0.4173     3.2244 C.3     
  32 N32           -1.4428     1.3924    -3.7884 N.3     
  33 C33           -2.1042     1.7365    -5.0535 C.3     
  34 C34           -2.3417     3.2472    -5.1122 C.3     
  35 C35           -0.9989     3.9747    -5.0023 C.3     
  36 C36           -0.3088     3.5619    -3.6992 C.3     
  37 C37           -0.1302     2.0421    -3.6816 C.3     
  38 F38           -2.9536     3.5770    -6.3262 F       
  39 F39           -3.1692     3.6314    -4.0516 F       
  40 C40            6.3356     0.7628    -0.2270 C.2     
  41 O41            7.5078     0.6198    -0.5137 O.2     
  42 O42            5.8066     1.9999    -0.1512 O.3     
  43 C43           -0.7597    -0.9600     1.2544 C.3     
  44 F44           -2.1446    -0.7741     1.1862 F       
  45 F45           -0.4847    -2.2434     1.7387 F       
  46 F46           -0.2031    -0.0078     2.1151 F       
  47 H47           -2.0428    -0.4047    -1.0561 H       
  48 H48            1.3554    -0.4016    -3.6338 H       
  49 H49            2.8147    -0.9099    -1.7183 H       
  50 H50            3.2890    -3.5062     0.7334 H       
  51 H51            5.6925    -3.7938     0.3179 H       
  52 H52            3.6794     0.7208     0.2582 H       
  53 H53            9.1717    -1.1478     0.7315 H       
  54 H54            5.9141    -2.1870    -2.2645 H       
  55 H55           -0.8924    -0.4899    -4.5416 H       
  56 H56           -2.3108    -0.4934    -3.4662 H       
  57 H57            8.3557    -2.6802    -4.0286 H       
  58 H58            7.3361    -3.9395    -3.2918 H       
  59 H59            6.6835    -3.5324    -5.6492 H       
  60 H60            5.3719    -3.0767    -4.5354 H       
  61 H61            7.4038    -1.1628    -5.7704 H       
  62 H62            5.9818     0.5897    -4.7431 H       
  63 H63            4.9622    -0.6695    -4.0063 H       
  64 H64            6.6344     0.1826    -2.3858 H       
  65 H65            7.9459    -0.2730    -3.4995 H       
  66 H66            4.4201    -1.5593    -6.2772 H       
  67 H67            5.4397    -0.3000    -7.0140 H       
  68 H68            5.7316    -2.0150    -7.3909 H       
  69 H69            6.7806    -2.0833     2.3800 H       
  70 H70            8.3165    -1.5007     3.0656 H       
  71 H71            9.5746    -3.2695     2.0247 H       
  72 H72            8.1419    -3.9743     1.2381 H       
  73 H73            9.5602    -5.6472     0.1537 H       
  74 H74           10.9270    -5.0764    -0.8334 H       
  75 H75           10.9930    -4.9424     0.9403 H       
  76 H76            7.1427     0.3834     4.0942 H       
  77 H77            6.1775     1.4466     3.0424 H       
  78 H78            5.6068    -0.1991     3.4086 H       
  79 H79           -1.4707     1.4358    -5.8880 H       
  80 H80           -3.0597     1.2159    -5.1172 H       
  81 H81           -0.3683     3.7054    -5.8496 H       
  82 H82           -1.1672     5.0516    -5.0000 H       
  83 H83            0.6669     4.0437    -3.6357 H       
  84 H84           -0.9216     3.8662    -2.8507 H       
  85 H85            0.3480     1.7434    -2.7487 H       
  86 H86            0.4941     1.7399    -4.5225 H       
  87 H87            6.3987     2.7425    -0.3333 H       
@<TRIPOS>BOND
   1    1    2 ar
   2    1    6 ar
   3    1   47 1
   4    2    3 ar
   5    2   19 1
   6    3    4 ar
   7    3   48 1
   8    4    5 ar
   9    4   49 1
  10    5    6 ar
  11    5    7 1
  12    6   43 1
  13    7    8 1
  14    8    9 ar
  15    8   13 ar
  16    9   10 ar
  17    9   50 1
  18   10   11 ar
  19   10   51 1
  20   11   12 ar
  21   11   14 1
  22   12   13 ar
  23   12   40 1
  24   13   52 1
  25   14   15 am
  26   14   16 1
  27   15   17 2
  28   15   18 1
  29   16   26 1
  30   16   28 1
  31   16   53 1
  32   18   20 1
  33   18   24 1
  34   18   54 1
  35   19   32 1
  36   19   55 1
  37   19   56 1
  38   20   21 1
  39   20   57 1
  40   20   58 1
  41   21   22 1
  42   21   59 1
  43   21   60 1
  44   22   23 1
  45   22   25 1
  46   22   61 1
  47   23   24 1
  48   23   62 1
  49   23   63 1
  50   24   64 1
  51   24   65 1
  52   25   66 1
  53   25   67 1
  54   25   68 1
  55   26   30 1
  56   26   69 1
  57   26   70 1
  58   27   28 1
  59   27   29 1
  60   28   71 1
  61   28   72 1
  62   29   73 1
  63   29   74 1
  64   29   75 1
  65   30   31 1
  66   31   76 1
  67   31   77 1
  68   31   78 1
  69   32   33 1
  70   32   37 1
  71   33   34 1
  72   33   79 1
  73   33   80 1
  74   34   35 1
  75   34   38 1
  76   34   39 1
  77   35   36 1
  78   35   81 1
  79   35   82 1
  80   36   37 1
  81   36   83 1
  82   36   84 1
  83   37   85 1
  84   37   86 1
  85   40   41 2
  86   40   42 1
  87   42   87 1
  88   43   44 1
  89   43   45 1
  90   43   46 1

#	End of record

