#	Name: ASD04882220
#	Creating user name:	WinNT
#	Creation time:	15. 06. 2019 20:54

#	Modifying user name:	WinNT
#	Modification time:	15. 06. 2019 20:54

#	Program:	/corina/corina34_cracker 3.40 0067  02.08.2006

@<TRIPOS>MOLECULE
ASD04882220
  65   68    0    0    0
SMALL
NO_CHARGES


@<TRIPOS>ATOM
   1 N1            -0.0096     1.3950     0.0791 N.pl3   
   2 C2             0.0057    -0.0046     0.0367 C.ar    
   3 C3             1.2158    -0.6864    -0.1187 C.ar    
   4 C4             1.2327    -2.0754    -0.1609 C.ar    
   5 C5             0.0575    -2.7854    -0.0499 C.ar    
   6 C6            -1.1560    -2.1101     0.1061 C.ar    
   7 C7            -1.1750    -0.7130     0.1542 C.ar    
   8 N8             2.4070     0.0277    -0.2319 N.3     
   9 C9             2.4411     0.8006    -1.4813 C.3     
  10 C10            3.5686    -0.8676    -0.1380 C.3     
  11 C11            4.8539    -0.0381    -0.1867 C.3     
  12 N12            4.8880     0.7348    -1.4361 N.3     
  13 C13            3.7264     1.6301    -1.5300 C.3     
  14 C14            6.1438     1.4876    -1.5555 C.3     
  15 C15           -2.4146    -2.8706     0.2245 C.2     
  16 O16           -3.4700    -2.2821     0.3602 O.2     
  17 C17            3.7834     2.3932    -2.8283 C.ar    
  18 C18            3.4303     3.7293    -2.8608 C.ar    
  19 C19            3.4825     4.4293    -4.0517 C.ar    
  20 C20            3.8883     3.7932    -5.2100 C.ar    
  21 C21            4.2422     2.4574    -5.1773 C.ar    
  22 C22            4.1941     1.7585    -3.9856 C.ar    
  23 N23           -2.3947    -4.2175     0.1822 N.am    
  24 C24           -3.6446    -4.9726     0.2997 C.3     
  25 C25           -3.3445    -6.4709     0.2216 C.3     
  26 C26           -4.6498    -7.2595     0.3443 C.3     
  27 N27           -4.3625    -8.6941     0.2695 N.am    
  28 C28           -4.0653    -9.5408     1.4308 C.3     
  29 C29           -3.4162   -10.8185     0.8540 C.3     
  30 C30           -3.9984   -10.8489    -0.5782 C.3     
  31 C31           -4.3429    -9.4052    -0.8711 C.2     
  32 O32           -4.5622    -8.9536    -1.9751 O.2     
  33 H33            0.8249     1.8885     0.1100 H       
  34 H34           -0.8547     1.8712     0.0735 H       
  35 H35            2.1694    -2.5994    -0.2815 H       
  36 H36            0.0739    -3.8647    -0.0838 H       
  37 H37           -2.1112    -0.1883     0.2750 H       
  38 H38            2.4158     0.1189    -2.3314 H       
  39 H39            1.5778     1.4649    -1.5216 H       
  40 H40            3.5274    -1.4195     0.8010 H       
  41 H41            3.5562    -1.5683    -0.9729 H       
  42 H42            4.8792     0.6436     0.6634 H       
  43 H43            5.7172    -0.7023    -0.1464 H       
  44 H44            3.7388     2.3308    -0.6952 H       
  45 H45            6.9873     0.8014    -1.4799 H       
  46 H46            6.1732     1.9947    -2.5199 H       
  47 H47            6.2027     2.2253    -0.7552 H       
  48 H48            3.1133     4.2262    -1.9558 H       
  49 H49            3.2060     5.4729    -4.0772 H       
  50 H50            3.9284     4.3399    -6.1405 H       
  51 H51            4.5589     1.9604    -6.0824 H       
  52 H52            4.4707     0.7148    -3.9601 H       
  53 H53           -1.5528    -4.6869     0.0739 H       
  54 H54           -4.1174    -4.7462     1.2554 H       
  55 H55           -4.3155    -4.6936    -0.5127 H       
  56 H56           -2.8717    -6.6974    -0.7341 H       
  57 H57           -2.6736    -6.7500     1.0340 H       
  58 H58           -5.1227    -7.0331     1.3000 H       
  59 H59           -5.3207    -6.9805    -0.4682 H       
  60 H60           -3.3699    -9.0334     2.0995 H       
  61 H61           -4.9845    -9.7909     1.9604 H       
  62 H62           -2.3302   -10.7284     0.8317 H       
  63 H63           -3.7215   -11.6999     1.4180 H       
  64 H64           -3.2546   -11.2174    -1.2846 H       
  65 H65           -4.8965   -11.4658    -0.6119 H       
@<TRIPOS>BOND
   1    1    2 1
   2    1   33 1
   3    1   34 1
   4    2    3 ar
   5    2    7 ar
   6    3    4 ar
   7    3    8 1
   8    4    5 ar
   9    4   35 1
  10    5    6 ar
  11    5   36 1
  12    6    7 ar
  13    6   15 1
  14    7   37 1
  15    8    9 1
  16    8   10 1
  17    9   13 1
  18    9   38 1
  19    9   39 1
  20   10   11 1
  21   10   40 1
  22   10   41 1
  23   11   12 1
  24   11   42 1
  25   11   43 1
  26   12   13 1
  27   12   14 1
  28   13   17 1
  29   13   44 1
  30   14   45 1
  31   14   46 1
  32   14   47 1
  33   15   16 2
  34   15   23 am
  35   17   18 ar
  36   17   22 ar
  37   18   19 ar
  38   18   48 1
  39   19   20 ar
  40   19   49 1
  41   20   21 ar
  42   20   50 1
  43   21   22 ar
  44   21   51 1
  45   22   52 1
  46   23   24 1
  47   23   53 1
  48   24   25 1
  49   24   54 1
  50   24   55 1
  51   25   26 1
  52   25   56 1
  53   25   57 1
  54   26   27 1
  55   26   58 1
  56   26   59 1
  57   27   28 1
  58   27   31 am
  59   28   29 1
  60   28   60 1
  61   28   61 1
  62   29   30 1
  63   29   62 1
  64   29   63 1
  65   30   31 1
  66   30   64 1
  67   30   65 1
  68   31   32 2

#	End of record

