#	Name: ASD03180060
#	Creating user name:	WinNT
#	Creation time:	15. 06. 2019 20:33

#	Modifying user name:	WinNT
#	Modification time:	15. 06. 2019 20:33

#	Program:	/corina/corina34_cracker 3.40 0067  02.08.2006

@<TRIPOS>MOLECULE
ASD03180060
  38   40    0    0    0
SMALL
NO_CHARGES


@<TRIPOS>ATOM
   1 C1             1.0814     0.2682    -1.0303 C.ar    
   2 C2             0.5454    -0.0558     0.2027 C.ar    
   3 C3             1.1958     0.3210     1.3635 C.ar    
   4 C4             2.3834     1.0224     1.2949 C.ar    
   5 C5             2.9247     1.3494     0.0580 C.ar    
   6 C6             2.2687     0.9694    -1.1061 C.ar    
   7 N7             4.1261     2.0596    -0.0151 N.pl3   
   8 N8             5.1687     4.1560    -0.4606 N.2     
   9 C9             4.9674     5.4259    -0.8110 C.2     
  10 C10            4.1182     3.4010    -0.3647 C.2     
  11 S11            2.6810     4.3430    -0.7483 S.3     
  12 C12            3.6826     5.7661    -1.0230 C.2     
  13 C13            6.0771     6.3931    -0.9560 C.2     
  14 S14            5.9241     8.0884    -1.4112 S.3     
  15 C15            7.6188     8.2820    -1.2985 C.2     
  16 N16            8.1765     7.1699    -0.9558 N.2     
  17 C17            7.3877     6.1358    -0.7574 C.2     
  18 C18            8.3570     9.5691    -1.5624 C.3     
  19 C19            7.9028     4.7800    -0.3483 C.3     
  20 C20            3.0912     1.4330     2.5604 C.3     
  21 C21            2.8521     1.3219    -2.4502 C.3     
  22 H22            0.5732    -0.0315    -1.9349 H       
  23 H23           -0.3834    -0.6040     0.2592 H       
  24 H24            0.7743     0.0667     2.3248 H       
  25 H25            4.9655     1.6139     0.1789 H       
  26 H26            3.3267     6.7440    -1.3121 H       
  27 H27            8.4397    10.1371    -0.6357 H       
  28 H28            9.3541     9.3449    -1.9413 H       
  29 H29            7.8112    10.1561    -2.3009 H       
  30 H30            8.1257     4.1921    -1.2387 H       
  31 H31            8.8097     4.8995     0.2445 H       
  32 H32            7.1457     4.2676     0.2453 H       
  33 H33            3.7842     0.6470     2.8605 H       
  34 H34            3.6431     2.3564     2.3848 H       
  35 H35            2.3582     1.5925     3.3513 H       
  36 H36            2.3810     2.2313    -2.8235 H       
  37 H37            3.9253     1.4837    -2.3493 H       
  38 H38            2.6718     0.5058    -3.1499 H       
@<TRIPOS>BOND
   1    1    2 ar
   2    1    6 ar
   3    1   22 1
   4    2    3 ar
   5    2   23 1
   6    3    4 ar
   7    3   24 1
   8    4    5 ar
   9    4   20 1
  10    5    6 ar
  11    5    7 1
  12    6   21 1
  13    7   10 1
  14    7   25 1
  15    8   10 2
  16    8    9 1
  17    9   12 2
  18    9   13 1
  19   10   11 1
  20   11   12 1
  21   12   26 1
  22   13   14 1
  23   13   17 2
  24   14   15 1
  25   15   16 2
  26   15   18 1
  27   16   17 1
  28   17   19 1
  29   18   27 1
  30   18   28 1
  31   18   29 1
  32   19   30 1
  33   19   31 1
  34   19   32 1
  35   20   33 1
  36   20   34 1
  37   20   35 1
  38   21   36 1
  39   21   37 1
  40   21   38 1

#	End of record

