#	Name: ASD03082006
#	Creating user name:	WinNT
#	Creation time:	15. 06. 2019 20:27

#	Modifying user name:	WinNT
#	Modification time:	15. 06. 2019 20:27

#	Program:	/corina/corina34_cracker 3.40 0067  02.08.2006

@<TRIPOS>MOLECULE
ASD03082006
  39   40    0    0    0
SMALL
NO_CHARGES


@<TRIPOS>ATOM
   1 C1             0.4616     0.2905    -1.1641 C.ar    
   2 C2             0.5901    -1.0374    -0.7815 C.ar    
   3 C3             1.7880    -1.5165    -0.2977 C.ar    
   4 C4             2.8809    -0.6629    -0.1912 C.ar    
   5 C5             2.7455     0.6823    -0.5809 C.ar    
   6 C6             1.5225     1.1465    -1.0679 C.ar    
   7 N7             4.1772    -0.8320     0.2412 N.pl3   
   8 C8             4.8595     0.3497     0.1390 C.2     
   9 C9             4.0520     1.3037    -0.3506 C.2     
  10 C10            4.4196     2.7413    -0.6135 C.3     
  11 C11            4.7895     2.9116    -2.0883 C.3     
  12 C12            6.3036     0.5505     0.5202 C.3     
  13 C13            6.9235    -0.7964     0.8979 C.3     
  14 C14            7.0654     1.1483    -0.6644 C.3     
  15 C15            6.3881     1.5036     1.7141 C.3     
  16 N16            5.0934     4.3235    -2.3570 N.3     
  17 C17            5.4537     4.5254    -3.7668 C.3     
  18 H18           -0.4832     0.6491    -1.5451 H       
  19 H19           -0.2574    -1.7018    -0.8634 H       
  20 H20            1.8779    -2.5513    -0.0018 H       
  21 H21            1.4151     2.1785    -1.3679 H       
  22 H22            4.5510    -1.6647     0.5697 H       
  23 H23            3.5712     3.3827    -0.3753 H       
  24 H24            5.2706     3.0184     0.0088 H       
  25 H25            5.6638     2.3020    -2.3164 H       
  26 H26            3.9532     2.5950    -2.7115 H       
  27 H27            6.8632    -1.4753     0.0473 H       
  28 H28            7.9680    -0.6511     1.1736 H       
  29 H29            6.3808    -1.2222     1.7418 H       
  30 H30            6.7443     2.1781    -0.8205 H       
  31 H31            8.1350     1.1289    -0.4556 H       
  32 H32            6.8596     0.5636    -1.5610 H       
  33 H33            5.9145     1.0429     2.5810 H       
  34 H34            7.4341     1.7118     1.9395 H       
  35 H35            5.8761     2.4350     1.4725 H       
  36 H36            4.3209     4.9163    -2.0927 H       
  37 H37            6.3326     3.9269    -4.0065 H       
  38 H38            4.6219     4.2199    -4.4017 H       
  39 H39            5.6738     5.5791    -3.9383 H       
@<TRIPOS>BOND
   1    1    2 ar
   2    1    6 ar
   3    1   18 1
   4    2    3 ar
   5    2   19 1
   6    3    4 ar
   7    3   20 1
   8    4    5 ar
   9    4    7 1
  10    5    6 ar
  11    5    9 1
  12    6   21 1
  13    7    8 1
  14    7   22 1
  15    8    9 2
  16    8   12 1
  17    9   10 1
  18   10   11 1
  19   10   23 1
  20   10   24 1
  21   11   16 1
  22   11   25 1
  23   11   26 1
  24   12   13 1
  25   12   14 1
  26   12   15 1
  27   13   27 1
  28   13   28 1
  29   13   29 1
  30   14   30 1
  31   14   31 1
  32   14   32 1
  33   15   33 1
  34   15   34 1
  35   15   35 1
  36   16   17 1
  37   16   36 1
  38   17   37 1
  39   17   38 1
  40   17   39 1

#	End of record

