#	Name: ASD08070574
#	Creating user name:	WinNT
#	Creation time:	15. 06. 2019 21:15

#	Modifying user name:	WinNT
#	Modification time:	15. 06. 2019 21:15

#	Program:	/corina/corina34_cracker 3.40 0067  02.08.2006

@<TRIPOS>MOLECULE
ASD08070574
  42   43    0    0    0
SMALL
NO_CHARGES


@<TRIPOS>ATOM
   1 C1            -0.0168     1.3912     0.0097 C.ar    
   2 C2             0.0021    -0.0041     0.0020 C.ar    
   3 C3             1.2274    -0.6647    -0.0213 C.ar    
   4 C4             2.4073     0.0368    -0.0249 C.ar    
   5 C5             2.3860     1.4351    -0.0131 C.ar    
   6 C6             1.1593     2.1037     0.0023 C.ar    
   7 C7             3.6493     2.1984    -0.0164 C.2     
   8 O8             4.7141     1.6116    -0.0294 O.2     
   9 N9             3.6225     3.5458    -0.0050 N.am    
  10 C10            4.8764     4.3035    -0.0083 C.3     
  11 C11            5.3669     4.4715    -1.4477 C.3     
  12 C12            4.6415     5.6810     0.6146 C.3     
  13 C13            4.2715     5.5172     2.0901 C.3     
  14 C14            5.7204     3.1013    -2.0294 C.3     
  15 C15            6.2110     3.2694    -3.4688 C.3     
  16 O16           -1.0315    -0.8878     0.0248 O.3     
  17 C17           -0.5694    -2.1697    -0.4331 C.3     
  18 C18            0.9291    -2.1516    -0.0491 C.3     
  19 C19            4.0366     6.8948     2.7130 C.3     
  20 H20           -0.9613     1.9149     0.0170 H       
  21 H21            3.3500    -0.4900    -0.0364 H       
  22 H22            1.1347     3.1834     0.0083 H       
  23 H23            2.7730     4.0140     0.0054 H       
  24 H24            5.6272     3.7660     0.5710 H       
  25 H25            4.5809     4.9294    -2.0483 H       
  26 H26            6.2505     5.1097    -1.4583 H       
  27 H27            5.5505     6.2769     0.5320 H       
  28 H28            3.8289     6.1833     0.0898 H       
  29 H29            3.3625     4.9213     2.1728 H       
  30 H30            5.0842     5.0149     2.6149 H       
  31 H31            6.5064     2.6434    -1.4288 H       
  32 H32            4.8368     2.4631    -2.0188 H       
  33 H33            6.4628     2.2931    -3.8832 H       
  34 H34            5.4250     3.7272    -4.0694 H       
  35 H35            7.0946     3.9075    -3.4794 H       
  36 H36           -1.0907    -2.9753     0.0839 H       
  37 H37           -0.6902    -2.2605    -1.5126 H       
  38 H38            1.5311    -2.6556    -0.8051 H       
  39 H39            1.0850    -2.5986     0.9327 H       
  40 H40            4.9456     7.4906     2.6304 H       
  41 H41            3.2240     7.3970     2.1883 H       
  42 H42            3.7730     6.7780     3.7642 H       
@<TRIPOS>BOND
   1    1    2 ar
   2    1    6 ar
   3    1   20 1
   4    2    3 ar
   5    2   16 1
   6    3    4 ar
   7    3   18 1
   8    4    5 ar
   9    4   21 1
  10    5    6 ar
  11    5    7 1
  12    6   22 1
  13    7    8 2
  14    7    9 am
  15    9   10 1
  16    9   23 1
  17   10   11 1
  18   10   12 1
  19   10   24 1
  20   11   14 1
  21   11   25 1
  22   11   26 1
  23   12   13 1
  24   12   27 1
  25   12   28 1
  26   13   19 1
  27   13   29 1
  28   13   30 1
  29   14   15 1
  30   14   31 1
  31   14   32 1
  32   15   33 1
  33   15   34 1
  34   15   35 1
  35   16   17 1
  36   17   18 1
  37   17   36 1
  38   17   37 1
  39   18   38 1
  40   18   39 1
  41   19   40 1
  42   19   41 1
  43   19   42 1

#	End of record

