#	Name: ASD01881353
#	Creating user name:	WinNT
#	Creation time:	15. 06. 2019 19:42

#	Modifying user name:	WinNT
#	Modification time:	15. 06. 2019 19:42

#	Program:	/corina/corina34_cracker 3.40 0067  02.08.2006

@<TRIPOS>MOLECULE
ASD01881353
  60   61    0    0    0
SMALL
NO_CHARGES


@<TRIPOS>ATOM
   1 C1            -0.0097     1.4691     0.0881 C.2     
   2 C2             0.0061    -0.0047     0.0399 C.ar    
   3 C3             1.2155    -0.6880    -0.1187 C.ar    
   4 C4             1.2257    -2.0639    -0.1632 C.ar    
   5 C5             0.0356    -2.7739    -0.0511 C.ar    
   6 C6            -1.1689    -2.0985     0.1062 C.ar    
   7 C7            -1.1874    -0.7226     0.1584 C.ar    
   8 O8             1.0359     2.0879     0.0956 O.2     
   9 O9            -1.1838     2.1297     0.1181 O.3     
  10 C10            2.5060     0.0805    -0.2412 C.3     
  11 O11            0.0501    -4.1301    -0.0959 O.3     
  12 C12           -1.2081    -4.7966     0.0252 C.3     
  13 C13           -0.9928    -6.3097    -0.0473 C.3     
  14 C14           -2.3399    -7.0233     0.0824 C.3     
  15 C15           -2.1245    -8.5364     0.0099 C.3     
  16 O16           -3.3827    -9.2029     0.1310 O.3     
  17 C17           -3.3683   -10.5588     0.0863 C.ar    
  18 C18           -4.5571   -11.2660     0.1983 C.ar    
  19 C19           -4.5448   -12.6490     0.1528 C.ar    
  20 C20           -3.3231   -13.3281    -0.0070 C.ar    
  21 C21           -2.1326   -12.5973    -0.1184 C.ar    
  22 C22           -2.1614   -11.2336    -0.0776 C.ar    
  23 C23           -3.2956   -14.7919    -0.0562 C.2     
  24 C24           -1.9849   -15.5156    -0.2275 C.3     
  25 C25           -2.2343   -17.0250    -0.2468 C.3     
  26 C26           -0.9231   -17.7549    -0.5450 C.3     
  27 O27           -4.3281   -15.4218     0.0410 O.2     
  28 C28           -2.7679   -17.4712     1.1160 C.3     
  29 C29           -5.8601   -10.5285     0.3697 C.3     
  30 O30           -5.7032   -13.3455     0.2622 O.3     
  31 H31            2.1595    -2.5925    -0.2856 H       
  32 H32           -2.0913    -2.6538     0.1922 H       
  33 H33           -2.1232    -0.1987     0.2855 H       
  34 H34           -1.1435     3.0953     0.1493 H       
  35 H35            2.8708     0.3389     0.7529 H       
  36 H36            3.2475    -0.5336    -0.7521 H       
  37 H37            2.3330     0.9922    -0.8131 H       
  38 H38           -1.6647    -4.5400     0.9812 H       
  39 H39           -1.8647    -4.4837    -0.7866 H       
  40 H40           -0.5362    -6.5663    -1.0032 H       
  41 H41           -0.3362    -6.6225     0.7646 H       
  42 H42           -2.7964    -6.7667     1.0383 H       
  43 H43           -2.9965    -6.7105    -0.7294 H       
  44 H44           -1.6680    -8.7930    -0.9460 H       
  45 H45           -1.4680    -8.8492     0.8218 H       
  46 H46           -1.1920   -13.1136    -0.2413 H       
  47 H47           -1.2419   -10.6744    -0.1686 H       
  48 H48           -1.5221   -15.2118    -1.1665 H       
  49 H49           -1.3218   -15.2675     0.6012 H       
  50 H50           -2.9661   -17.2625    -1.0190 H       
  51 H51           -0.1914   -17.5174     0.2272 H       
  52 H52           -1.1009   -18.8302    -0.5587 H       
  53 H53           -0.5430   -17.4370    -1.5158 H       
  54 H54           -2.9456   -18.5465     1.1023 H       
  55 H55           -2.0361   -17.2337     1.8881 H       
  56 H56           -3.7020   -16.9512     1.3284 H       
  57 H57           -6.2900   -10.3179    -0.6096 H       
  58 H58           -6.5522   -11.1428     0.9457 H       
  59 H59           -5.6807    -9.5915     0.8968 H       
  60 H60           -6.1388   -13.5195    -0.5834 H       
@<TRIPOS>BOND
   1    1    2 1
   2    1    8 2
   3    1    9 1
   4    2    3 ar
   5    2    7 ar
   6    3    4 ar
   7    3   10 1
   8    4    5 ar
   9    4   31 1
  10    5    6 ar
  11    5   11 1
  12    6    7 ar
  13    6   32 1
  14    7   33 1
  15    9   34 1
  16   10   35 1
  17   10   36 1
  18   10   37 1
  19   11   12 1
  20   12   13 1
  21   12   38 1
  22   12   39 1
  23   13   14 1
  24   13   40 1
  25   13   41 1
  26   14   15 1
  27   14   42 1
  28   14   43 1
  29   15   16 1
  30   15   44 1
  31   15   45 1
  32   16   17 1
  33   17   18 ar
  34   17   22 ar
  35   18   19 ar
  36   18   29 1
  37   19   20 ar
  38   19   30 1
  39   20   21 ar
  40   20   23 1
  41   21   22 ar
  42   21   46 1
  43   22   47 1
  44   23   24 1
  45   23   27 2
  46   24   25 1
  47   24   48 1
  48   24   49 1
  49   25   26 1
  50   25   28 1
  51   25   50 1
  52   26   51 1
  53   26   52 1
  54   26   53 1
  55   28   54 1
  56   28   55 1
  57   28   56 1
  58   29   57 1
  59   29   58 1
  60   29   59 1
  61   30   60 1

#	End of record

