#	Name: ASD00122085
#	Creating user name:	WinNT
#	Creation time:	15. 06. 2019 18:31

#	Modifying user name:	WinNT
#	Modification time:	15. 06. 2019 18:31

#	Program:	/corina/corina34_cracker 3.40 0067  02.08.2006

@<TRIPOS>MOLECULE
ASD00122085
  40   43    0    0    0
SMALL
NO_CHARGES


@<TRIPOS>ATOM
   1 C1            -0.0169     1.3942     0.0097 C.ar    
   2 C2             0.0021    -0.0041     0.0020 C.ar    
   3 N3            -1.1597    -0.6705     0.0091 N.ar    
   4 C4            -2.3073    -0.0326     0.0231 C.ar    
   5 N5            -2.3802     1.2861     0.0309 N.ar    
   6 C6            -1.2859     2.0337     0.0307 C.ar    
   7 C7             1.3158     1.9580     0.0000 C.2     
   8 C8             2.2992     1.0577    -0.0142 C.2     
   9 S9             1.6635    -0.5765    -0.0169 S.3     
  10 S10           -1.4025     3.7918     0.0411 S.3     
  11 C11           -3.2019     3.9874     0.0495 C.3     
  12 C12           -3.5477     5.4541     0.0592 C.ar    
  13 C13           -3.7112     6.1336    -1.1334 C.ar    
  14 C14           -4.0284     7.4790    -1.1245 C.ar    
  15 C15           -4.1826     8.1449     0.0771 C.ar    
  16 C16           -4.0200     7.4652     1.2697 C.ar    
  17 C17           -3.7071     6.1187     1.2608 C.ar    
  18 C18            3.7389     1.3937    -0.0269 C.ar    
  19 C19            4.6956     0.3777    -0.0414 C.ar    
  20 C20            6.0375     0.6981    -0.0531 C.ar    
  21 C21            6.4355     2.0232    -0.0505 C.ar    
  22 C22            5.4921     3.0352    -0.0357 C.ar    
  23 C23            4.1470     2.7284    -0.0302 C.ar    
  24 C24           -3.5846    -0.8323     0.0300 C.3     
  25 H25            1.4991     3.0223     0.0036 H       
  26 H26           -3.6222     3.5209    -0.8414 H       
  27 H27           -3.6150     3.5108     0.9385 H       
  28 H28           -3.5907     5.6134    -2.0722 H       
  29 H29           -4.1554     8.0101    -2.0563 H       
  30 H30           -4.4297     9.1962     0.0840 H       
  31 H31           -4.1401     7.9854     2.2085 H       
  32 H32           -3.5801     5.5877     2.1926 H       
  33 H33            4.3863    -0.6570    -0.0430 H       
  34 H34            6.7789    -0.0872    -0.0640 H       
  35 H35            7.4872     2.2687    -0.0598 H       
  36 H36            5.8093     4.0675    -0.0331 H       
  37 H37            3.4116     3.5193    -0.0186 H       
  38 H38           -3.8833    -1.0310     1.0593 H       
  39 H39           -4.3694    -0.2679    -0.4736 H       
  40 H40           -3.4249    -1.7765    -0.4907 H       
@<TRIPOS>BOND
   1    1    2 ar
   2    1    7 1
   3    1    6 ar
   4    2    3 ar
   5    2    9 1
   6    3    4 ar
   7    4    5 ar
   8    4   24 1
   9    5    6 ar
  10    6   10 1
  11    7    8 2
  12    7   25 1
  13    8    9 1
  14    8   18 1
  15   10   11 1
  16   11   12 1
  17   11   26 1
  18   11   27 1
  19   12   13 ar
  20   12   17 ar
  21   13   14 ar
  22   13   28 1
  23   14   15 ar
  24   14   29 1
  25   15   16 ar
  26   15   30 1
  27   16   17 ar
  28   16   31 1
  29   17   32 1
  30   18   19 ar
  31   18   23 ar
  32   19   20 ar
  33   19   33 1
  34   20   21 ar
  35   20   34 1
  36   21   22 ar
  37   21   35 1
  38   22   23 ar
  39   22   36 1
  40   23   37 1
  41   24   38 1
  42   24   39 1
  43   24   40 1

#	End of record

