#	Name: ASD01813275
#	Creating user name:	WinNT
#	Creation time:	15. 06. 2019 19:30

#	Modifying user name:	WinNT
#	Modification time:	15. 06. 2019 19:30

#	Program:	/corina/corina34_cracker 3.40 0067  02.08.2006

@<TRIPOS>MOLECULE
ASD01813275
  52   55    0    0    0
SMALL
NO_CHARGES


@<TRIPOS>ATOM
   1 C1            -0.0184     1.5028     0.0103 C.3     
   2 C2             0.0021    -0.0041     0.0020 C.ar    
   3 C3             0.0057    -0.6886    -1.1982 C.ar    
   4 C4             0.0244    -2.0711    -1.2062 C.ar    
   5 C5             0.0284    -2.8166    -2.5159 C.3     
   6 N6             1.4108    -3.0394    -2.9468 N.pl3   
   7 C7             2.0944    -2.2375    -3.7963 C.2     
   8 C8             3.3526    -2.7311    -3.9856 C.2     
   9 C9             4.4044    -2.1539    -4.8339 C.2     
  10 O10            5.4893    -2.6989    -4.9133 O.2     
  11 N11            4.1674    -1.0208    -5.5241 N.am    
  12 C12            5.2160    -0.4454    -6.3699 C.3     
  13 H13            6.1884    -0.6104    -5.9059 H       
  14 C14            5.1870    -1.1153    -7.7451 C.3     
  15 C15            6.2821    -0.5144    -8.6285 C.3     
  16 C16            6.0415     0.9881    -8.7879 C.3     
  17 C17            6.0706     1.6581    -7.4127 C.3     
  18 C18            4.9754     1.0571    -6.5294 C.3     
  19 H19            4.0030     1.2221    -6.9934 H       
  20 O20            5.0026     1.6828    -5.2450 O.3     
  21 C21            3.4499    -3.9564    -3.1719 C.ar    
  22 N22            4.4132    -4.8439    -2.9612 N.ar    
  23 C23            4.2329    -5.8764    -2.1644 C.ar    
  24 C24            3.0271    -6.0778    -1.5124 C.ar    
  25 C25            1.9901    -5.1807    -1.6985 C.ar    
  26 C26            2.2022    -4.0925    -2.5400 C.ar    
  27 C27            0.0400    -2.7700    -0.0137 C.ar    
  28 C28            0.0359    -2.0874     1.1881 C.ar    
  29 C29            0.0229    -0.7031     1.1973 C.ar    
  30 F30            0.0250    -0.0348     2.3714 F       
  31 H31            1.0042     1.8801     0.0026 H       
  32 H32           -0.5455     1.8639    -0.8728 H       
  33 H33           -0.5286     1.8543     0.9071 H       
  34 H34           -0.0064    -0.1436    -2.1305 H       
  35 H35           -0.4719    -3.7767    -2.3890 H       
  36 H36           -0.4970    -2.2299    -3.2695 H       
  37 H37            1.7029    -1.3419    -4.2556 H       
  38 H38            3.3024    -0.5863    -5.4608 H       
  39 H39            5.3584    -2.1858    -7.6315 H       
  40 H40            4.2146    -0.9503    -8.2092 H       
  41 H41            7.2545    -0.6794    -8.1644 H       
  42 H42            6.2614    -0.9917    -9.6082 H       
  43 H43            6.8218     1.4163    -9.4172 H       
  44 H44            5.0691     1.1531    -9.2520 H       
  45 H45            7.0430     1.4931    -6.9487 H       
  46 H46            5.8992     2.7285    -7.5263 H       
  47 H47            4.8568     2.6385    -5.2698 H       
  48 H48            5.0395    -6.5792    -2.0166 H       
  49 H49            2.8971    -6.9307    -0.8626 H       
  50 H50            1.0420    -5.3190    -1.2002 H       
  51 H51            0.0549    -3.8499    -0.0211 H       
  52 H52            0.0473    -2.6337     2.1197 H       
@<TRIPOS>BOND
   1    1    2 1
   2    1   31 1
   3    1   32 1
   4    1   33 1
   5    2   29 ar
   6    2    3 ar
   7    3    4 ar
   8    3   34 1
   9    4    5 1
  10    4   27 ar
  11    5    6 1
  12    5   35 1
  13    5   36 1
  14    6   26 1
  15    6    7 1
  16    7    8 2
  17    7   37 1
  18    8    9 1
  19    8   21 1
  20    9   10 2
  21    9   11 am
  22   11   12 1
  23   11   38 1
  24   12   13 1
  25   12   18 1
  26   12   14 1
  27   14   15 1
  28   14   39 1
  29   14   40 1
  30   15   16 1
  31   15   41 1
  32   15   42 1
  33   16   17 1
  34   16   43 1
  35   16   44 1
  36   17   18 1
  37   17   45 1
  38   17   46 1
  39   18   19 1
  40   18   20 1
  41   20   47 1
  42   21   26 ar
  43   21   22 ar
  44   22   23 ar
  45   23   24 ar
  46   23   48 1
  47   24   25 ar
  48   24   49 1
  49   25   26 ar
  50   25   50 1
  51   27   28 ar
  52   27   51 1
  53   28   29 ar
  54   28   52 1
  55   29   30 1

#	End of record

