#	Name: ASD03331791
#	Creating user name:	WinNT
#	Creation time:	15. 06. 2019 20:39

#	Modifying user name:	WinNT
#	Modification time:	15. 06. 2019 20:39

#	Program:	/corina/corina34_cracker 3.40 0067  02.08.2006

@<TRIPOS>MOLECULE
ASD03331791
  43   46    0    0    0
SMALL
NO_CHARGES


@<TRIPOS>ATOM
   1 C1            -0.0168     1.3851     0.0097 C.ar    
   2 C2             0.0021    -0.0041     0.0020 C.ar    
   3 C3            -1.1732    -0.7223     0.0098 C.ar    
   4 C4            -2.3925    -0.0527     0.0255 C.ar    
   5 C5            -2.4068     1.3537     0.0332 C.ar    
   6 C6            -1.2039     2.0629     0.0303 C.ar    
   7 N7            -3.7044    -0.4724     0.0363 N.pl3   
   8 C8            -4.5392     0.6115     0.0504 C.2     
   9 C9            -3.8187     1.7442     0.0494 C.2     
  10 Cl10           1.4786     2.2669     0.0001 Cl      
  11 S11           -6.2994     0.5325     0.0664 S.o2    
  12 N12           -6.7743     0.5012     1.6525 N.am    
  13 O13           -6.7613     1.7661    -0.4666 O.2     
  14 O14           -6.6493    -0.7308    -0.4823 O.2     
  15 C15           -6.5228     1.6581     2.5154 C.3     
  16 C16           -7.3530     1.5407     3.7676 C.ar    
  17 C17           -6.8395     0.8928     4.8765 C.ar    
  18 C18           -7.5953     0.7824     6.0260 C.ar    
  19 C19           -8.8780     1.3255     6.0682 C.ar    
  20 C20           -9.3901     1.9775     4.9481 C.ar    
  21 C21           -8.6236     2.0863     3.8056 C.ar    
  22 C22           -9.6955     1.2095     7.3007 C.ar    
  23 C23          -10.3146     2.3349     7.8499 C.ar    
  24 C24           -9.8627    -0.0270     7.9267 C.ar    
  25 N25          -10.5899    -0.1313     9.0227 N.ar    
  26 C26          -11.1823     0.9169     9.5671 C.ar    
  27 C27          -11.0668     2.1759     9.0007 C.ar    
  28 F28           -9.2754    -1.1264     7.4056 F       
  29 F29          -11.9167     0.7574    10.6899 F       
  30 H30            0.9476    -0.5259    -0.0105 H       
  31 H31           -1.1482    -1.8020     0.0034 H       
  32 H32           -1.2114     3.1428     0.0362 H       
  33 H33           -3.9933    -1.3984     0.0339 H       
  34 H34           -4.2063     2.7522     0.0589 H       
  35 H35           -7.2190    -0.2831     2.0102 H       
  36 H36           -5.4663     1.6900     2.7815 H       
  37 H37           -6.7918     2.5719     1.9855 H       
  38 H38           -5.8453     0.4723     4.8427 H       
  39 H39           -7.1937     0.2757     6.8910 H       
  40 H40          -10.3837     2.3999     4.9752 H       
  41 H41           -9.0193     2.5917     2.9371 H       
  42 H42          -10.2086     3.3053     7.3879 H       
  43 H43          -11.5552     3.0254     9.4548 H       
@<TRIPOS>BOND
   1    1    2 ar
   2    1   10 1
   3    1    6 ar
   4    2    3 ar
   5    2   30 1
   6    3    4 ar
   7    3   31 1
   8    4    5 ar
   9    4    7 1
  10    5    6 ar
  11    5    9 1
  12    6   32 1
  13    7    8 1
  14    7   33 1
  15    8    9 2
  16    8   11 1
  17    9   34 1
  18   11   12 am
  19   11   13 2
  20   11   14 2
  21   12   15 1
  22   12   35 1
  23   15   16 1
  24   15   36 1
  25   15   37 1
  26   16   17 ar
  27   16   21 ar
  28   17   18 ar
  29   17   38 1
  30   18   19 ar
  31   18   39 1
  32   19   20 ar
  33   19   22 1
  34   20   21 ar
  35   20   40 1
  36   21   41 1
  37   22   23 ar
  38   22   24 ar
  39   23   27 ar
  40   23   42 1
  41   24   25 ar
  42   24   28 1
  43   25   26 ar
  44   26   27 ar
  45   26   29 1
  46   27   43 1

#	End of record

