#	Name: ASD01948081
#	Creating user name:	WinNT
#	Creation time:	15. 06. 2019 20:13

#	Modifying user name:	WinNT
#	Modification time:	15. 06. 2019 20:13

#	Program:	/corina/corina34_cracker 3.40 0067  02.08.2006

@<TRIPOS>MOLECULE
ASD01948081
  46   48    0    0    0
SMALL
NO_CHARGES


@<TRIPOS>ATOM
   1 C1             0.6218     1.3965    -1.0666 C.2     
   2 C2             0.6265     0.0256    -1.1057 C.2     
   3 C3             1.2082    -0.7105    -0.0675 C.2     
   4 C4             1.7758    -0.0128     0.9936 C.2     
   5 C5             1.7481     1.3720     0.9902 C.2     
   6 N6             1.1759     2.0784    -0.0306 N.am    
   7 S7            -0.0413     2.5301    -2.2541 S.3     
   8 C8             1.1114     3.5379    -0.0976 C.3     
   9 C9             0.4146     4.0434    -1.3578 C.3     
  10 O10            2.2480     1.9787     1.9256 O.2     
  11 N11            0.0119    -0.6799    -2.2531 N.pl3   
  12 O12           -0.5871    -0.0493    -3.1057 O.2     
  13 O13            0.1054    -1.8908    -2.3445 O.2     
  14 C14            2.4149    -0.7572     2.1375 C.3     
  15 N15            1.2182    -2.0955    -0.0955 N.pl3   
  16 C16            0.0153    -2.8055    -0.0165 C.ar    
  17 C17            0.0112    -4.1890    -0.1633 C.ar    
  18 C18           -1.1798    -4.8866    -0.0840 C.ar    
  19 C19           -2.3652    -4.2100     0.1404 C.ar    
  20 C20           -2.3634    -2.8354     0.2866 C.ar    
  21 C21           -1.1762    -2.1320     0.2143 C.ar    
  22 Si22          -3.9724    -5.1561     0.2456 Si      
  23 C23           -4.2844    -5.6557     2.0130 C.3     
  24 C24           -5.3688    -4.0763    -0.3502 C.3     
  25 C25           -3.8671    -6.6798    -0.8211 C.3     
  26 F26            1.1689    -4.8495    -0.3834 F       
  27 H27            0.5727     3.9064     0.7754 H       
  28 H28            2.1258     3.9360    -0.0747 H       
  29 H29            1.1001     4.6470    -1.9526 H       
  30 H30           -0.4758     4.6173    -1.1010 H       
  31 H31            3.4705    -0.9202     1.9203 H       
  32 H32            2.3183    -0.1713     3.0515 H       
  33 H33            1.9181    -1.7186     2.2680 H       
  34 H34            2.0593    -2.5731    -0.1698 H       
  35 H35           -1.1846    -5.9606    -0.1978 H       
  36 H36           -3.2910    -2.3107     0.4617 H       
  37 H37           -1.1759    -1.0585     0.3328 H       
  38 H38           -4.3460    -4.7642     2.6372 H       
  39 H39           -5.2222    -6.2078     2.0744 H       
  40 H40           -3.4674    -6.2875     2.3616 H       
  41 H41           -5.1863    -3.7840    -1.3843 H       
  42 H42           -6.3067    -4.6283    -0.2888 H       
  43 H43           -5.4305    -3.1848     0.2739 H       
  44 H44           -3.0501    -7.3116    -0.4725 H       
  45 H45           -4.8049    -7.2319    -0.7597 H       
  46 H46           -3.6846    -6.3875    -1.8552 H       
@<TRIPOS>BOND
   1    1    2 2
   2    1    6 1
   3    1    7 1
   4    2    3 1
   5    2   11 1
   6    3    4 2
   7    3   15 1
   8    4    5 1
   9    4   14 1
  10    5    6 am
  11    5   10 2
  12    6    8 1
  13    7    9 1
  14    8    9 1
  15    8   27 1
  16    8   28 1
  17    9   29 1
  18    9   30 1
  19   11   12 2
  20   11   13 2
  21   14   31 1
  22   14   32 1
  23   14   33 1
  24   15   16 1
  25   15   34 1
  26   16   17 ar
  27   16   21 ar
  28   17   18 ar
  29   17   26 1
  30   18   19 ar
  31   18   35 1
  32   19   20 ar
  33   19   22 1
  34   20   21 ar
  35   20   36 1
  36   21   37 1
  37   22   23 1
  38   22   24 1
  39   22   25 1
  40   23   38 1
  41   23   39 1
  42   23   40 1
  43   24   41 1
  44   24   42 1
  45   24   43 1
  46   25   44 1
  47   25   45 1
  48   25   46 1

#	End of record

