#	Name: ASD01811259
#	Creating user name:	WinNT
#	Creation time:	15. 06. 2019 19:26

#	Modifying user name:	WinNT
#	Modification time:	15. 06. 2019 19:26

#	Program:	/corina/corina34_cracker 3.40 0067  02.08.2006

@<TRIPOS>MOLECULE
ASD01811259
  64   68    0    0    0
SMALL
NO_CHARGES


@<TRIPOS>ATOM
   1 C1            -7.6482     2.4705    -4.1256 C.1     
   2 C2            -6.6388     3.2231    -3.4435 C.ar    
   3 C3            -5.4750     2.5931    -2.9982 C.ar    
   4 C4            -4.5067     3.3242    -2.3418 C.ar    
   5 C5            -4.6869     4.6786    -2.1239 C.ar    
   6 C6            -5.8380     5.3092    -2.5621 C.ar    
   7 C7            -6.8113     4.5916    -3.2258 C.ar    
   8 N8            -8.4489     1.8734    -4.6667 N.1     
   9 N9            -2.5293     7.8370    -0.3101 N.am    
  10 C10           -2.0093     7.3656    -1.6009 C.3     
  11 C11           -3.1127     6.5846    -2.3215 C.3     
  12 C12           -3.6249     5.4706    -1.4056 C.3     
  13 C13           -4.2183     6.0845    -0.1355 C.3     
  14 C14           -3.1274     6.8599     0.6098 C.3     
  15 C15           -2.4540     9.1400     0.0260 C.2     
  16 C16           -3.0579     9.6135     1.2900 C.ar    
  17 C17           -3.9978    10.6467     1.2728 C.ar    
  18 C18           -4.5624    11.0898     2.4520 C.ar    
  19 C19           -4.2022    10.5161     3.6556 C.ar    
  20 C20           -3.2640     9.4827     3.6869 C.ar    
  21 C21           -2.6949     9.0264     2.5001 C.ar    
  22 O22           -1.8897     9.9258    -0.7098 O.2     
  23 C23           -2.8793     8.8698     4.9771 C.2     
  24 N24           -3.4180     9.1353     6.1462 N.2     
  25 C25           -2.8198     8.3946     7.0862 C.2     
  26 C26           -1.8740     7.6379     6.4933 C.2     
  27 N27           -1.9086     7.9281     5.1560 N.pl3   
  28 O28           -0.6247     7.1127     8.5022 O.3     
  29 C29           -0.9567     6.6545     7.1734 C.3     
  30 C30           -1.6789     5.3062     7.3897 C.3     
  31 C31           -1.1642     4.8207     8.7633 C.3     
  32 C32           -0.1918     5.9331     9.2143 C.3     
  33 C33           -4.8231    11.0070     4.9380 C.3     
  34 C34           -4.3960    11.2792    -0.0358 C.3     
  35 H35           -5.3334     1.5358    -3.1670 H       
  36 H36           -3.6061     2.8382    -1.9968 H       
  37 H37           -5.9724     6.3666    -2.3884 H       
  38 H38           -7.7071     5.0859    -3.5716 H       
  39 H39           -1.7101     8.2199    -2.2082 H       
  40 H40           -1.1509     6.7151    -1.4335 H       
  41 H41           -3.9331     7.2582    -2.5688 H       
  42 H42           -2.7115     6.1480    -3.2361 H       
  43 H43           -2.7989     4.8115    -1.1384 H       
  44 H44           -5.0283     6.7629    -0.4034 H       
  45 H45           -4.6040     5.2919     0.5058 H       
  46 H46           -2.3602     6.1681     0.9575 H       
  47 H47           -3.5660     7.3804     1.4612 H       
  48 H48           -5.2886    11.8889     2.4333 H       
  49 H49           -1.9723     8.2240     2.5185 H       
  50 H50           -3.0539     8.4020     8.1405 H       
  51 H51           -1.3479     7.5393     4.4665 H       
  52 H52           -0.0508     6.5095     6.5847 H       
  53 H53           -2.7589     5.4514     7.4161 H       
  54 H54           -1.4069     4.5974     6.6076 H       
  55 H55           -1.9897     4.7259     9.4687 H       
  56 H56           -0.6377     3.8719     8.6602 H       
  57 H57            0.8313     5.6775     8.9386 H       
  58 H58           -0.2678     6.0902    10.2902 H       
  59 H59           -5.6682    10.3703     5.1996 H       
  60 H60           -4.0820    10.9734     5.7366 H       
  61 H61           -5.1681    12.0324     4.8054 H       
  62 H62           -5.1864    10.6886    -0.4992 H       
  63 H63           -4.7574    12.2915     0.1451 H       
  64 H64           -3.5323    11.3150    -0.6998 H       
@<TRIPOS>BOND
   1    1    2 1
   2    1    8 3
   3    2    3 ar
   4    2    7 ar
   5    3    4 ar
   6    3   35 1
   7    4    5 ar
   8    4   36 1
   9    5    6 ar
  10    5   12 1
  11    6    7 ar
  12    6   37 1
  13    7   38 1
  14    9   10 1
  15    9   14 1
  16    9   15 am
  17   10   11 1
  18   10   39 1
  19   10   40 1
  20   11   12 1
  21   11   41 1
  22   11   42 1
  23   12   13 1
  24   12   43 1
  25   13   14 1
  26   13   44 1
  27   13   45 1
  28   14   46 1
  29   14   47 1
  30   15   16 1
  31   15   22 2
  32   16   17 ar
  33   16   21 ar
  34   17   18 ar
  35   17   34 1
  36   18   19 ar
  37   18   48 1
  38   19   20 ar
  39   19   33 1
  40   20   21 ar
  41   20   23 1
  42   21   49 1
  43   23   24 2
  44   23   27 1
  45   24   25 1
  46   25   26 2
  47   25   50 1
  48   26   27 1
  49   26   29 1
  50   27   51 1
  51   28   29 1
  52   28   32 1
  53   29   30 1
  54   29   52 1
  55   30   31 1
  56   30   53 1
  57   30   54 1
  58   31   32 1
  59   31   55 1
  60   31   56 1
  61   32   57 1
  62   32   58 1
  63   33   59 1
  64   33   60 1
  65   33   61 1
  66   34   62 1
  67   34   63 1
  68   34   64 1

#	End of record

