#	Name: ASD03542003
#	Creating user name:	WinNT
#	Creation time:	15. 06. 2019 20:43

#	Modifying user name:	WinNT
#	Modification time:	15. 06. 2019 20:43

#	Program:	/corina/corina34_cracker 3.40 0067  02.08.2006

@<TRIPOS>MOLECULE
ASD03542003
  38   41    0    0    0
SMALL
NO_CHARGES


@<TRIPOS>ATOM
   1 C1            -0.0208     1.4429     0.4439 C.ar    
   2 C2            -0.0213     0.0618     0.2972 C.ar    
   3 C3             1.1674    -0.6117     0.1212 C.ar    
   4 C4             2.3606     0.0974     0.0917 C.ar    
   5 C5             2.3737     1.4958     0.2390 C.ar    
   6 C6             1.1408     2.1528     0.4172 C.ar    
   7 S7             4.0480    -0.3797    -0.1083 S.3     
   8 N8             4.6973     1.1804    -0.0001 N.2     
   9 C9             3.7307     2.0286     0.1755 C.2     
  10 N10            3.9740     3.3672     0.2957 N.2     
  11 C11            5.2069     3.8191     0.2346 C.2     
  12 S12            6.6759     2.8558     0.0024 S.3     
  13 C13            7.7744     4.2479     0.0524 C.2     
  14 C14            6.8934     5.4050     0.2531 C.2     
  15 N15            5.6033     5.1246     0.3322 N.am    
  16 O16            7.3194     6.5419     0.3361 O.2     
  17 C17            9.1255     4.2441    -0.0674 C.2     
  18 C18            9.8571     5.5143    -0.1790 C.ar    
  19 C19           11.0726     5.6860     0.4908 C.ar    
  20 C20           11.7548     6.8850     0.3797 C.ar    
  21 C21           11.2331     7.9132    -0.3945 C.ar    
  22 C22           10.0305     7.7465    -1.0580 C.ar    
  23 C23            9.3432     6.5553    -0.9608 C.ar    
  24 O24           12.9362     7.0565     1.0292 O.3     
  25 C25           13.5865     8.3191     0.8704 C.3     
  26 H26           -0.9580     1.9631     0.5768 H       
  27 H27           -0.9530    -0.4838     0.3215 H       
  28 H28            1.1712    -1.6856     0.0072 H       
  29 H29            1.1165     3.2263     0.5330 H       
  30 H30            4.9513     5.8305     0.4644 H       
  31 H31            9.6638     3.3079    -0.0808 H       
  32 H32           11.4773     4.8859     1.0929 H       
  33 H33           11.7684     8.8473    -0.4788 H       
  34 H34            9.6311     8.5508    -1.6579 H       
  35 H35            8.4047     6.4288    -1.4801 H       
  36 H36           12.9339     9.1123     1.2350 H       
  37 H37           14.5161     8.3231     1.4394 H       
  38 H38           13.8054     8.4849    -0.1845 H       
@<TRIPOS>BOND
   1    1    2 ar
   2    1    6 ar
   3    1   26 1
   4    2    3 ar
   5    2   27 1
   6    3    4 ar
   7    3   28 1
   8    4    5 ar
   9    4    7 1
  10    5    6 ar
  11    5    9 1
  12    6   29 1
  13    7    8 1
  14    8    9 2
  15    9   10 1
  16   10   11 2
  17   11   12 1
  18   11   15 1
  19   12   13 1
  20   13   14 1
  21   13   17 2
  22   14   15 am
  23   14   16 2
  24   15   30 1
  25   17   18 1
  26   17   31 1
  27   18   19 ar
  28   18   23 ar
  29   19   20 ar
  30   19   32 1
  31   20   21 ar
  32   20   24 1
  33   21   22 ar
  34   21   33 1
  35   22   23 ar
  36   22   34 1
  37   23   35 1
  38   24   25 1
  39   25   36 1
  40   25   37 1
  41   25   38 1

#	End of record

