#	Name: ASD01900677
#	Creating user name:	WinNT
#	Creation time:	15. 06. 2019 19:52

#	Modifying user name:	WinNT
#	Modification time:	15. 06. 2019 19:52

#	Program:	/corina/corina34_cracker 3.40 0067  02.08.2006

@<TRIPOS>MOLECULE
ASD01900677
  35   38    0    0    0
SMALL
NO_CHARGES


@<TRIPOS>ATOM
   1 C1            -0.0185     1.4168     0.1361 C.ar    
   2 C2            -0.0085     0.0184     0.1250 C.ar    
   3 C3             1.1987    -0.6772     0.0641 C.ar    
   4 C4             2.3955     0.0199     0.0141 C.ar    
   5 C5             2.3732     1.4223     0.0304 C.ar    
   6 O6             3.5708    -0.6418    -0.0572 O.3     
   7 C7             4.7425    -0.0314     0.1903 C.2     
   8 C8             4.8748     1.3156     0.2214 C.2     
   9 C9             3.6731     2.1397    -0.0101 C.2     
  10 C10            5.9357    -0.8650     0.4381 C.ar    
  11 N11            7.1074    -0.2726     0.6855 N.ar    
  12 C12            8.2060    -0.9477     0.9144 C.ar    
  13 C13            8.1882    -2.3536     0.9066 C.ar    
  14 C14            6.9621    -3.0222     0.6476 C.ar    
  15 C15            5.8154    -2.2458     0.4148 C.ar    
  16 C16            9.3451    -3.1102     1.1459 C.ar    
  17 C17            9.2749    -4.4706     1.1264 C.ar    
  18 C18            8.0716    -5.1259     0.8718 C.ar    
  19 C19            6.9275    -4.4251     0.6360 C.ar    
  20 C20            1.1687     2.1140     0.0889 C.ar    
  21 N21            3.7483     3.4281    -0.2390 N.2     
  22 O22            2.5865     4.1517    -0.6022 O.3     
  23 C23           -1.2444    -0.7031     0.1771 C.1     
  24 N24           -2.2248    -1.2755     0.2183 N.1     
  25 H25           -0.9569     1.9499     0.1770 H       
  26 H26            1.2009    -1.7571     0.0563 H       
  27 H27            5.8339     1.7744     0.4112 H       
  28 H28            9.1293    -0.4226     1.1095 H       
  29 H29            4.8630    -2.7138     0.2143 H       
  30 H30           10.2854    -2.6174     1.3440 H       
  31 H31           10.1668    -5.0510     1.3109 H       
  32 H32            8.0457    -6.2056     0.8619 H       
  33 H33            6.0013    -4.9450     0.4403 H       
  34 H34            1.1638     3.1940     0.0973 H       
  35 H35            2.7408     5.0947    -0.7504 H       
@<TRIPOS>BOND
   1    1    2 ar
   2    1   20 ar
   3    1   25 1
   4    2    3 ar
   5    2   23 1
   6    3    4 ar
   7    3   26 1
   8    4    5 ar
   9    4    6 1
  10    5   20 ar
  11    5    9 1
  12    6    7 1
  13    7    8 2
  14    7   10 1
  15    8    9 1
  16    8   27 1
  17    9   21 2
  18   10   11 ar
  19   10   15 ar
  20   11   12 ar
  21   12   13 ar
  22   12   28 1
  23   13   14 ar
  24   13   16 ar
  25   14   15 ar
  26   14   19 ar
  27   15   29 1
  28   16   17 ar
  29   16   30 1
  30   17   18 ar
  31   17   31 1
  32   18   19 ar
  33   18   32 1
  34   19   33 1
  35   20   34 1
  36   21   22 1
  37   22   35 1
  38   23   24 3

#	End of record

