#	Name: ASD01910251
#	Creating user name:	WinNT
#	Creation time:	15. 06. 2019 19:55

#	Modifying user name:	WinNT
#	Modification time:	15. 06. 2019 19:55

#	Program:	/corina/corina34_cracker 3.40 0067  02.08.2006

@<TRIPOS>MOLECULE
ASD01910251
  49   53    0    0    0
SMALL
NO_CHARGES


@<TRIPOS>ATOM
   1 C1             0.4143     1.0209    -0.1749 C.2     
   2 C2             1.5041     2.0600    -0.1142 C.3     
   3 C3             1.4127     2.9684    -1.3425 C.3     
   4 C4             2.5390     4.0035    -1.2985 C.3     
   5 C5             2.3830     4.8691    -0.0443 C.3     
   6 N6             2.3243     3.9909     1.1322 N.am    
   7 C7             1.3363     2.9036     1.1534 C.3     
   8 C8             3.1608     4.1790     2.1720 C.2     
   9 O9             4.0651     4.9867     2.0861 O.2     
  10 N10            0.5789    -0.2781    -0.2055 N.2     
  11 C11           -0.6672    -0.8010    -0.2558 C.2     
  12 N12           -1.5069     0.2016    -0.2528 N.2     
  13 O13           -0.9020     1.2517    -0.2016 O.3     
  14 C14           -1.0163    -2.2423    -0.3059 C.ar    
  15 C15           -2.3521    -2.6364    -0.3552 C.ar    
  16 C16           -2.6722    -3.9774    -0.4022 C.ar    
  17 C17           -1.6678    -4.9320    -0.4004 C.ar    
  18 C18           -0.3383    -4.5445    -0.3515 C.ar    
  19 C19           -0.0092    -3.2055    -0.3097 C.ar    
  20 F20           -1.9857    -6.2443    -0.4461 F       
  21 N21            1.8712     2.6721     3.5765 N.ar    
  22 C22            1.6419     1.9608     4.6506 C.ar    
  23 C23            2.5783     1.9417     5.7012 C.ar    
  24 C24            3.7682     2.7048     5.5714 C.ar    
  25 C25            3.9585     3.4486     4.3937 C.ar    
  26 C26            2.9784     3.4027     3.4179 C.ar    
  27 C27            2.3674     1.1922     6.8675 C.ar    
  28 C28            3.3055     1.2079     7.8559 C.ar    
  29 C29            4.4730     1.9570     7.7278 C.ar    
  30 C30            4.7120     2.6974     6.6090 C.ar    
  31 H31            2.4762     1.5672    -0.0978 H       
  32 H32            1.5072     2.3671    -2.2467 H       
  33 H33            0.4498     3.4793    -1.3454 H       
  34 H34            3.5016     3.4928    -1.2706 H       
  35 H35            2.4874     4.6353    -2.1853 H       
  36 H36            3.2362     5.5417     0.0441 H       
  37 H37            1.4630     5.4497    -0.1131 H       
  38 H38            0.3310     3.3238     1.1823 H       
  39 H39            1.4989     2.2793     2.0320 H       
  40 H40           -3.1355    -1.8930    -0.3563 H       
  41 H41           -3.7072    -4.2837    -0.4401 H       
  42 H42            0.4414    -5.2918    -0.3503 H       
  43 H43            1.0273    -2.9043    -0.2716 H       
  44 H44            0.7307     1.3868     4.7314 H       
  45 H45            4.8496     4.0426     4.2538 H       
  46 H46            1.4672     0.6066     6.9819 H       
  47 H47            3.1410     0.6303     8.7535 H       
  48 H48            5.1993     1.9513     8.5272 H       
  49 H49            5.6213     3.2737     6.5217 H       
@<TRIPOS>BOND
   1    1   10 2
   2    1    2 1
   3    1   13 1
   4    2    3 1
   5    2    7 1
   6    2   31 1
   7    3    4 1
   8    3   32 1
   9    3   33 1
  10    4    5 1
  11    4   34 1
  12    4   35 1
  13    5    6 1
  14    5   36 1
  15    5   37 1
  16    6    7 1
  17    6    8 am
  18    7   38 1
  19    7   39 1
  20    8    9 2
  21    8   26 1
  22   10   11 1
  23   11   12 2
  24   11   14 1
  25   12   13 1
  26   14   15 ar
  27   14   19 ar
  28   15   16 ar
  29   15   40 1
  30   16   17 ar
  31   16   41 1
  32   17   18 ar
  33   17   20 1
  34   18   19 ar
  35   18   42 1
  36   19   43 1
  37   21   22 ar
  38   21   26 ar
  39   22   23 ar
  40   22   44 1
  41   23   24 ar
  42   23   27 ar
  43   24   25 ar
  44   24   30 ar
  45   25   26 ar
  46   25   45 1
  47   27   28 ar
  48   27   46 1
  49   28   29 ar
  50   28   47 1
  51   29   30 ar
  52   29   48 1
  53   30   49 1

#	End of record

