#	Name: ASD01150236
#	Creating user name:	WinNT
#	Creation time:	15. 06. 2019 19:03

#	Modifying user name:	WinNT
#	Modification time:	15. 06. 2019 19:03

#	Program:	/corina/corina34_cracker 3.40 0067  02.08.2006

@<TRIPOS>MOLECULE
ASD01150236
  61   65    0    0    0
SMALL
NO_CHARGES


@<TRIPOS>ATOM
   1 C1             0.0036     1.1429    -0.5798 C.ar    
   2 C2            -0.0084    -0.2563    -0.5892 C.ar    
   3 C3            -1.1712    -0.9467    -0.4492 C.ar    
   4 C4            -2.3853    -0.2547    -0.2919 C.ar    
   5 C5            -2.3782     1.1615    -0.2817 C.ar    
   6 C6            -1.1689     1.8522    -0.4218 C.ar    
   7 N7            -3.5389    -0.9172    -0.1533 N.ar    
   8 C8            -4.6820    -0.2916    -0.0059 C.ar    
   9 C9            -4.7629     1.0957     0.0147 C.ar    
  10 C10           -3.6068     1.8525    -0.1226 C.ar    
  11 N11            1.2125     1.8264    -0.7257 N.3     
  12 C12           -3.6551     3.3323    -0.1055 C.ar    
  13 C13           -6.0973     1.7747     0.1860 C.3     
  14 C14           -6.8794     1.7008    -1.1270 C.3     
  15 O15           -6.8365     1.1188     1.2182 O.3     
  16 C16           -5.9446    -1.1004     0.1452 C.3     
  17 C17           -3.0378     4.0408     0.9256 C.ar    
  18 C18           -3.0852     5.4191     0.9368 C.ar    
  19 C19           -3.7451     6.1003    -0.0738 C.ar    
  20 C20           -4.3599     5.4010    -1.1004 C.ar    
  21 C21           -4.3132     4.0228    -1.1236 C.ar    
  22 F22           -3.7895     7.4505    -0.0580 F       
  23 C23            2.3328     0.8886    -0.8732 C.3     
  24 C24            3.6152     1.6672    -1.1754 C.3     
  25 C25            3.8928     2.6474    -0.0323 C.3     
  26 C26            2.6907     3.5814     0.1319 C.3     
  27 C27            1.4351     2.7474     0.3962 C.3     
  28 C28           -7.7048     1.8787     1.9320 C.ar    
  29 C29           -8.4519     1.2981     2.9485 C.ar    
  30 C30           -9.3343     2.0843     3.6692 C.ar    
  31 C31           -9.4381     3.4298     3.3455 C.ar    
  32 C32           -8.6640     3.9401     2.3220 C.ar    
  33 N33           -7.8277     3.1666     1.6565 N.ar    
  34 H34            0.9195    -0.7956    -0.7099 H       
  35 H35           -1.1626    -2.0266    -0.4590 H       
  36 H36           -1.1550     2.9321    -0.4151 H       
  37 H37           -5.9416     2.8187     0.4579 H       
  38 H38           -6.3780     2.3050    -1.8830 H       
  39 H39           -6.9280     0.6651    -1.4631 H       
  40 H40           -7.8893     2.0797    -0.9701 H       
  41 H41           -6.0996    -1.3389     1.1974 H       
  42 H42           -6.7920    -0.5237    -0.2254 H       
  43 H43           -5.8553    -2.0237    -0.4273 H       
  44 H44           -2.5239     3.5108     1.7140 H       
  45 H45           -2.6076     5.9685     1.7346 H       
  46 H46           -4.8732     5.9363    -1.8855 H       
  47 H47           -4.7923     3.4788    -1.9242 H       
  48 H48            2.4592     0.3255     0.0515 H       
  49 H49            2.1246     0.1999    -1.6920 H       
  50 H50            4.4495     0.9720    -1.2694 H       
  51 H51            3.4944     2.2196    -2.1073 H       
  52 H52            4.0522     2.0928     0.8924 H       
  53 H53            4.7815     3.2346    -0.2637 H       
  54 H54            2.8644     4.2539     0.9720 H       
  55 H55            2.5554     4.1640    -0.7794 H       
  56 H56            0.5749     3.4087     0.4994 H       
  57 H57            1.5657     2.1756     1.3150 H       
  58 H58           -8.3462     0.2471     3.1735 H       
  59 H59           -9.9286     1.6602     4.4650 H       
  60 H60          -10.1172     4.0709     3.8879 H       
  61 H61           -8.7413     4.9864     2.0659 H       
@<TRIPOS>BOND
   1    1    2 ar
   2    1   11 1
   3    1    6 ar
   4    2    3 ar
   5    2   34 1
   6    3    4 ar
   7    3   35 1
   8    4    5 ar
   9    4    7 ar
  10    5    6 ar
  11    5   10 ar
  12    6   36 1
  13    7    8 ar
  14    8    9 ar
  15    8   16 1
  16    9   10 ar
  17    9   13 1
  18   10   12 1
  19   11   23 1
  20   11   27 1
  21   12   17 ar
  22   12   21 ar
  23   13   14 1
  24   13   15 1
  25   13   37 1
  26   14   38 1
  27   14   39 1
  28   14   40 1
  29   15   28 1
  30   16   41 1
  31   16   42 1
  32   16   43 1
  33   17   18 ar
  34   17   44 1
  35   18   19 ar
  36   18   45 1
  37   19   20 ar
  38   19   22 1
  39   20   21 ar
  40   20   46 1
  41   21   47 1
  42   23   24 1
  43   23   48 1
  44   23   49 1
  45   24   25 1
  46   24   50 1
  47   24   51 1
  48   25   26 1
  49   25   52 1
  50   25   53 1
  51   26   27 1
  52   26   54 1
  53   26   55 1
  54   27   56 1
  55   27   57 1
  56   28   29 ar
  57   28   33 ar
  58   29   30 ar
  59   29   58 1
  60   30   31 ar
  61   30   59 1
  62   31   32 ar
  63   31   60 1
  64   32   33 ar
  65   32   61 1

#	End of record

