#	Name: ASD03331010
#	Creating user name:	WinNT
#	Creation time:	15. 06. 2019 20:38

#	Modifying user name:	WinNT
#	Modification time:	15. 06. 2019 20:38

#	Program:	/corina/corina34_cracker 3.40 0067  02.08.2006

@<TRIPOS>MOLECULE
ASD03331010
  71   74    0    0    0
SMALL
NO_CHARGES


@<TRIPOS>ATOM
   1 N1            -0.8205     1.7203    -0.3876 N.pl3   
   2 C2            -0.6635     0.4005    -0.1014 C.2     
   3 C3             0.6353    -0.2702     0.2628 C.3     
   4 N4             1.3227     0.5336     1.2855 N.3     
   5 C5             2.1866     1.5447     0.6730 C.3     
   6 C6             1.5852     2.0582    -0.6322 C.3     
   7 C7             0.2391     2.7323    -0.3529 C.3     
   8 C8            -2.1349     1.9180    -0.6960 C.2     
   9 N9            -2.7674     0.7732    -0.5875 N.2     
  10 C10           -1.8878    -0.1838    -0.2191 C.2     
  11 C11           -2.1978    -1.6056     0.0133 C.2     
  12 O12           -1.3150    -2.3744     0.3431 O.2     
  13 N13           -3.4596    -2.0539    -0.1396 N.am    
  14 C14            2.0845    -0.3231     2.2041 C.3     
  15 C15           -2.7451     3.2074    -1.0868 C.ar    
  16 C16           -3.5962     3.2745    -2.1933 C.ar    
  17 C17           -4.1625     4.4832    -2.5521 C.ar    
  18 C18           -3.8875     5.6232    -1.8188 C.ar    
  19 C19           -3.0455     5.5621    -0.7227 C.ar    
  20 C20           -2.4782     4.3609    -0.3494 C.ar    
  21 C21           -2.7518     6.8100     0.0694 C.3     
  22 F22           -3.4390     7.8914    -0.4923 F       
  23 F23           -3.1670     6.6306     1.3933 F       
  24 F24           -1.3768     7.0665     0.0426 F       
  25 F25           -3.8644     2.1613    -2.9103 F       
  26 C26           -4.9967    -3.8483    -0.6930 C.2     
  27 C27           -3.7677    -3.4674     0.0915 C.3     
  28 C28           -4.0231    -3.6966     1.5825 C.3     
  29 C29           -4.4362    -5.1518     1.8114 C.3     
  30 O30           -5.8398    -3.0130    -0.9429 O.2     
  31 O31           -5.0733    -7.2894    -2.7996 O.3     
  32 C32           -6.0194    -6.2581    -3.0910 C.3     
  33 C33           -6.3974    -5.5380    -1.7915 C.3     
  34 N34           -5.1591    -5.1173    -1.1170 N.am    
  35 C35           -4.1031    -6.1229    -0.9195 C.3     
  36 C36           -3.8369    -6.8144    -2.2615 C.3     
  37 C37           -2.7457    -3.3990     2.3703 C.3     
  38 C38           -5.1427    -2.7680     2.0568 C.3     
  39 H39            0.4330    -1.2660     0.6573 H       
  40 H40            1.2655    -0.3491    -0.6230 H       
  41 H41            2.3074     2.3788     1.3642 H       
  42 H42            3.1630     1.1054     0.4690 H       
  43 H43            2.2649     2.7800    -1.0850 H       
  44 H44            1.4371     1.2227    -1.3163 H       
  45 H45            0.0457     3.4888    -1.1134 H       
  46 H46            0.2634     3.2009     0.6309 H       
  47 H47           -4.1636    -1.4407    -0.4026 H       
  48 H48            2.7820    -0.9370     1.6341 H       
  49 H49            2.6387     0.2997     2.9063 H       
  50 H50            1.3982    -0.9676     2.7533 H       
  51 H51           -4.8206     4.5377    -3.4067 H       
  52 H52           -4.3317     6.5655    -2.1035 H       
  53 H53           -1.8252     4.3148     0.5096 H       
  54 H54           -2.9261    -4.0802    -0.2314 H       
  55 H55           -3.6357    -5.8132     1.4797 H       
  56 H56           -4.6246    -5.3134     2.8728 H       
  57 H57           -5.3424    -5.3657     1.2448 H       
  58 H58           -5.5779    -5.5450    -3.7872 H       
  59 H59           -6.9118    -6.6979    -3.5363 H       
  60 H60           -7.0063    -4.6634    -2.0202 H       
  61 H61           -6.9554    -6.2156    -1.1453 H       
  62 H62           -3.1926    -5.6355    -0.5707 H       
  63 H63           -4.4301    -6.8594    -0.1855 H       
  64 H64           -3.1591    -7.6545    -2.1100 H       
  65 H65           -3.3874    -6.1034    -2.9546 H       
  66 H66           -2.4514    -2.3623     2.2072 H       
  67 H67           -2.9276    -3.5623     3.4326 H       
  68 H68           -1.9480    -4.0606     2.0324 H       
  69 H69           -6.0528    -2.9799     1.4955 H       
  70 H70           -5.3246    -2.9312     3.1190 H       
  71 H71           -4.8484    -1.7312     1.8937 H       
@<TRIPOS>BOND
   1    1    2 1
   2    1    7 1
   3    1    8 1
   4    2    3 1
   5    2   10 2
   6    3    4 1
   7    3   39 1
   8    3   40 1
   9    4    5 1
  10    4   14 1
  11    5    6 1
  12    5   41 1
  13    5   42 1
  14    6    7 1
  15    6   43 1
  16    6   44 1
  17    7   45 1
  18    7   46 1
  19    8    9 2
  20    8   15 1
  21    9   10 1
  22   10   11 1
  23   11   12 2
  24   11   13 am
  25   13   27 1
  26   13   47 1
  27   14   48 1
  28   14   49 1
  29   14   50 1
  30   15   16 ar
  31   15   20 ar
  32   16   17 ar
  33   16   25 1
  34   17   18 ar
  35   17   51 1
  36   18   19 ar
  37   18   52 1
  38   19   20 ar
  39   19   21 1
  40   20   53 1
  41   21   22 1
  42   21   23 1
  43   21   24 1
  44   26   30 2
  45   26   34 am
  46   26   27 1
  47   27   28 1
  48   27   54 1
  49   28   29 1
  50   28   37 1
  51   28   38 1
  52   29   55 1
  53   29   56 1
  54   29   57 1
  55   31   32 1
  56   31   36 1
  57   32   33 1
  58   32   58 1
  59   32   59 1
  60   33   34 1
  61   33   60 1
  62   33   61 1
  63   34   35 1
  64   35   36 1
  65   35   62 1
  66   35   63 1
  67   36   64 1
  68   36   65 1
  69   37   66 1
  70   37   67 1
  71   37   68 1
  72   38   69 1
  73   38   70 1
  74   38   71 1

#	End of record

