#	Name: ASD01912883
#	Creating user name:	WinNT
#	Creation time:	15. 06. 2019 20:00

#	Modifying user name:	WinNT
#	Modification time:	15. 06. 2019 20:00

#	Program:	/corina/corina34_cracker 3.40 0067  02.08.2006

@<TRIPOS>MOLECULE
ASD01912883
  38   41    0    0    0
SMALL
NO_CHARGES


@<TRIPOS>ATOM
   1 C1            -0.0165     1.3669     0.0096 C.2     
   2 N2             0.0021    -0.0041     0.0020 N.pl3   
   3 C3            -1.2023    -0.6921     0.0091 C.2     
   4 C4            -2.3629    -0.0500     0.0230 C.2     
   5 N5            -2.4359     1.3309     0.0306 N.am    
   6 C6            -1.3019     2.0668     0.0309 C.2     
   7 C7             1.3014     1.7836    -0.0008 C.2     
   8 C8             2.0550     0.6110    -0.0143 C.2     
   9 N9             1.2244    -0.4045    -0.0118 N.2     
  10 O10           -1.3488     3.2837     0.0380 O.2     
  11 C11           -3.6787     1.9639     0.0448 C.ar    
  12 C12            3.5595     0.5249    -0.0298 C.3     
  13 O13            4.1120     1.8427    -0.0288 O.3     
  14 C14            5.4672     1.9435    -0.0419 C.ar    
  15 C15            6.0711     3.1925    -0.0417 C.ar    
  16 C16            7.4489     3.2923    -0.0551 C.ar    
  17 C17            8.2259     2.1487    -0.0688 C.ar    
  18 C18            7.6265     0.9027    -0.0694 C.ar    
  19 C19            6.2491     0.7976    -0.0498 C.ar    
  20 C20           -4.8370     1.2041     0.1563 C.ar    
  21 C21           -6.0643     1.8445     0.1692 C.ar    
  22 C22           -6.0903     3.2281     0.0696 C.ar    
  23 C23           -4.8987     3.9212    -0.0387 C.ar    
  24 N24           -3.7435     3.2835    -0.0428 N.ar    
  25 Br25          -4.9246     5.8071    -0.1755 Br      
  26 H26           -1.1950    -1.7721     0.0029 H       
  27 H27           -3.2784    -0.6228     0.0281 H       
  28 H28            1.6684     2.7994     0.0006 H       
  29 H29            3.9017    -0.0133     0.8540 H       
  30 H30            3.8838    -0.0044    -0.9258 H       
  31 H31            5.4646     4.0861    -0.0314 H       
  32 H32            7.9195     4.2644    -0.0553 H       
  33 H33            9.3029     2.2288    -0.0792 H       
  34 H34            8.2356     0.0110    -0.0808 H       
  35 H35            5.7814    -0.1759    -0.0503 H       
  36 H36           -4.7804     0.1282     0.2317 H       
  37 H37           -6.9809     1.2797     0.2545 H       
  38 H38           -7.0313     3.7581     0.0763 H       
@<TRIPOS>BOND
   1    1    2 1
   2    1    7 2
   3    1    6 1
   4    2    3 1
   5    2    9 1
   6    3    4 2
   7    3   26 1
   8    4    5 1
   9    4   27 1
  10    5    6 am
  11    5   11 1
  12    6   10 2
  13    7    8 1
  14    7   28 1
  15    8    9 2
  16    8   12 1
  17   11   20 ar
  18   11   24 ar
  19   12   13 1
  20   12   29 1
  21   12   30 1
  22   13   14 1
  23   14   15 ar
  24   14   19 ar
  25   15   16 ar
  26   15   31 1
  27   16   17 ar
  28   16   32 1
  29   17   18 ar
  30   17   33 1
  31   18   19 ar
  32   18   34 1
  33   19   35 1
  34   20   21 ar
  35   20   36 1
  36   21   22 ar
  37   21   37 1
  38   22   23 ar
  39   22   38 1
  40   23   24 ar
  41   23   25 1

#	End of record

