#	Name: ASD02198613
#	Creating user name:	WinNT
#	Creation time:	15. 06. 2019 20:19

#	Modifying user name:	WinNT
#	Modification time:	15. 06. 2019 20:19

#	Program:	/corina/corina34_cracker 3.40 0067  02.08.2006

@<TRIPOS>MOLECULE
ASD02198613
  38   41    0    0    0
SMALL
NO_CHARGES


@<TRIPOS>ATOM
   1 C1             0.0156     1.2069    -0.1112 C.2     
   2 C2             0.0758    -0.1434    -0.2298 C.2     
   3 N3             1.2662    -0.7815    -0.2903 N.pl3   
   4 N4             2.3939    -0.1741    -0.2413 N.2     
   5 C5             2.4788     1.1340    -0.1269 C.2     
   6 C6             1.2369     1.9203    -0.0533 C.2     
   7 C7             1.2672    -2.1756    -0.4120 C.ar    
   8 C8             1.2630    -2.7657    -1.6715 C.ar    
   9 C9             1.2640    -4.1442    -1.7872 C.ar    
  10 C10            1.2687    -4.9352    -0.6531 C.ar    
  11 C11            1.2729    -4.3528     0.6010 C.ar    
  12 C12            1.2782    -2.9751     0.7260 C.ar    
  13 C13            3.7957     1.8007    -0.0734 C.2     
  14 N14            4.9053     1.3548     0.5881 N.pl3   
  15 N15            5.9303     2.2856     0.3777 N.2     
  16 C16            5.4718     3.2536    -0.3752 C.2     
  17 C17            4.1386     2.9861    -0.6860 C.2     
  18 C18            5.0002     0.1780     1.3419 C.ar    
  19 C19            3.9713    -0.1822     2.2020 C.ar    
  20 O20            1.2591     3.1375     0.0530 O.2     
  21 C21            6.1210    -0.6337     1.2264 C.ar    
  22 C22            6.2116    -1.7934     1.9711 C.ar    
  23 C23            5.1878    -2.1464     2.8310 C.ar    
  24 C24            4.0679    -1.3431     2.9440 C.ar    
  25 F25            1.2574    -1.9938    -2.7803 F       
  26 F26            1.2828    -2.4070     1.9518 F       
  27 H27           -0.9331     1.7211    -0.0670 H       
  28 H28           -0.8389    -0.7157    -0.2762 H       
  29 H29            1.2607    -4.6033    -2.7648 H       
  30 H30            1.2688    -6.0111    -0.7470 H       
  31 H31            1.2763    -4.9743     1.4842 H       
  32 H32            6.0341     4.1149    -0.7045 H       
  33 H33            3.4897     3.6014    -1.2916 H       
  34 H34            3.0965     0.4449     2.2910 H       
  35 H35            6.9208    -0.3587     0.5547 H       
  36 H36            7.0829    -2.4253     1.8814 H       
  37 H37            5.2610    -3.0537     3.4122 H       
  38 H38            3.2701    -1.6213     3.6167 H       
@<TRIPOS>BOND
   1    1    2 2
   2    1    6 1
   3    1   27 1
   4    2    3 1
   5    2   28 1
   6    3    4 1
   7    3    7 1
   8    4    5 2
   9    5    6 1
  10    5   13 1
  11    6   20 2
  12    7    8 ar
  13    7   12 ar
  14    8    9 ar
  15    8   25 1
  16    9   10 ar
  17    9   29 1
  18   10   11 ar
  19   10   30 1
  20   11   12 ar
  21   11   31 1
  22   12   26 1
  23   13   14 1
  24   13   17 2
  25   14   15 1
  26   14   18 1
  27   15   16 2
  28   16   17 1
  29   16   32 1
  30   17   33 1
  31   18   21 ar
  32   18   19 ar
  33   19   24 ar
  34   19   34 1
  35   21   22 ar
  36   21   35 1
  37   22   23 ar
  38   22   36 1
  39   23   24 ar
  40   23   37 1
  41   24   38 1

#	End of record

