#	Name: ASD01812874
#	Creating user name:	WinNT
#	Creation time:	15. 06. 2019 19:29

#	Modifying user name:	WinNT
#	Modification time:	15. 06. 2019 19:29

#	Program:	/corina/corina34_cracker 3.40 0067  02.08.2006

@<TRIPOS>MOLECULE
ASD01812874
  53   57    0    0    0
SMALL
NO_CHARGES


@<TRIPOS>ATOM
   1 C1            -0.0166     1.3763     0.0096 C.ar    
   2 C2             0.0021    -0.0041     0.0020 C.ar    
   3 C3             1.2089    -0.6873    -0.0127 C.ar    
   4 C4             2.3943     0.0072    -0.0198 C.ar    
   5 C5             2.3945     1.4054    -0.0128 C.ar    
   6 C6             1.1722     2.0915     0.0021 C.ar    
   7 C7             3.8414    -0.4182    -0.0349 C.3     
   8 N8             4.6317     0.8182    -0.0357 N.am    
   9 C9             3.7920     1.8678    -0.0229 C.2     
  10 C10            6.0946     0.8959    -0.0484 C.3     
  11 C11            6.5835     0.9297    -1.4735 C.ar    
  12 C12            6.7434     2.1429    -2.1185 C.ar    
  13 C13            7.1909     2.1798    -3.4236 C.ar    
  14 C14            7.4820     0.9919    -4.0914 C.ar    
  15 C15            7.3194    -0.2274    -3.4366 C.ar    
  16 C16            6.8760    -0.2522    -2.1299 C.ar    
  17 O17            1.1519     3.4477     0.0091 O.3     
  18 O18            4.1377     3.0336    -0.0209 O.2     
  19 C19           -0.0569     4.0673     0.0235 C.ar    
  20 C20           -0.6630     4.3777     1.2363 C.ar    
  21 C21           -1.8908     5.0065     1.2547 C.ar    
  22 C22           -2.5253     5.3321     0.0529 C.ar    
  23 C23           -1.9132     5.0191    -1.1637 C.ar    
  24 C24           -0.6829     4.3949    -1.1746 C.ar    
  25 F25           -0.0489     4.0626     2.3977 F       
  26 C26            7.9629     1.0251    -5.4947 C.ar    
  27 F27           -0.0878     4.0969    -2.3503 F       
  28 C28           -3.8000     5.9844     0.0681 C.1     
  29 N29           -4.8112     6.5019     0.0802 N.1     
  30 C30            8.1330     2.2353    -6.1714 C.ar    
  31 N31            8.5618     2.2311    -7.4179 N.ar    
  32 N32            8.8339     1.1460    -8.0457 N.ar    
  33 C33            8.7050    -0.0452    -7.4916 C.ar    
  34 C34            8.2672    -0.1553    -6.1839 C.ar    
  35 C35            9.0401    -1.2843    -8.2812 C.3     
  36 H36           -0.9603     1.9014     0.0169 H       
  37 H37           -0.9272    -0.5543     0.0079 H       
  38 H38            1.2168    -1.7673    -0.0182 H       
  39 H39            4.0681    -1.0072     0.8538 H       
  40 H40            4.0521    -0.9982    -0.9334 H       
  41 H41            6.4148     1.8013     0.4671 H       
  42 H42            6.5091     0.0239     0.4573 H       
  43 H43            6.5175     3.0629    -1.6000 H       
  44 H44            7.3148     3.1275    -3.9265 H       
  45 H45            7.5437    -1.1510    -3.9495 H       
  46 H46            6.7532    -1.1964    -1.6202 H       
  47 H47           -2.3612     5.2466     2.1968 H       
  48 H48           -2.4008     5.2692    -2.0944 H       
  49 H49            7.9139     3.1696    -5.6759 H       
  50 H50            8.1600    -1.1204    -5.7111 H       
  51 H51           10.0917    -1.5330    -8.1381 H       
  52 H52            8.4208    -2.1128    -7.9374 H       
  53 H53            8.8502    -1.1033    -9.3392 H       
@<TRIPOS>BOND
   1    1    2 ar
   2    1    6 ar
   3    1   36 1
   4    2    3 ar
   5    2   37 1
   6    3    4 ar
   7    3   38 1
   8    4    7 1
   9    4    5 ar
  10    5    6 ar
  11    5    9 1
  12    6   17 1
  13    7    8 1
  14    7   39 1
  15    7   40 1
  16    8    9 am
  17    8   10 1
  18    9   18 2
  19   10   11 1
  20   10   41 1
  21   10   42 1
  22   11   12 ar
  23   11   16 ar
  24   12   13 ar
  25   12   43 1
  26   13   14 ar
  27   13   44 1
  28   14   15 ar
  29   14   26 1
  30   15   16 ar
  31   15   45 1
  32   16   46 1
  33   17   19 1
  34   19   20 ar
  35   19   24 ar
  36   20   21 ar
  37   20   25 1
  38   21   22 ar
  39   21   47 1
  40   22   23 ar
  41   22   28 1
  42   23   24 ar
  43   23   48 1
  44   24   27 1
  45   26   30 ar
  46   26   34 ar
  47   28   29 3
  48   30   31 ar
  49   30   49 1
  50   31   32 ar
  51   32   33 ar
  52   33   34 ar
  53   33   35 1
  54   34   50 1
  55   35   51 1
  56   35   52 1
  57   35   53 1

#	End of record

