#	Name: ASD01330012
#	Creating user name:	WinNT
#	Creation time:	15. 06. 2019 19:16

#	Modifying user name:	WinNT
#	Modification time:	15. 06. 2019 19:16

#	Program:	/corina/corina34_cracker 3.40 0067  02.08.2006

@<TRIPOS>MOLECULE
ASD01330012
  12   11    0    0    0
SMALL
NO_CHARGES


@<TRIPOS>ATOM
   1 C1             0.0131     1.3807     0.5690 C.2     
   2 C2             0.0096    -0.0014     0.0518 C.2     
   3 C3             1.1687    -0.6592    -0.1140 C.2     
   4 C4             2.4175     0.0927    -0.3440 C.2     
   5 O5             1.0461     1.8754     0.9727 O.2     
   6 O6            -1.1289     2.0958     0.5881 O.3     
   7 O7             2.3795     1.2939    -0.5190 O.2     
   8 O8             3.5998    -0.5535    -0.3600 O.3     
   9 H9            -0.9250    -0.4839    -0.1933 H       
  10 H10            1.1869    -1.7385    -0.0790 H       
  11 H11           -1.0771     2.9965     0.9360 H       
  12 H12            4.3904    -0.0185    -0.5144 H       
@<TRIPOS>BOND
   1    1    2 1
   2    1    5 2
   3    1    6 1
   4    2    3 2
   5    2    9 1
   6    3    4 1
   7    3   10 1
   8    4    7 2
   9    4    8 1
  10    6   11 1
  11    8   12 1

#	End of record

