#	Name: ASD05720149
#	Creating user name:	WinNT
#	Creation time:	15. 06. 2019 21:01

#	Modifying user name:	WinNT
#	Modification time:	15. 06. 2019 21:01

#	Program:	/corina/corina34_cracker 3.40 0067  02.08.2006

@<TRIPOS>MOLECULE
ASD05720149
  56   56    0    0    0
SMALL
NO_CHARGES


@<TRIPOS>ATOM
   1 C1            -0.0187     1.5258     0.0104 C.3     
   2 C2             0.0021    -0.0041     0.0020 C.3     
   3 C3             0.7421    -0.5109     1.2415 C.3     
   4 S4            -1.6997    -0.6320     0.0149 S.o     
   5 O5            -2.4383     0.0224     1.0375 O.2     
   6 N6            -2.3418     0.0035    -1.3730 N.am    
   7 C7             0.7182    -0.4975    -1.2568 C.3     
   8 C8            -3.7338    -0.2785    -1.7322 C.3     
   9 C9            -3.8551    -0.3918    -3.2532 C.3     
  10 C10           -4.6160     0.8396    -1.2398 C.ar    
  11 C11           -5.8523     0.5532    -0.6910 C.ar    
  12 C12           -6.6629     1.5793    -0.2387 C.ar    
  13 C13           -6.2339     2.8945    -0.3365 C.ar    
  14 C14           -4.9961     3.1778    -0.8862 C.ar    
  15 C15           -4.1861     2.1499    -1.3321 C.ar    
  16 F16           -7.0239     3.8980     0.1041 F       
  17 F17           -7.8713     1.3002     0.2973 F       
  18 O18           -3.1107    -1.5239    -3.7074 O.3     
  19 Si19          -3.1649    -1.7491    -5.3219 Si      
  20 C20           -4.9319    -2.0034    -5.8545 C.3     
  21 C21           -2.4666    -0.2511    -6.1816 C.3     
  22 C22           -2.1579    -3.2500    -5.7736 C.3     
  23 C23           -2.7313    -4.4803    -5.0675 C.3     
  24 C24           -2.2087    -3.4613    -7.2881 C.3     
  25 C25           -0.7067    -3.0411    -5.3362 C.3     
  26 H26            1.0039     1.9031     0.0027 H       
  27 H27           -0.5459     1.8868    -0.8726 H       
  28 H28           -0.5289     1.8773     0.9072 H       
  29 H29            0.2319    -0.1594     2.1383 H       
  30 H30            0.7568    -1.6008     1.2356 H       
  31 H31            1.7647    -0.1336     1.2338 H       
  32 H32           -1.7962     0.5625    -1.9482 H       
  33 H33            1.7408    -0.1202    -1.2645 H       
  34 H34            0.7330    -1.5874    -1.2628 H       
  35 H35            0.1910    -0.1364    -2.1398 H       
  36 H36           -4.0449    -1.2163    -1.2720 H       
  37 H37           -4.9034    -0.5130    -3.5260 H       
  38 H38           -3.4611     0.5122    -3.7174 H       
  39 H39           -6.1854    -0.4714    -0.6158 H       
  40 H40           -4.6610     4.2016    -0.9632 H       
  41 H41           -3.2182     2.3714    -1.7570 H       
  42 H42           -5.5210    -1.1253    -5.5901 H       
  43 H43           -4.9681    -2.1540    -6.9334 H       
  44 H44           -5.3404    -2.8799    -5.3514 H       
  45 H45           -1.4328    -0.1022    -5.8700 H       
  46 H46           -2.5028    -0.4016    -7.2606 H       
  47 H47           -3.0558     0.6271    -5.9173 H       
  48 H48           -3.7652    -4.6291    -5.3791 H       
  49 H49           -2.1422    -5.3584    -5.3318 H       
  50 H50           -2.6951    -4.3297    -3.9886 H       
  51 H51           -1.8002    -2.5848    -7.7911 H       
  52 H52           -1.6196    -4.3394    -7.5524 H       
  53 H53           -3.2426    -3.6101    -7.5997 H       
  54 H54           -0.6705    -2.8906    -4.2573 H       
  55 H55           -0.1176    -3.9193    -5.6005 H       
  56 H56           -0.2982    -2.1646    -5.8393 H       
@<TRIPOS>BOND
   1    1    2 1
   2    1   26 1
   3    1   27 1
   4    1   28 1
   5    2    3 1
   6    2    4 1
   7    2    7 1
   8    3   29 1
   9    3   30 1
  10    3   31 1
  11    4    5 2
  12    4    6 am
  13    6    8 1
  14    6   32 1
  15    7   33 1
  16    7   34 1
  17    7   35 1
  18    8    9 1
  19    8   10 1
  20    8   36 1
  21    9   18 1
  22    9   37 1
  23    9   38 1
  24   10   11 ar
  25   10   15 ar
  26   11   12 ar
  27   11   39 1
  28   12   13 ar
  29   12   17 1
  30   13   14 ar
  31   13   16 1
  32   14   15 ar
  33   14   40 1
  34   15   41 1
  35   18   19 1
  36   19   20 1
  37   19   21 1
  38   19   22 1
  39   20   42 1
  40   20   43 1
  41   20   44 1
  42   21   45 1
  43   21   46 1
  44   21   47 1
  45   22   23 1
  46   22   25 1
  47   22   24 1
  48   23   48 1
  49   23   49 1
  50   23   50 1
  51   24   51 1
  52   24   52 1
  53   24   53 1
  54   25   54 1
  55   25   55 1
  56   25   56 1

#	End of record

