#	Name: ASD09740375
#	Creating user name:	WinNT
#	Creation time:	15. 06. 2019 21:23

#	Modifying user name:	WinNT
#	Modification time:	15. 06. 2019 21:23

#	Program:	/corina/corina34_cracker 3.40 0067  02.08.2006

@<TRIPOS>MOLECULE
ASD09740375
  56   58    0    0    0
SMALL
NO_CHARGES


@<TRIPOS>ATOM
   1 O1            -0.0144     1.2085     0.0087 O.3     
   2 N2             0.0021    -0.0041     0.0020 N.2     
   3 C3             1.2413     1.6828    -0.0008 C.2     
   4 N4             2.0460     0.6359    -0.0141 N.2     
   5 C5             1.2348    -0.4424    -0.0121 C.2     
   6 C6             1.6623    -1.8639    -0.0234 C.ar    
   7 C7             1.6455     3.1033     0.0026 C.ar    
   8 C8             3.0177    -2.1864    -0.0376 C.ar    
   9 C9             3.4096    -3.5095    -0.0481 C.ar    
  10 C10            2.4594    -4.5150    -0.0445 C.ar    
  11 C11            1.1127    -4.2005    -0.0309 C.ar    
  12 C12            0.7098    -2.8803    -0.0140 C.ar    
  13 C13            2.8933    -5.9581    -0.0560 C.3     
  14 C14           -0.7580    -2.5391     0.0013 C.3     
  15 N15            3.0471    -6.4342     1.3252 N.3     
  16 C16            3.4703    -7.8406     1.3531 C.3     
  17 C17            3.6195    -8.2996     2.8051 C.3     
  18 O18            2.3423    -8.2763     3.4456 O.3     
  19 C19            0.6745     4.1072     0.0173 C.ar    
  20 C20            1.0578     5.4349     0.0208 C.ar    
  21 C21            2.4105     5.7696     0.0097 C.ar    
  22 C22            3.3751     4.7720    -0.0053 C.ar    
  23 C23            2.9994     3.4456    -0.0031 C.ar    
  24 O24            2.7857     7.0754     0.0133 O.3     
  25 C25            4.1886     7.3473     0.0013 C.3     
  26 C26            4.4149     8.8604     0.0074 C.3     
  27 O27            0.1149     6.4148     0.0347 O.3     
  28 C28           -1.2524     5.9995     0.0450 C.3     
  29 C29           -2.1596     7.2314     0.0599 C.3     
  30 H30            3.7603    -1.4022    -0.0407 H       
  31 H31            4.4599    -3.7606    -0.0595 H       
  32 H32            0.3750    -4.9893    -0.0289 H       
  33 H33            2.1409    -6.5597    -0.5660 H       
  34 H34            3.8454    -6.0471    -0.5791 H       
  35 H35           -1.1036    -2.4675     1.0326 H       
  36 H36           -0.9145    -1.5848    -0.5015 H       
  37 H37           -1.3176    -3.3184    -0.5161 H       
  38 H38            3.6920    -5.8523     1.8385 H       
  39 H39            2.7219    -8.4553     0.8529 H       
  40 H40            4.4264    -7.9427     0.8398 H       
  41 H41            4.0182    -9.3138     2.8264 H       
  42 H42            4.3012    -7.6300     3.3295 H       
  43 H43            2.3613    -8.5560     4.3711 H       
  44 H44           -0.3735     3.8463     0.0255 H       
  45 H45            4.4224     5.0353    -0.0146 H       
  46 H46            3.7521     2.6712    -0.0148 H       
  47 H47            4.6515     6.9071     0.8846 H       
  48 H48            4.6345     6.9168    -0.8953 H       
  49 H49            5.4849     9.0678    -0.0017 H       
  50 H50            3.9520     9.3006    -0.8758 H       
  51 H51            3.9690     9.2909     0.9040 H       
  52 H52           -1.4589     5.4069    -0.8462 H       
  53 H53           -1.4425     5.3975     0.9336 H       
  54 H54           -3.2025     6.9145     0.0678 H       
  55 H55           -1.9531     7.8239     0.9512 H       
  56 H56           -1.9695     7.8334    -0.8287 H       
@<TRIPOS>BOND
   1    1    2 1
   2    1    3 1
   3    2    5 2
   4    3    4 2
   5    3    7 1
   6    4    5 1
   7    5    6 1
   8    6    8 ar
   9    6   12 ar
  10    7   19 ar
  11    7   23 ar
  12    8    9 ar
  13    8   30 1
  14    9   10 ar
  15    9   31 1
  16   10   11 ar
  17   10   13 1
  18   11   12 ar
  19   11   32 1
  20   12   14 1
  21   13   15 1
  22   13   33 1
  23   13   34 1
  24   14   35 1
  25   14   36 1
  26   14   37 1
  27   15   16 1
  28   15   38 1
  29   16   17 1
  30   16   39 1
  31   16   40 1
  32   17   18 1
  33   17   41 1
  34   17   42 1
  35   18   43 1
  36   19   20 ar
  37   19   44 1
  38   20   21 ar
  39   20   27 1
  40   21   22 ar
  41   21   24 1
  42   22   23 ar
  43   22   45 1
  44   23   46 1
  45   24   25 1
  46   25   26 1
  47   25   47 1
  48   25   48 1
  49   26   49 1
  50   26   50 1
  51   26   51 1
  52   27   28 1
  53   28   29 1
  54   28   52 1
  55   28   53 1
  56   29   54 1
  57   29   55 1
  58   29   56 1

#	End of record

