#	Name: ASD01813659
#	Creating user name:	WinNT
#	Creation time:	15. 06. 2019 19:30

#	Modifying user name:	WinNT
#	Modification time:	15. 06. 2019 19:30

#	Program:	/corina/corina34_cracker 3.40 0067  02.08.2006

@<TRIPOS>MOLECULE
ASD01813659
  44   47    0    0    0
SMALL
NO_CHARGES


@<TRIPOS>ATOM
   1 C1             0.0981     1.4755     0.3559 C.ar    
   2 C2             0.0800     0.0883     0.3481 C.ar    
   3 C3             1.2501    -0.6306     0.2175 C.ar    
   4 C4             2.4673     0.0383     0.0916 C.ar    
   5 C5             2.4808     1.4430     0.1000 C.ar    
   6 C6             1.2893     2.1560     0.2329 C.ar    
   7 N7             3.6444    -0.6677    -0.0386 N.pl3   
   8 C8             4.8374    -0.0728    -0.1610 C.2     
   9 C9             4.9775     1.3006    -0.1658 C.2     
  10 C10            3.7747     2.1383    -0.0339 C.2     
  11 O11            3.8450     3.3548    -0.0329 O.2     
  12 C12            6.3054     1.9157    -0.3014 C.2     
  13 O13            6.4292     3.2581    -0.3047 O.3     
  14 O14            7.2921     1.2141    -0.4104 O.2     
  15 C15            3.5871    -2.1316    -0.0427 C.3     
  16 C16            3.4445    -2.6248    -1.4595 C.ar    
  17 C17            4.5596    -2.7692    -2.2634 C.ar    
  18 N18            4.4483    -3.1995    -3.5041 N.ar    
  19 C19            3.2701    -3.5102    -4.0293 C.ar    
  20 C20            2.1043    -3.3887    -3.2749 C.ar    
  21 C21            2.1928    -2.9438    -1.9677 C.ar    
  22 F22            1.2170    -1.9812     0.2120 F       
  23 C23            3.1929    -3.9900    -5.4300 C.ar    
  24 C24            4.3541    -4.1172    -6.2014 C.ar    
  25 C25            4.2331    -4.5684    -7.5006 C.ar    
  26 C26            2.9702    -4.8797    -7.9973 C.ar    
  27 N27            1.8908    -4.7479    -7.2403 N.ar    
  28 C28            1.9650    -4.3258    -5.9945 C.ar    
  29 N29            2.8402    -5.3335    -9.3030 N.pl3   
  30 H30           -0.8268     2.0245     0.4544 H       
  31 H31           -0.8601    -0.4343     0.4457 H       
  32 H32            1.3007     3.2359     0.2389 H       
  33 H33            5.7198    -0.6879    -0.2588 H       
  34 H34            7.3227     3.6163    -0.3963 H       
  35 H35            4.5033    -2.5323     0.3911 H       
  36 H36            2.7314    -2.4634     0.5453 H       
  37 H37            5.5353    -2.5257    -1.8696 H       
  38 H38            1.1458    -3.6416    -3.7036 H       
  39 H39            1.3069    -2.8400    -1.3588 H       
  40 H40            5.3212    -3.8682    -5.7903 H       
  41 H41            5.1078    -4.6783    -8.1245 H       
  42 H42            1.0633    -4.2312    -5.4076 H       
  43 H43            3.6262    -5.4320    -9.8627 H       
  44 H44            1.9633    -5.5522    -9.6554 H       
@<TRIPOS>BOND
   1    1    2 ar
   2    1    6 ar
   3    1   30 1
   4    2    3 ar
   5    2   31 1
   6    3    4 ar
   7    3   22 1
   8    4    5 ar
   9    4    7 1
  10    5    6 ar
  11    5   10 1
  12    6   32 1
  13    7    8 1
  14    7   15 1
  15    8    9 2
  16    8   33 1
  17    9   10 1
  18    9   12 1
  19   10   11 2
  20   12   13 1
  21   12   14 2
  22   13   34 1
  23   15   16 1
  24   15   35 1
  25   15   36 1
  26   16   17 ar
  27   16   21 ar
  28   17   18 ar
  29   17   37 1
  30   18   19 ar
  31   19   20 ar
  32   19   23 1
  33   20   21 ar
  34   20   38 1
  35   21   39 1
  36   23   24 ar
  37   23   28 ar
  38   24   25 ar
  39   24   40 1
  40   25   26 ar
  41   25   41 1
  42   26   27 ar
  43   26   29 1
  44   27   28 ar
  45   28   42 1
  46   29   43 1
  47   29   44 1

#	End of record

