#	Name: ASD00170408
#	Creating user name:	WinNT
#	Creation time:	15. 06. 2019 18:32

#	Modifying user name:	WinNT
#	Modification time:	15. 06. 2019 18:32

#	Program:	/corina/corina34_cracker 3.40 0067  02.08.2006

@<TRIPOS>MOLECULE
ASD00170408
  54   57    0    0    0
SMALL
NO_CHARGES


@<TRIPOS>ATOM
   1 C1             0.3168     1.1326    -0.1540 C.2     
   2 C2             0.1229    -0.1857     0.1969 C.2     
   3 C3            -1.2701    -0.5642     0.2027 C.2     
   4 C4            -2.0869     0.4419    -0.1336 C.2     
   5 S5            -1.1718     1.9015    -0.4652 S.3     
   6 C6            -1.7545    -1.9483     0.5502 C.3     
   7 C7            -3.5591     0.3385    -0.2095 C.ar    
   8 C8            -4.3624     1.2667     0.4555 C.ar    
   9 C9            -5.7360     1.1643     0.3805 C.ar    
  10 C10           -6.3179     0.1447    -0.3517 C.ar    
  11 C11           -5.5277    -0.7786    -1.0132 C.ar    
  12 C12           -4.1528    -0.6845    -0.9512 C.ar    
  13 N13            1.5475     1.7476    -0.2362 N.pl3   
  14 C14            1.2131    -1.1043     0.5283 C.2     
  15 C15            1.8120    -1.9515    -0.5252 C.ar    
  16 O16            1.6268    -1.1708     1.6716 O.2     
  17 C17            2.9215    -2.7486    -0.2370 C.ar    
  18 C18            3.4758    -3.5366    -1.2236 C.ar    
  19 C19            2.9343    -3.5379    -2.4985 C.ar    
  20 C20            1.8337    -2.7492    -2.7904 C.ar    
  21 C21            1.2669    -1.9618    -1.8105 C.ar    
  22 Cl22           3.6383    -4.5317    -3.7357 Cl      
  23 N23           -1.8530    -2.0804     2.0100 N.3     
  24 C24           -3.0392    -1.3821     2.5230 C.3     
  25 C25           -1.8592    -3.4935     2.4114 C.3     
  26 C26           -1.7134    -3.5911     3.9082 C.ar    
  27 C27           -2.8372    -3.5969     4.7132 C.ar    
  28 C28           -2.7034    -3.6865     6.0861 C.ar    
  29 C29           -1.4459    -3.7706     6.6540 C.ar    
  30 C30           -0.3222    -3.7657     5.8490 C.ar    
  31 C31           -0.4561    -3.6805     4.4758 C.ar    
  32 H32           -2.7351    -2.1129     0.1036 H       
  33 H33           -1.0513    -2.6867     0.1652 H       
  34 H34           -3.9094     2.0628     1.0276 H       
  35 H35           -6.3586     1.8815     0.8947 H       
  36 H36           -7.3939     0.0689    -0.4069 H       
  37 H37           -5.9883    -1.5723    -1.5827 H       
  38 H38           -3.5371    -1.4056    -1.4682 H       
  39 H39            2.3476     1.2691     0.0317 H       
  40 H40            1.6135     2.6588    -0.5620 H       
  41 H41            3.3450    -2.7478     0.7565 H       
  42 H42            4.3340    -4.1536    -1.0019 H       
  43 H43            1.4160    -2.7542    -3.7864 H       
  44 H44            0.4086    -1.3475    -2.0391 H       
  45 H45           -3.9387    -1.8665     2.1428 H       
  46 H46           -3.0396    -1.4188     3.6123 H       
  47 H47           -3.0196    -0.3430     2.1944 H       
  48 H48           -2.7994    -3.9535     2.1072 H       
  49 H49           -1.0291    -4.0114     1.9310 H       
  50 H50           -3.8196    -3.5312     4.2695 H       
  51 H51           -3.5814    -3.6903     6.7151 H       
  52 H52           -1.3414    -3.8398     7.7267 H       
  53 H53            0.6603    -3.8311     6.2927 H       
  54 H54            0.4218    -3.6767     3.8468 H       
@<TRIPOS>BOND
   1    1    2 2
   2    1   13 1
   3    1    5 1
   4    2    3 1
   5    2   14 1
   6    3    4 2
   7    3    6 1
   8    4    5 1
   9    4    7 1
  10    6   23 1
  11    6   32 1
  12    6   33 1
  13    7    8 ar
  14    7   12 ar
  15    8    9 ar
  16    8   34 1
  17    9   10 ar
  18    9   35 1
  19   10   11 ar
  20   10   36 1
  21   11   12 ar
  22   11   37 1
  23   12   38 1
  24   13   39 1
  25   13   40 1
  26   14   15 1
  27   14   16 2
  28   15   17 ar
  29   15   21 ar
  30   17   18 ar
  31   17   41 1
  32   18   19 ar
  33   18   42 1
  34   19   20 ar
  35   19   22 1
  36   20   21 ar
  37   20   43 1
  38   21   44 1
  39   23   24 1
  40   23   25 1
  41   24   45 1
  42   24   46 1
  43   24   47 1
  44   25   26 1
  45   25   48 1
  46   25   49 1
  47   26   27 ar
  48   26   31 ar
  49   27   28 ar
  50   27   50 1
  51   28   29 ar
  52   28   51 1
  53   29   30 ar
  54   29   52 1
  55   30   31 ar
  56   30   53 1
  57   31   54 1

#	End of record

