#	Name: ASD07150005
#	Creating user name:	WinNT
#	Creation time:	15. 06. 2019 21:09

#	Modifying user name:	WinNT
#	Modification time:	15. 06. 2019 21:09

#	Program:	/corina/corina34_cracker 3.40 0067  02.08.2006

@<TRIPOS>MOLECULE
ASD07150005
  43   44    0    0    0
SMALL
NO_CHARGES


@<TRIPOS>ATOM
   1 C1            -0.0172     1.4887     0.0587 C.ar    
   2 C2            -0.0801     0.1146    -0.0809 C.ar    
   3 C3             1.0837    -0.6231    -0.1885 C.ar    
   4 C4             2.3108     0.0130    -0.1569 C.ar    
   5 C5             2.3737     1.3867    -0.0183 C.ar    
   6 C6             1.2096     2.1246     0.0907 C.ar    
   7 C7             3.5798    -0.7915    -0.2732 C.3     
   8 C8             3.7226    -1.6680     0.9386 C.2     
   9 C9             3.4708    -2.9873     0.8830 C.2     
  10 N10            3.0818    -3.5776    -0.2884 N.pl3   
  11 C11            3.2835    -2.9408    -1.4825 C.2     
  12 C12            3.5275    -1.6196    -1.5256 C.2     
  13 N13            3.6875     2.0677     0.0165 N.pl3   
  14 C14            3.7390    -0.9957    -2.7769 C.2     
  15 O15            3.6996    -1.6540    -3.7995 O.2     
  16 O16            3.9847     0.3300    -2.8369 O.3     
  17 C17            4.1889     0.8938    -4.1340 C.3     
  18 C18            3.2321    -3.7304    -2.7651 C.3     
  19 C19            3.6194    -3.8264     2.1259 C.3     
  20 C20            4.1312    -1.0928     2.1642 C.2     
  21 O21            3.2156    -0.8053     3.1130 O.3     
  22 O22            5.3083    -0.8571     2.3632 O.2     
  23 C23            3.6990    -0.2257     4.3265 C.3     
  24 O24            4.6209     1.5603     0.6123 O.2     
  25 O25            3.8353     3.1354    -0.5507 O.2     
  26 H26           -0.9267     2.0656     0.1382 H       
  27 H27           -1.0387    -0.3823    -0.1056 H       
  28 H28            1.0346    -1.6965    -0.2968 H       
  29 H29            1.2588     3.1980     0.1994 H       
  30 H30            4.4311    -0.1129    -0.3276 H       
  31 H31            2.6614    -4.4516    -0.2723 H       
  32 H32            5.0463     0.4154    -4.6073 H       
  33 H33            3.3002     0.7327    -4.7442 H       
  34 H34            4.3759     1.9635    -4.0398 H       
  35 H35            3.0255    -4.7766    -2.5396 H       
  36 H36            2.4433    -3.3339    -3.4044 H       
  37 H37            4.1902    -3.6518    -3.2788 H       
  38 H38            2.6520    -3.9190     2.6195 H       
  39 H39            3.9848    -4.8167     1.8541 H       
  40 H40            4.3287    -3.3505     2.8029 H       
  41 H41            4.4058    -0.9080     4.7987 H       
  42 H42            4.1976     0.7180     4.1050 H       
  43 H43            2.8623    -0.0449     5.0013 H       
@<TRIPOS>BOND
   1    1    2 ar
   2    1    6 ar
   3    1   26 1
   4    2    3 ar
   5    2   27 1
   6    3    4 ar
   7    3   28 1
   8    4    5 ar
   9    4    7 1
  10    5    6 ar
  11    5   13 1
  12    6   29 1
  13    7    8 1
  14    7   12 1
  15    7   30 1
  16    8    9 2
  17    8   20 1
  18    9   10 1
  19    9   19 1
  20   10   11 1
  21   10   31 1
  22   11   12 2
  23   11   18 1
  24   12   14 1
  25   13   24 2
  26   13   25 2
  27   14   15 2
  28   14   16 1
  29   16   17 1
  30   17   32 1
  31   17   33 1
  32   17   34 1
  33   18   35 1
  34   18   36 1
  35   18   37 1
  36   19   38 1
  37   19   39 1
  38   19   40 1
  39   20   21 1
  40   20   22 2
  41   21   23 1
  42   23   41 1
  43   23   42 1
  44   23   43 1

#	End of record

