#	Name: ASD01810016
#	Creating user name:	WinNT
#	Creation time:	15. 06. 2019 19:23

#	Modifying user name:	WinNT
#	Modification time:	15. 06. 2019 19:23

#	Program:	/corina/corina34_cracker 3.40 0067  02.08.2006

@<TRIPOS>MOLECULE
ASD01810016
  37   41    0    0    0
SMALL
NO_CHARGES


@<TRIPOS>ATOM
   1 N1            -0.0163     1.3479     0.0095 N.am    
   2 C2             0.0021    -0.0041     0.0020 C.2     
   3 C3            -1.2675    -0.7370    -0.3573 C.3     
   4 C4            -2.5159    -0.1239     0.2725 C.3     
   5 C5            -2.5123     1.3730     0.1209 C.ar    
   6 C6            -1.2661     1.9809     0.0315 C.ar    
   7 C7            -3.6304     2.1613     0.0681 C.ar    
   8 C8            -3.5035     3.5487    -0.0489 C.ar    
   9 C9            -2.2643     4.1481    -0.0992 C.ar    
  10 C10           -1.1115     3.3585    -0.0514 C.ar    
  11 C11            0.9560     2.3070     0.0053 C.ar    
  12 C12            0.3357     3.5835    -0.0414 C.ar    
  13 C13            1.0879     4.7562    -0.0670 C.ar    
  14 C14            2.4661     4.6231    -0.0388 C.ar    
  15 C15            3.0748     3.3813     0.0128 C.ar    
  16 C16            2.3453     2.2036     0.0381 C.ar    
  17 C17           -4.7733     4.3581    -0.1235 C.3     
  18 N18           -4.5087     5.7653     0.1882 N.3     
  19 C19           -3.4204     6.2785    -0.6590 C.3     
  20 C20           -2.1088     5.6433    -0.1976 C.3     
  21 O21            1.0140    -0.6129     0.2770 O.2     
  22 Cl22           4.8083     3.2965     0.0488 Cl      
  23 H23           -1.3820    -0.7282    -1.4413 H       
  24 H24           -1.1802    -1.7717    -0.0256 H       
  25 H25           -3.4010    -0.5316    -0.2160 H       
  26 H26           -2.5438    -0.3769     1.3323 H       
  27 H27           -4.6109     1.7112     0.1165 H       
  28 H28            0.6165     5.7271    -0.1074 H       
  29 H29            3.0812     5.5106    -0.0579 H       
  30 H30            2.8349     1.2418     0.0789 H       
  31 H31           -5.1874     4.2847    -1.1291 H       
  32 H32           -5.4946     3.9614     0.5910 H       
  33 H33           -5.3432     6.3224     0.0818 H       
  34 H34           -3.6098     6.0148    -1.6995 H       
  35 H35           -3.3581     7.3622    -0.5601 H       
  36 H36           -1.8373     6.0435     0.7793 H       
  37 H37           -1.3216     5.8784    -0.9139 H       
@<TRIPOS>BOND
   1    1    2 am
   2    1   11 1
   3    1    6 1
   4    2    3 1
   5    2   21 2
   6    3    4 1
   7    3   23 1
   8    3   24 1
   9    4    5 1
  10    4   25 1
  11    4   26 1
  12    5    6 ar
  13    5    7 ar
  14    6   10 ar
  15    7    8 ar
  16    7   27 1
  17    8    9 ar
  18    8   17 1
  19    9   10 ar
  20    9   20 1
  21   10   12 1
  22   11   12 ar
  23   11   16 ar
  24   12   13 ar
  25   13   14 ar
  26   13   28 1
  27   14   15 ar
  28   14   29 1
  29   15   16 ar
  30   15   22 1
  31   16   30 1
  32   17   18 1
  33   17   31 1
  34   17   32 1
  35   18   19 1
  36   18   33 1
  37   19   20 1
  38   19   34 1
  39   19   35 1
  40   20   36 1
  41   20   37 1

#	End of record

