#	Name: ASD01001064
#	Creating user name:	WinNT
#	Creation time:	15. 06. 2019 18:55

#	Modifying user name:	WinNT
#	Modification time:	15. 06. 2019 18:55

#	Program:	/corina/corina34_cracker 3.40 0067  02.08.2006

@<TRIPOS>MOLECULE
ASD01001064
  51   53    0    0    0
SMALL
NO_CHARGES


@<TRIPOS>ATOM
   1 C1            -0.0256     1.5191    -0.0159 C.3     
   2 C2            -0.3467     0.2013     0.6408 C.ar    
   3 C3             1.3627     1.9522     0.3792 C.ar    
   4 C4            -0.0966     1.3646    -1.5133 C.ar    
   5 S5            -1.2248     2.7700     0.5205 S.3     
   6 C6            -0.1502     0.0402     1.9996 C.ar    
   7 C7            -0.8429    -0.8446    -0.1146 C.ar    
   8 C8             1.6812     3.2971     0.4184 C.ar    
   9 C9             2.3142     1.0042     0.7074 C.ar    
  10 C10           -0.9130     2.1969    -2.2561 C.ar    
  11 C11            0.6590     0.3944    -2.1446 C.ar    
  12 C12           -2.8198     2.0038     0.1213 C.3     
  13 C13           -0.4447    -1.1686     2.6020 C.ar    
  14 C14           -1.1375    -2.0535     0.4878 C.ar    
  15 C15            2.9531     3.6967     0.7802 C.ar    
  16 C16            3.5873     1.3986     1.0707 C.ar    
  17 C17           -0.9737     2.0590    -3.6302 C.ar    
  18 C18            0.5982     0.2564    -3.5187 C.ar    
  19 C19           -3.9461     3.0068     0.3789 C.3     
  20 C20           -0.9360    -2.2162     1.8457 C.ar    
  21 C21            3.9111     2.7472     1.1048 C.ar    
  22 C22           -0.2178     1.0890    -4.2615 C.ar    
  23 C23           -5.2772     2.3332     0.1654 C.2     
  24 O24            5.1628     3.1378     1.4620 O.3     
  25 O25           -5.8767     2.4948    -0.8711 O.2     
  26 O26           -5.7968     1.5538     1.1268 O.3     
  27 C27            5.4252     4.5424     1.4750 C.3     
  28 H28            6.4581     4.7164     1.7766 H       
  29 H29            5.2642     4.9514     0.4776 H       
  30 H30            4.7534     5.0310     2.1808 H       
  31 H31           -6.6529     1.1430     0.9440 H       
  32 N32           -3.8157     4.1385    -0.5486 N.3     
  33 H33            0.2336     0.8587     2.5905 H       
  34 H34           -1.0009    -0.7173    -1.1753 H       
  35 H35            0.9350     4.0358     0.1655 H       
  36 H36            2.0618    -0.0456     0.6800 H       
  37 H37           -1.5036     2.9547    -1.7628 H       
  38 H38            1.2970    -0.2557    -1.5643 H       
  39 H39           -2.8288     1.7090    -0.9280 H       
  40 H40           -2.9669     1.1237     0.7472 H       
  41 H41           -0.2906    -1.2947     3.6635 H       
  42 H42           -1.5255    -2.8705    -0.1023 H       
  43 H43            3.2016     4.7473     0.8100 H       
  44 H44            4.3302     0.6578     1.3270 H       
  45 H45           -1.6121     2.7088    -4.2104 H       
  46 H46            1.1891    -0.5012    -4.0120 H       
  47 H47           -3.8826     3.3689     1.4051 H       
  48 H48           -1.1658    -3.1608     2.3163 H       
  49 H49           -0.2658     0.9808    -5.3350 H       
  50 H50           -2.9597     4.6459    -0.3818 H       
  51 H51           -3.8714     3.8286    -1.5072 H       
@<TRIPOS>BOND
   1    1    2 1
   2    1    3 1
   3    1    5 1
   4    1    4 1
   5    2    6 ar
   6    2    7 ar
   7    3    8 ar
   8    3    9 ar
   9    4   10 ar
  10    4   11 ar
  11    5   12 1
  12    6   13 ar
  13    6   33 1
  14    7   14 ar
  15    7   34 1
  16    8   15 ar
  17    8   35 1
  18    9   16 ar
  19    9   36 1
  20   10   17 ar
  21   10   37 1
  22   11   18 ar
  23   11   38 1
  24   12   19 1
  25   12   39 1
  26   12   40 1
  27   13   20 ar
  28   13   41 1
  29   14   20 ar
  30   14   42 1
  31   15   21 ar
  32   15   43 1
  33   16   21 ar
  34   16   44 1
  35   17   22 ar
  36   17   45 1
  37   18   22 ar
  38   18   46 1
  39   19   23 1
  40   19   32 1
  41   19   47 1
  42   20   48 1
  43   21   24 1
  44   22   49 1
  45   23   25 2
  46   23   26 1
  47   24   27 1
  48   26   31 1
  49   27   28 1
  50   27   29 1
  51   27   30 1
  52   32   50 1
  53   32   51 1

#	End of record

