#	Name: ASD00960124
#	Creating user name:	WinNT
#	Creation time:	15. 06. 2019 18:53

#	Modifying user name:	WinNT
#	Modification time:	15. 06. 2019 18:53

#	Program:	/corina/corina34_cracker 3.40 0067  02.08.2006

@<TRIPOS>MOLECULE
ASD00960124
  41   44    0    0    0
SMALL
NO_CHARGES


@<TRIPOS>ATOM
   1 C1            -0.1219     1.4282     0.0512 C.3     
   2 C2            -0.0818    -0.1152    -0.0014 C.3     
   3 O3            -0.1684    -0.4389    -1.4062 O.3     
   4 C4            -1.1391     0.4820    -1.9498 C.3     
   5 C5            -0.9645     0.6071    -3.4646 C.3     
   6 C6             1.2130    -0.6262     0.5759 C.2     
   7 C7             1.4494    -0.8472     1.8904 C.2     
   8 N8             2.3184    -0.9411    -0.1408 N.pl3   
   9 C9             3.2997    -1.3719     0.7245 C.2     
  10 C10            2.7720    -1.3209     2.0171 C.2     
  11 N11            2.6109    -0.9049    -1.5120 N.2     
  12 C12            3.7883    -1.2737    -1.9390 C.2     
  13 N13            4.7438    -1.6920    -1.1127 N.2     
  14 C14            4.5488    -1.7558     0.1949 C.2     
  15 N15            5.5573    -2.1937     1.0310 N.pl3   
  16 C16           -0.8335     1.8301    -1.2601 C.3     
  17 O17            1.2029     1.9627     0.0860 O.3     
  18 C18            3.4607    -1.6886     3.2655 C.2     
  19 O19           -1.1796    -0.6667    -4.0757 O.3     
  20 N20            3.5046    -0.9631     4.3614 N.2     
  21 C21            4.2215    -1.6241     5.2846 C.2     
  22 C22            4.6268    -2.7842     4.7397 C.2     
  23 O23            4.1464    -2.8260     3.4794 O.3     
  24 O24           -2.0447     2.5337    -0.9772 O.3     
  25 *25           -1.8912     3.9334    -0.9044 Du      
  26 N26           -2.4981     0.0389    -1.6288 N.2     
  27 N27           -2.8697    -0.9525    -2.0061 N.1     
  28 N28           -3.2414    -1.9440    -2.3833 N.pl3   
  29 H29           -0.6920     1.7662     0.9166 H       
  30 H30           -0.9307    -0.5354     0.5379 H       
  31 H31           -1.6864     1.3241    -3.8556 H       
  32 H32            0.0457     0.9507    -3.6868 H       
  33 H33            0.7501    -0.6887     2.6981 H       
  34 H34            3.9935    -1.2385    -2.9987 H       
  35 H35            6.3704    -2.5668     0.6561 H       
  36 H36            5.4524    -2.1281     1.9931 H       
  37 H37           -0.1747     2.4365    -1.8818 H       
  38 H38            1.2366     2.9285     0.1196 H       
  39 H39           -1.0849    -0.6622    -5.0380 H       
  40 H40            4.4345    -1.2840     6.2872 H       
  41 H41            5.2236    -3.5439     5.2226 H       
@<TRIPOS>BOND
   1    1    2 1
   2    1   17 1
   3    1   16 1
   4    1   29 1
   5    2    3 1
   6    2    6 1
   7    2   30 1
   8    3    4 1
   9    4    5 1
  10    4   26 1
  11    4   16 1
  12    5   19 1
  13    5   31 1
  14    5   32 1
  15    6    7 2
  16    6    8 1
  17    7   10 1
  18    7   33 1
  19    8    9 1
  20    8   11 1
  21    9   10 2
  22    9   14 1
  23   10   18 1
  24   11   12 2
  25   12   13 1
  26   12   34 1
  27   13   14 2
  28   14   15 1
  29   15   35 1
  30   15   36 1
  31   16   24 1
  32   16   37 1
  33   17   38 1
  34   18   20 2
  35   18   23 1
  36   19   39 1
  37   20   21 1
  38   21   22 2
  39   21   40 1
  40   22   23 1
  41   22   41 1
  42   24   25 1
  43   26   27 2
  44   27   28 2

#	End of record

