#	Name: ASD02030556
#	Creating user name:	WinNT
#	Creation time:	15. 06. 2019 20:15

#	Modifying user name:	WinNT
#	Modification time:	15. 06. 2019 20:15

#	Program:	/corina/corina34_cracker 3.40 0067  02.08.2006

@<TRIPOS>MOLECULE
ASD02030556
  41   43    0    0    0
SMALL
NO_CHARGES


@<TRIPOS>ATOM
   1 S1            -0.0220     1.7682     0.0118 S.3     
   2 C2             0.0021    -0.0041     0.0020 C.2     
   3 N3             1.3150    -0.3971    -0.0126 N.am    
   4 C4             2.2811     0.5054    -0.0170 C.2     
   5 C5             1.7940     1.9357    -0.0047 C.3     
   6 C6             2.2555     2.6726    -1.2636 C.3     
   7 C7             1.7685     4.0980    -1.2182 C.2     
   8 N8             2.0575     4.9414    -2.2290 N.am    
   9 O9             1.1165     4.4862    -0.2721 O.2     
  10 C10            1.6095     6.2524    -2.1872 C.2     
  11 C11            0.6117     8.4952    -1.6947 C.2     
  12 S12            0.6948     6.9228    -0.9175 S.3     
  13 C13            1.8467     7.1866    -3.1578 C.2     
  14 C14            2.6133     6.9068    -4.3737 C.2     
  15 O15            3.9486     7.0964    -4.3877 O.3     
  16 O16            2.0458     6.5034    -5.3712 O.2     
  17 O17            3.4572     0.2106    -0.0298 O.2     
  18 N18           -1.0376    -0.7891     0.0081 N.2     
  19 C19            0.3921    10.9573    -1.8604 C.3     
  20 C20           -0.0959     9.7088    -1.1231 C.3     
  21 C21            1.2628     8.4829    -2.8633 C.2     
  22 C22            1.3728     9.6940    -3.7758 C.3     
  23 C23            0.3072    10.7147    -3.3703 C.3     
  24 C24            4.6438     6.7986    -5.6273 C.3     
  25 H25            1.5363    -1.3415    -0.0195 H       
  26 H26            2.1399     2.4511     0.8913 H       
  27 H27            3.3443     2.6621    -1.3122 H       
  28 H28            1.8476     2.1772    -2.1447 H       
  29 H29            2.5789     4.6309    -2.9856 H       
  30 H30           -0.9185    -1.7518     0.0018 H       
  31 H31           -0.2324    11.8085    -1.5890 H       
  32 H32            1.4273    11.1610    -1.5867 H       
  33 H33           -1.1712     9.5986    -1.2633 H       
  34 H34            0.1288     9.8007    -0.0605 H       
  35 H35            2.3626    10.1391    -3.6745 H       
  36 H36            1.2114     9.3884    -4.8096 H       
  37 H37           -0.6808    10.3296    -3.6224 H       
  38 H38            0.4800    11.6516    -3.9000 H       
  39 H39            4.2501     7.4286    -6.4250 H       
  40 H40            5.7089     6.9936    -5.5024 H       
  41 H41            4.4941     5.7502    -5.8850 H       
@<TRIPOS>BOND
   1    1    2 1
   2    1    5 1
   3    2    3 1
   4    2   18 2
   5    3    4 am
   6    3   25 1
   7    4    5 1
   8    4   17 2
   9    5    6 1
  10    5   26 1
  11    6    7 1
  12    6   27 1
  13    6   28 1
  14    7    8 am
  15    7    9 2
  16    8   10 1
  17    8   29 1
  18   10   13 2
  19   10   12 1
  20   11   12 1
  21   11   21 2
  22   11   20 1
  23   13   21 1
  24   13   14 1
  25   14   15 1
  26   14   16 2
  27   15   24 1
  28   18   30 1
  29   19   20 1
  30   19   23 1
  31   19   31 1
  32   19   32 1
  33   20   33 1
  34   20   34 1
  35   21   22 1
  36   22   23 1
  37   22   35 1
  38   22   36 1
  39   23   37 1
  40   23   38 1
  41   24   39 1
  42   24   40 1
  43   24   41 1

#	End of record

