#	Name: ASD01913958
#	Creating user name:	WinNT
#	Creation time:	15. 06. 2019 20:02

#	Modifying user name:	WinNT
#	Modification time:	15. 06. 2019 20:02

#	Program:	/corina/corina34_cracker 3.40 0067  02.08.2006

@<TRIPOS>MOLECULE
ASD01913958
  43   47    0    0    0
SMALL
NO_CHARGES


@<TRIPOS>ATOM
   1 C1            -0.2359     0.6865    -0.2698 C.ar    
   2 C2            -0.0301    -0.6816    -0.2906 C.ar    
   3 C3             1.2557    -1.1887    -0.2402 C.ar    
   4 C4             2.3305    -0.3189    -0.1692 C.ar    
   5 C5             2.1284     1.0747    -0.1656 C.ar    
   6 C6             0.8326     1.5614    -0.2080 C.ar    
   7 C7             3.7286    -0.7774    -0.0681 C.2     
   8 C8             4.7100     0.1336     0.2727 C.2     
   9 C9             4.3846     1.5733     0.5477 C.3     
  10 O10            3.1843     1.9240    -0.1478 O.3     
  11 N11            4.3351    -1.9633    -0.2412 N.pl3   
  12 N12            5.6044    -1.8378    -0.0354 N.2     
  13 C13            5.9028    -0.5859     0.2815 C.2     
  14 C14            7.2467    -0.0540     0.5863 C.2     
  15 N15            8.2987    -0.8917     0.6756 N.am    
  16 C16            9.6062    -0.4023     0.8324 C.ar    
  17 C17           10.6282    -1.2703     1.2072 C.ar    
  18 C18           11.9167    -0.7819     1.3655 C.ar    
  19 C19           12.1806     0.5574     1.1491 C.ar    
  20 C20           11.1644     1.4170     0.7743 C.ar    
  21 C21            9.8767     0.9395     0.6151 C.ar    
  22 O22            7.4038     1.1396     0.7567 O.2     
  23 C23            3.6594    -3.2106    -0.6074 C.3     
  24 C24            8.1168    -2.3523     0.6183 C.3     
  25 C25            9.0308    -2.9759     1.6827 C.3     
  26 O26           10.3790    -2.5900     1.4153 O.3     
  27 H27           -1.2428     1.0754    -0.3067 H       
  28 H28           -0.8737    -1.3537    -0.3459 H       
  29 H29            1.4202    -2.2560    -0.2559 H       
  30 H30            0.6564     2.6268    -0.1928 H       
  31 H31            4.2399     1.7160     1.6186 H       
  32 H32            5.2035     2.2043     0.2024 H       
  33 H33           12.7142    -1.4486     1.6583 H       
  34 H34           13.1850     0.9343     1.2736 H       
  35 H35           11.3767     2.4624     0.6058 H       
  36 H36            9.0830     1.6109     0.3226 H       
  37 H37            3.5377    -3.2536    -1.6897 H       
  38 H38            4.2575    -4.0590    -0.2750 H       
  39 H39            2.6802    -3.2471    -0.1300 H       
  40 H40            7.0775    -2.6041     0.8297 H       
  41 H41            8.3940    -2.7211    -0.3693 H       
  42 H42            8.7372    -2.6200     2.6703 H       
  43 H43            8.9483    -4.0621     1.6441 H       
@<TRIPOS>BOND
   1    1    2 ar
   2    1    6 ar
   3    1   27 1
   4    2    3 ar
   5    2   28 1
   6    3    4 ar
   7    3   29 1
   8    4    5 ar
   9    4    7 1
  10    5    6 ar
  11    5   10 1
  12    6   30 1
  13    7    8 2
  14    7   11 1
  15    8    9 1
  16    8   13 1
  17    9   10 1
  18    9   31 1
  19    9   32 1
  20   11   12 1
  21   11   23 1
  22   12   13 2
  23   13   14 1
  24   14   15 am
  25   14   22 2
  26   15   16 1
  27   15   24 1
  28   16   17 ar
  29   16   21 ar
  30   17   18 ar
  31   17   26 1
  32   18   19 ar
  33   18   33 1
  34   19   20 ar
  35   19   34 1
  36   20   21 ar
  37   20   35 1
  38   21   36 1
  39   23   37 1
  40   23   38 1
  41   23   39 1
  42   24   25 1
  43   24   40 1
  44   24   41 1
  45   25   26 1
  46   25   42 1
  47   25   43 1

#	End of record

