#	Name: ASD01885830
#	Creating user name:	WinNT
#	Creation time:	15. 06. 2019 19:50

#	Modifying user name:	WinNT
#	Modification time:	15. 06. 2019 19:50

#	Program:	/corina/corina34_cracker 3.40 0067  02.08.2006

@<TRIPOS>MOLECULE
ASD01885830
  52   55    0    0    0
SMALL
NO_CHARGES


@<TRIPOS>ATOM
   1 C1             0.0804     1.0407     0.5665 C.ar    
   2 C2            -1.1852     1.6774     0.6230 C.ar    
   3 C3            -2.3506     0.8820     0.7628 C.ar    
   4 C4            -2.1923    -0.4953     0.8380 C.ar    
   5 C5            -0.9079    -1.0458     0.7746 C.ar    
   6 N6             0.1650    -0.2880     0.6444 N.ar    
   7 C7             1.1229     3.1850     0.3448 C.ar    
   8 C8            -0.1224     3.8066     0.4075 C.ar    
   9 C9            -1.2635     3.0735     0.5410 C.ar    
  10 C10           -3.6944     1.5009     0.8269 C.2     
  11 C11           -0.7476    -2.5177     0.8562 C.2     
  12 C12            2.3648     4.0259     0.1980 C.3     
  13 N13            2.8774     4.3787     1.5286 N.3     
  14 C14            1.2362     1.8312     0.4218 C.ar    
  15 N15            0.4823    -3.0659     0.7974 N.am    
  16 O16           -1.7249    -3.2295     0.9762 O.2     
  17 C17            4.2509     4.8914     1.4446 C.3     
  18 C18            4.8023     5.1104     2.8552 C.3     
  19 C19            3.9096     6.1085     3.5977 C.3     
  20 C20            2.4753     5.5734     3.6290 C.3     
  21 C21            1.9913     5.3410     2.1959 C.3     
  22 C22           -4.0827     2.5670     1.6644 C.2     
  23 N23           -5.3406     2.8285     1.4300 N.2     
  24 N24           -5.8030     1.9496     0.4433 N.pl3   
  25 C25           -4.7839     1.1473     0.0808 C.2     
  26 C26           -7.1613     1.9120    -0.1042 C.3     
  27 C27            5.1286     3.8792     0.7056 C.3     
  28 F28            5.0109     2.6262     1.3166 F       
  29 H29           -3.0544    -1.1369     0.9451 H       
  30 H30           -0.1842     4.8833     0.3499 H       
  31 H31           -2.2235     3.5665     0.5829 H       
  32 H32            3.1230     3.4624    -0.3458 H       
  33 H33            2.1245     4.9359    -0.3518 H       
  34 H34            2.2092     1.3650     0.3725 H       
  35 H35            1.2625    -2.4976     0.7016 H       
  36 H36            0.5872    -4.0287     0.8508 H       
  37 H37            4.2529     5.8373     0.9029 H       
  38 H38            4.8135     4.1623     3.3929 H       
  39 H39            5.8162     5.5057     2.7924 H       
  40 H40            4.2737     6.2346     4.6173 H       
  41 H41            3.9290     7.0685     3.0817 H       
  42 H42            2.4498     4.6325     4.1788 H       
  43 H43            1.8265     6.2995     4.1189 H       
  44 H44            2.0039     6.2848     1.6507 H       
  45 H45            0.9754     4.9464     2.2151 H       
  46 H46           -3.4504     3.0776     2.3757 H       
  47 H47           -4.8222     0.3626    -0.6602 H       
  48 H48           -7.2234     2.5744    -0.9677 H       
  49 H49           -7.4020     0.8937    -0.4094 H       
  50 H50           -7.8691     2.2401     0.6570 H       
  51 H51            4.8059     3.8086    -0.3332 H       
  52 H52            6.1681     4.2050     0.7418 H       
@<TRIPOS>BOND
   1    1    6 ar
   2    1   14 ar
   3    1    2 ar
   4    2    3 ar
   5    2    9 ar
   6    3   10 1
   7    3    4 ar
   8    4    5 ar
   9    4   29 1
  10    5   11 1
  11    5    6 ar
  12    7   12 1
  13    7    8 ar
  14    7   14 ar
  15    8    9 ar
  16    8   30 1
  17    9   31 1
  18   10   22 1
  19   10   25 2
  20   11   15 am
  21   11   16 2
  22   12   13 1
  23   12   32 1
  24   12   33 1
  25   13   17 1
  26   13   21 1
  27   14   34 1
  28   15   35 1
  29   15   36 1
  30   17   18 1
  31   17   27 1
  32   17   37 1
  33   18   19 1
  34   18   38 1
  35   18   39 1
  36   19   20 1
  37   19   40 1
  38   19   41 1
  39   20   21 1
  40   20   42 1
  41   20   43 1
  42   21   44 1
  43   21   45 1
  44   22   23 2
  45   22   46 1
  46   23   24 1
  47   24   25 1
  48   24   26 1
  49   25   47 1
  50   26   48 1
  51   26   49 1
  52   26   50 1
  53   27   28 1
  54   27   51 1
  55   27   52 1

#	End of record

