#	Name: ASD02030504
#	Creating user name:	WinNT
#	Creation time:	15. 06. 2019 20:15

#	Modifying user name:	WinNT
#	Modification time:	15. 06. 2019 20:15

#	Program:	/corina/corina34_cracker 3.40 0067  02.08.2006

@<TRIPOS>MOLECULE
ASD02030504
  55   59    0    0    0
SMALL
NO_CHARGES


@<TRIPOS>ATOM
   1 N1            -0.2789     1.4635    -0.1101 N.am    
   2 C2            -0.0867     0.0290     0.1448 C.3     
   3 C3            -0.9834    -0.3848     1.3182 C.3     
   4 N4            -2.3430     0.1144     1.0690 N.am    
   5 C5            -2.5352     1.5489     0.8141 C.3     
   6 C6            -1.6392     1.9635    -0.3538 C.3     
   7 C7             0.7728     2.3064    -0.1148 C.2     
   8 C8             2.1158     1.8146     0.2596 C.2     
   9 N9             3.1934     2.5525     0.4184 N.2     
  10 N10            2.4501     0.5342     0.5038 N.2     
  11 C11            3.7243     0.5149     0.8015 C.2     
  12 N12            4.1756     1.7847     0.7441 N.pl3   
  13 O13            0.6171     3.4709    -0.4268 O.2     
  14 C14           -3.3947    -0.7285     1.0737 C.2     
  15 C15           -4.7658    -0.1989     0.9321 C.ar    
  16 O16           -3.2145    -1.9247     1.1945 O.2     
  17 C17           -1.6147     3.4892    -0.4657 C.3     
  18 C18           -2.1757     1.3584    -1.6526 C.3     
  19 C19            5.4906     2.1989     0.9956 C.ar    
  20 C20            5.8264     3.5425     0.9020 C.ar    
  21 C21            7.1244     3.9479     1.1512 C.ar    
  22 C22            8.0879     3.0154     1.4931 C.ar    
  23 C23            7.7553     1.6764     1.5869 C.ar    
  24 C24            6.4589     1.2666     1.3446 C.ar    
  25 Cl25           7.5460     5.6279     1.0346 Cl      
  26 C26           -5.7449    -0.9362     0.2554 C.ar    
  27 N27           -6.9695    -0.4826     0.1184 N.ar    
  28 C28           -7.3417     0.6928     0.6122 C.ar    
  29 C29           -6.4123     1.4938     1.3073 C.ar    
  30 C30           -5.1055     1.0425     1.4767 C.ar    
  31 N31           -8.5311     1.3758     0.6043 N.pl3   
  32 C32           -8.3933     2.5692     1.2619 C.2     
  33 C33           -7.1360     2.7017     1.7114 C.2     
  34 H34           -0.3606    -0.5403    -0.7434 H       
  35 H35            0.9566    -0.1612     0.3968 H       
  36 H36           -1.0017    -1.4716     1.3991 H       
  37 H37           -0.5989     0.0469     2.2423 H       
  38 H38           -3.5785     1.7391     0.5621 H       
  39 H39           -2.2612     2.1182     1.7023 H       
  40 H40            4.3079    -0.3589     1.0511 H       
  41 H41           -1.1191     3.9098     0.4092 H       
  42 H42           -1.0715     3.7789    -1.3653 H       
  43 H43           -2.6360     3.8660    -0.5209 H       
  44 H44           -3.1897     1.7174    -1.8290 H       
  45 H45           -1.5356     1.6553    -2.4833 H       
  46 H46           -2.1841     0.2715    -1.5708 H       
  47 H47            5.0746     4.2703     0.6345 H       
  48 H48            9.1015     3.3338     1.6868 H       
  49 H49            8.5094     0.9508     1.8536 H       
  50 H50            6.2002     0.2206     1.4185 H       
  51 H51           -5.4875    -1.8981    -0.1630 H       
  52 H52           -4.3752     1.6371     2.0054 H       
  53 H53           -9.3505     1.0599     0.1923 H       
  54 H54           -9.1803     3.2960     1.3986 H       
  55 H55           -6.7348     3.5380     2.2646 H       
@<TRIPOS>BOND
   1    1    2 1
   2    1    7 am
   3    1    6 1
   4    2    3 1
   5    2   34 1
   6    2   35 1
   7    3    4 1
   8    3   36 1
   9    3   37 1
  10    4    5 1
  11    4   14 am
  12    5    6 1
  13    5   38 1
  14    5   39 1
  15    6   17 1
  16    6   18 1
  17    7    8 1
  18    7   13 2
  19    8    9 2
  20    8   10 1
  21    9   12 1
  22   10   11 2
  23   11   12 1
  24   11   40 1
  25   12   19 1
  26   14   15 1
  27   14   16 2
  28   15   26 ar
  29   15   30 ar
  30   17   41 1
  31   17   42 1
  32   17   43 1
  33   18   44 1
  34   18   45 1
  35   18   46 1
  36   19   20 ar
  37   19   24 ar
  38   20   21 ar
  39   20   47 1
  40   21   22 ar
  41   21   25 1
  42   22   23 ar
  43   22   48 1
  44   23   24 ar
  45   23   49 1
  46   24   50 1
  47   26   27 ar
  48   26   51 1
  49   27   28 ar
  50   28   29 ar
  51   28   31 1
  52   29   30 ar
  53   29   33 1
  54   30   52 1
  55   31   32 1
  56   31   53 1
  57   32   33 2
  58   32   54 1
  59   33   55 1

#	End of record

