#	Name: ASD03730808
#	Creating user name:	WinNT
#	Creation time:	15. 06. 2019 20:44

#	Modifying user name:	WinNT
#	Modification time:	15. 06. 2019 20:44

#	Program:	/corina/corina34_cracker 3.40 0067  02.08.2006

@<TRIPOS>MOLECULE
ASD03730808
  53   57    0    0    0
SMALL
NO_CHARGES


@<TRIPOS>ATOM
   1 O1            -0.0175     1.4359     0.0099 O.3     
   2 C2             0.0021    -0.0041     0.0020 C.3     
   3 C3             1.3443    -0.3164    -0.6737 C.3     
   4 C4             2.1585     0.9222    -0.4112 C.ar    
   5 C5             1.2616     1.9063     0.0003 C.ar    
   6 C6             1.7469     3.1699     0.3296 C.ar    
   7 C7             3.0928     3.4468     0.2403 C.ar    
   8 C8             3.9839     2.4616    -0.1809 C.ar    
   9 C9             3.5033     1.1939    -0.5065 C.ar    
  10 N10            2.1539    -2.4046    -1.1299 N.am    
  11 C11            1.9834    -1.5493    -0.1021 C.2     
  12 C12            1.1833    -0.5945    -2.1386 C.ar    
  13 C13            0.6713     0.1273    -3.1938 C.ar    
  14 C14            0.6615    -0.4166    -4.4658 C.ar    
  15 C15            1.1668    -1.6869    -4.6752 C.ar    
  16 C16            1.6801    -2.4142    -3.6217 C.ar    
  17 C17            1.6948    -1.8743    -2.3379 C.ar    
  18 O18            2.2870    -1.7382     1.0568 O.2     
  19 C19            2.7512    -3.7356    -0.9956 C.3     
  20 O20            1.2388    -5.1024     0.5165 O.3     
  21 C21            1.6702    -4.7442    -0.7039 C.2     
  22 C22            0.9734    -5.4381    -1.6217 C.2     
  23 C23            0.0696    -6.2624    -0.9126 C.2     
  24 C24            0.2682    -6.0228     0.3960 C.2     
  25 C25           -0.4728    -6.6763     1.5339 C.3     
  26 F26            0.2029    -7.8373     1.9247 F       
  27 F27           -0.5421    -5.7909     2.6149 F       
  28 F28           -1.7671    -7.0074     1.1186 F       
  29 C29            6.3304     1.7796    -0.7037 C.ar    
  30 C30            5.4337     2.7599    -0.2832 C.ar    
  31 C31            5.9221     4.0286     0.0401 C.ar    
  32 C32            7.2831     4.2566    -0.0724 C.ar    
  33 C33            8.1078     3.2312    -0.4970 C.ar    
  34 N34            7.6176     2.0434    -0.7953 N.ar    
  35 H35           -0.0199    -0.3969     1.0185 H       
  36 H36           -0.8274    -0.3990    -0.5845 H       
  37 H37            1.0623     3.9382     0.6572 H       
  38 H38            3.4587     4.4300     0.4969 H       
  39 H39            4.1875     0.4248    -0.8334 H       
  40 H40            0.2767     1.1189    -3.0280 H       
  41 H41            0.2599     0.1493    -5.2933 H       
  42 H42            1.1590    -2.1115    -5.6682 H       
  43 H43            2.0724    -3.4058    -3.7929 H       
  44 H44            3.2563    -4.0025    -1.9240 H       
  45 H45            3.4725    -3.7294    -0.1784 H       
  46 H46            1.0829    -5.3770    -2.6944 H       
  47 H47           -0.6436    -6.9517    -1.3398 H       
  48 H48            5.9672     0.7933    -0.9524 H       
  49 H49            5.2548     4.8116     0.3689 H       
  50 H50            7.6961     5.2250     0.1686 H       
  51 H51            9.1699     3.4056    -0.5862 H       
  52 Cl52          14.1699    10.2250     7.6149 Cl      
  53 H53           14.1699    11.5950     7.6149 H       
@<TRIPOS>BOND
   1    1    2 1
   2    1    5 1
   3    2    3 1
   4    2   35 1
   5    2   36 1
   6    3    4 1
   7    3   11 1
   8    3   12 1
   9    4    5 ar
  10    4    9 ar
  11    5    6 ar
  12    6    7 ar
  13    6   37 1
  14    7    8 ar
  15    7   38 1
  16    8    9 ar
  17    8   30 1
  18    9   39 1
  19   10   11 am
  20   10   17 1
  21   10   19 1
  22   11   18 2
  23   12   13 ar
  24   12   17 ar
  25   13   14 ar
  26   13   40 1
  27   14   15 ar
  28   14   41 1
  29   15   16 ar
  30   15   42 1
  31   16   17 ar
  32   16   43 1
  33   19   21 1
  34   19   44 1
  35   19   45 1
  36   20   21 1
  37   20   24 1
  38   21   22 2
  39   22   23 1
  40   22   46 1
  41   23   24 2
  42   23   47 1
  43   24   25 1
  44   25   26 1
  45   25   27 1
  46   25   28 1
  47   29   30 ar
  48   29   34 ar
  49   29   48 1
  50   30   31 ar
  51   31   32 ar
  52   31   49 1
  53   32   33 ar
  54   32   50 1
  55   33   34 ar
  56   33   51 1
  57   52   53 1

#	End of record

