#	Name: ASD03092063
#	Creating user name:	WinNT
#	Creation time:	15. 06. 2019 20:31

#	Modifying user name:	WinNT
#	Modification time:	15. 06. 2019 20:31

#	Program:	/corina/corina34_cracker 3.40 0067  02.08.2006

@<TRIPOS>MOLECULE
ASD03092063
  46   48    0    0    0
SMALL
NO_CHARGES


@<TRIPOS>ATOM
   1 N1             0.0832     1.0304    -0.0869 N.pl3   
   2 C2            -0.0872    -0.2715     0.2802 C.2     
   3 C3            -1.4298    -0.4889     0.4058 C.2     
   4 C4            -2.0875     0.7110     0.1074 C.2     
   5 N5            -1.1841     1.6194    -0.1808 N.2     
   6 N6            -3.4733     0.9099     0.1197 N.pl3   
   7 C7            -3.9985     2.1872    -0.1013 C.ar    
   8 C8            -5.3598     2.4189     0.0627 C.ar    
   9 C9            -5.8750     3.6843    -0.1571 C.ar    
  10 C10           -5.0365     4.7166    -0.5399 C.ar    
  11 C11           -3.1607     3.2282    -0.4795 C.ar    
  12 C12            0.9851    -1.2663     0.5013 C.ar    
  13 C13            1.3645     1.6966    -0.3333 C.3     
  14 C14            2.2540    -1.0931    -0.0626 C.ar    
  15 C15            3.2245    -2.0455     0.1693 C.ar    
  16 N16            2.9689    -3.1067     0.9104 N.ar    
  17 C17            1.7865    -3.3083     1.4606 C.ar    
  18 C18            0.7604    -2.4039     1.2852 C.ar    
  19 C19            1.5563    -4.5405     2.2971 C.3     
  20 C20            1.7054     1.6038    -1.7982 C.2     
  21 N21            2.8473     2.1507    -2.2604 N.am    
  22 C22           -3.6827     4.4875    -0.7033 C.ar    
  23 Cl23          -7.5740     3.9768     0.0468 Cl      
  24 O24            0.9523     1.0370    -2.5614 O.2     
  25 C25            3.1788     2.0605    -3.6845 C.3     
  26 C26            3.7570     2.8354    -1.3385 C.3     
  27 F27           -6.1779     1.4105     0.4355 F       
  28 H28           -1.9003    -1.4201     0.6851 H       
  29 H29           -4.0692     0.1618     0.2815 H       
  30 H30           -5.4405     5.7034    -0.7117 H       
  31 H31           -2.1023     3.0523    -0.6030 H       
  32 H32            1.2908     2.7447    -0.0431 H       
  33 H33            2.1449     1.2113     0.2529 H       
  34 H34            2.4701    -0.2271    -0.6706 H       
  35 H35            4.2068    -1.9210    -0.2619 H       
  36 H36           -0.2047    -2.5751     1.7388 H       
  37 H37            1.8033    -4.3252     3.3367 H       
  38 H38            0.5099    -4.8375     2.2263 H       
  39 H39            2.1892    -5.3500     1.9334 H       
  40 H40           -3.0315     5.2956    -1.0021 H       
  41 H41            2.7678     2.9234    -4.2086 H       
  42 H42            4.2619     2.0441    -3.8051 H       
  43 H43            2.7531     1.1468    -4.0994 H       
  44 H44            3.3457     2.8010    -0.3297 H       
  45 H45            4.7282     2.3406    -1.3520 H       
  46 H46            3.8740     3.8740    -1.6479 H       
@<TRIPOS>BOND
   1    1    2 1
   2    1   13 1
   3    1    5 1
   4    2    3 2
   5    2   12 1
   6    3    4 1
   7    3   28 1
   8    4    5 2
   9    4    6 1
  10    6    7 1
  11    6   29 1
  12    7    8 ar
  13    7   11 ar
  14    8    9 ar
  15    8   27 1
  16    9   10 ar
  17    9   23 1
  18   10   22 ar
  19   10   30 1
  20   11   22 ar
  21   11   31 1
  22   12   14 ar
  23   12   18 ar
  24   13   20 1
  25   13   32 1
  26   13   33 1
  27   14   15 ar
  28   14   34 1
  29   15   16 ar
  30   15   35 1
  31   16   17 ar
  32   17   18 ar
  33   17   19 1
  34   18   36 1
  35   19   37 1
  36   19   38 1
  37   19   39 1
  38   20   21 am
  39   20   24 2
  40   21   25 1
  41   21   26 1
  42   22   40 1
  43   25   41 1
  44   25   42 1
  45   25   43 1
  46   26   44 1
  47   26   45 1
  48   26   46 1

#	End of record

