#	Name: ASD03240784
#	Creating user name:	WinNT
#	Creation time:	15. 06. 2019 20:35

#	Modifying user name:	WinNT
#	Modification time:	15. 06. 2019 20:35

#	Program:	/corina/corina34_cracker 3.40 0067  02.08.2006

@<TRIPOS>MOLECULE
ASD03240784
  81   87    0    0    0
SMALL
NO_CHARGES


@<TRIPOS>ATOM
   1 C1            -0.0144     1.2086     0.0087 C.2     
   2 O2             0.0678     0.0557    -0.3587 O.2     
   3 N3             3.7847     2.8213    -1.0168 N.3     
   4 C4             3.7148     2.0457     0.2282 C.3     
   5 C5             2.4581     1.1725     0.2169 C.3     
   6 C6             1.2225     2.0665     0.0806 C.3     
   7 C7             1.3431     2.8988    -1.1989 C.3     
   8 C8             2.6322     3.7220    -1.1466 C.3     
   9 C9             5.0476     3.5667    -1.1025 C.3     
  10 C10            5.1946     4.1488    -2.4847 C.ar    
  11 C11            4.6981     5.4111    -2.7570 C.ar    
  12 C12            4.8300     5.9497    -4.0204 C.ar    
  13 C13            5.4653     5.2186    -5.0243 C.ar    
  14 C14            5.9637     3.9464    -4.7435 C.ar    
  15 C15            5.8304     3.4209    -3.4747 C.ar    
  16 C16            3.8389     8.4346    -9.8319 C.2     
  17 N17            4.9125     8.2093   -10.6098 N.2     
  18 C18            5.9111     7.4624   -10.2148 C.2     
  19 C19            5.8609     6.8538    -8.8872 C.ar    
  20 C20            4.7312     7.0937    -8.0758 C.ar    
  21 N21            3.7252     7.8960    -8.5788 N.pl3   
  22 C22            6.8975     6.0460    -8.4086 C.ar    
  23 C23            6.7669     5.5061    -7.1330 C.ar    
  24 C24            5.6097     5.7906    -6.3825 C.ar    
  25 N25            4.6482     6.5610    -6.8694 N.ar    
  26 N26            2.5038     8.3179    -8.0397 N.2     
  27 C27            1.8948     9.0788    -8.9172 C.2     
  28 C28            2.6870     9.1769   -10.0542 C.2     
  29 C29            7.8323     4.6417    -6.5711 C.ar    
  30 C30            8.3314     3.5735    -7.3147 C.ar    
  31 C31            9.3235     2.7725    -6.7867 C.ar    
  32 C32            9.8222     3.0278    -5.5219 C.ar    
  33 C33            9.3304     4.0861    -4.7792 C.ar    
  34 C34            8.3427     4.8975    -5.2994 C.ar    
  35 C35            0.5519     9.7352    -8.7255 C.3     
  36 N36           -1.2127     1.7242     0.3473 N.am    
  37 C37           -2.4420     0.9386     0.1729 C.3     
  38 C38           -3.4382     1.7587    -0.6528 C.3     
  39 C39           -3.6511     3.1187     0.0158 C.3     
  40 C40           -2.3235     3.8784     0.0646 C.3     
  41 C41           -1.3140     3.0803     0.9037 C.3     
  42 C42           -4.6719     3.9274    -0.7873 C.3     
  43 O43           -4.9581     5.1481    -0.1018 O.3     
  44 H44            4.5973     1.4112     0.3108 H       
  45 H45            3.6764     2.7265     1.0786 H       
  46 H46            2.5023     0.4819    -0.6252 H       
  47 H47            2.3984     0.6086     1.1479 H       
  48 H48            1.1560     2.7299     0.9429 H       
  49 H49            1.3698     2.2354    -2.0634 H       
  50 H50            0.4868     3.5684    -1.2796 H       
  51 H51            2.5988     4.3950    -0.2898 H       
  52 H52            2.7282     4.3050    -2.0626 H       
  53 H53            5.0450     4.3717    -0.3676 H       
  54 H54            5.8811     2.8937    -0.9012 H       
  55 H55            4.2061     5.9760    -1.9790 H       
  56 H56            4.4417     6.9351    -4.2318 H       
  57 H57            6.4563     3.3754    -5.5167 H       
  58 H58            6.2195     2.4377    -3.2550 H       
  59 H59            6.7610     7.2982   -10.8607 H       
  60 H60            7.7718     5.8471    -9.0106 H       
  61 H61            2.4500     9.7324   -10.9495 H       
  62 H62            7.9423     3.3729    -8.3020 H       
  63 H63            9.7110     1.9447    -7.3619 H       
  64 H64           10.5983     2.3981    -5.1125 H       
  65 H65            9.7233     4.2804    -3.7921 H       
  66 H66            7.9627     5.7263    -4.7205 H       
  67 H67            0.6895    10.7214    -8.2821 H       
  68 H68            0.0561     9.8369    -9.6909 H       
  69 H69           -0.0612     9.1222    -8.0649 H       
  70 H70           -2.2112     0.0102    -0.3497 H       
  71 H71           -2.8735     0.7138     1.1482 H       
  72 H72           -3.0436     1.9053    -1.6582 H       
  73 H73           -4.3886     1.2278    -0.7083 H       
  74 H74           -4.0222     2.9707     1.0300 H       
  75 H75           -1.9394     4.0051    -0.9475 H       
  76 H76           -2.4804     4.8563     0.5198 H       
  77 H77           -1.6554     3.0266     1.9374 H       
  78 H78           -0.3387     3.5655     0.8635 H       
  79 H79           -4.2637     4.1512    -1.7729 H       
  80 H80           -5.5889     3.3485    -0.8967 H       
  81 H81           -5.5995     5.7125    -0.5548 H       
@<TRIPOS>BOND
   1    1    2 2
   2    1    6 1
   3    1   36 am
   4    3    4 1
   5    3    8 1
   6    3    9 1
   7    4    5 1
   8    4   44 1
   9    4   45 1
  10    5    6 1
  11    5   46 1
  12    5   47 1
  13    6    7 1
  14    6   48 1
  15    7    8 1
  16    7   49 1
  17    7   50 1
  18    8   51 1
  19    8   52 1
  20    9   10 1
  21    9   53 1
  22    9   54 1
  23   10   11 ar
  24   10   15 ar
  25   11   12 ar
  26   11   55 1
  27   12   13 ar
  28   12   56 1
  29   13   14 ar
  30   13   24 1
  31   14   15 ar
  32   14   57 1
  33   15   58 1
  34   16   17 1
  35   16   21 1
  36   16   28 2
  37   17   18 2
  38   18   19 1
  39   18   59 1
  40   19   20 ar
  41   19   22 ar
  42   20   21 1
  43   20   25 ar
  44   21   26 1
  45   22   23 ar
  46   22   60 1
  47   23   24 ar
  48   23   29 1
  49   24   25 ar
  50   26   27 2
  51   27   28 1
  52   27   35 1
  53   28   61 1
  54   29   30 ar
  55   29   34 ar
  56   30   31 ar
  57   30   62 1
  58   31   32 ar
  59   31   63 1
  60   32   33 ar
  61   32   64 1
  62   33   34 ar
  63   33   65 1
  64   34   66 1
  65   35   67 1
  66   35   68 1
  67   35   69 1
  68   36   37 1
  69   36   41 1
  70   37   38 1
  71   37   70 1
  72   37   71 1
  73   38   39 1
  74   38   72 1
  75   38   73 1
  76   39   40 1
  77   39   42 1
  78   39   74 1
  79   40   41 1
  80   40   75 1
  81   40   76 1
  82   41   77 1
  83   41   78 1
  84   42   43 1
  85   42   79 1
  86   42   80 1
  87   43   81 1

#	End of record

