#	Name: ASD01890021
#	Creating user name:	WinNT
#	Creation time:	15. 06. 2019 19:50

#	Modifying user name:	WinNT
#	Modification time:	15. 06. 2019 19:50

#	Program:	/corina/corina34_cracker 3.40 0067  02.08.2006

@<TRIPOS>MOLECULE
ASD01890021
  21   22    0    0    0
SMALL
NO_CHARGES


@<TRIPOS>ATOM
   1 C1            -0.0184     1.5084     0.0103 C.2     
   2 C2             0.0021    -0.0041     0.0020 C.3     
   3 C3            -0.8921    -0.5103     1.1413 C.3     
   4 C4            -2.2769     0.1358     1.0043 C.3     
   5 C5            -2.1019     1.6363     0.9266 C.2     
   6 O6             1.0093     2.1435     0.0039 O.2     
   7 O7            -2.7304     2.3731     1.6490 O.2     
   8 O8            -1.2209     2.1304     0.0195 O.3     
   9 C9            -1.0227    -2.0090     1.0535 C.2     
  10 C10           -0.6505    -2.8702     2.0017 C.2     
  11 C11           -0.8685    -4.2029     1.6974 C.2     
  12 C12           -1.4177    -4.4240     0.5021 C.2     
  13 S13           -1.6963    -2.8899    -0.3118 S.3     
  14 H14           -0.3778    -0.3701    -0.9518 H       
  15 H15            1.0222    -0.3572     0.1528 H       
  16 H16           -0.4534    -0.2348     2.1003 H       
  17 H17           -2.7604    -0.2239     0.0960 H       
  18 H18           -2.8864    -0.1173     1.8717 H       
  19 H19           -0.2119    -2.5518     2.9359 H       
  20 H20           -0.6129    -5.0031     2.3762 H       
  21 H21           -1.6580    -5.3961     0.0975 H       
@<TRIPOS>BOND
   1    1    2 1
   2    1    6 2
   3    1    8 1
   4    2    3 1
   5    2   14 1
   6    2   15 1
   7    3    4 1
   8    3    9 1
   9    3   16 1
  10    4    5 1
  11    4   17 1
  12    4   18 1
  13    5    7 2
  14    5    8 1
  15    9   10 2
  16    9   13 1
  17   10   11 1
  18   10   19 1
  19   11   12 2
  20   11   20 1
  21   12   13 1
  22   12   21 1

#	End of record

