#	Name: ASD01148518
#	Creating user name:	WinNT
#	Creation time:	15. 06. 2019 19:02

#	Modifying user name:	WinNT
#	Modification time:	15. 06. 2019 19:02

#	Program:	/corina/corina34_cracker 3.40 0067  02.08.2006

@<TRIPOS>MOLECULE
ASD01148518
  51   55    0    0    0
SMALL
NO_CHARGES


@<TRIPOS>ATOM
   1 C1            -0.0180     1.4358     0.0451 C.ar    
   2 C2            -0.0166     0.0527     0.0405 C.ar    
   3 C3             1.1837    -0.6376     0.0176 C.ar    
   4 C4             2.3796     0.0567    -0.0008 C.ar    
   5 C5             2.3764     1.4392     0.0038 C.ar    
   6 C6             1.1784     2.1283     0.0267 C.ar    
   7 C7             3.6798     2.1954    -0.0162 C.3     
   8 O8             4.6902     1.4630    -0.7388 O.3     
   9 C9             3.5589     3.4850    -0.8627 C.3     
  10 C10            4.0453     3.0315    -2.2260 C.2     
  11 N11            4.6592     1.9034    -2.0820 N.2     
  12 C12            3.8510     3.7525    -3.4956 C.ar    
  13 C13            4.3741     3.1997    -4.7425 C.ar    
  14 C14            3.1648     4.9589    -3.5158 C.ar    
  15 C15            2.9677     5.6573    -4.6937 C.ar    
  16 C16            3.4479     5.1817    -5.9064 C.ar    
  17 C17            4.1728     3.9139    -5.9473 C.ar    
  18 C18            3.2227     5.9477    -7.1451 C.2     
  19 O19            3.7346     5.5839    -8.1864 O.2     
  20 N20            2.4495     7.0514    -7.1238 N.am    
  21 C21            4.6744     3.3957    -7.1479 C.ar    
  22 C22            5.0671     1.9827    -4.7702 C.ar    
  23 C23            4.1464     2.5144     1.4056 C.3     
  24 F24            4.3128     1.3232     2.1201 F       
  25 F25            5.3641     3.2011     1.3537 F       
  26 F26            3.1888     3.3107     2.0429 F       
  27 Cl27           1.1872    -2.3736     0.0125 Cl      
  28 Cl28          -1.5187    -0.8173     0.0642 Cl      
  29 C29            2.2374     7.7729    -8.2906 C.ar    
  30 N30            1.4748     8.8549    -8.2517 N.ar    
  31 N31            2.8068     7.3656    -9.4147 N.ar    
  32 C32            2.6254     8.0300   -10.5440 C.ar    
  33 C33            1.8284     9.1641   -10.5405 C.ar    
  34 C34            1.2524     9.5651    -9.3451 C.ar    
  35 C35            5.5381     1.5030    -5.9562 C.ar    
  36 C36            5.3448     2.2085    -7.1408 C.ar    
  37 H37           -0.9538     1.9748     0.0585 H       
  38 H38            3.3161    -0.4810    -0.0183 H       
  39 H39            1.1770     3.2082     0.0303 H       
  40 H40            2.5225     3.8190    -0.9131 H       
  41 H41            4.2008     4.2708    -0.4645 H       
  42 H42            2.7758     5.3610    -2.5920 H       
  43 H43            2.4284     6.5927    -4.6694 H       
  44 H44            2.0412     7.3415    -6.2931 H       
  45 H45            4.5307     3.9330    -8.0736 H       
  46 H46            5.2278     1.4281    -3.8575 H       
  47 H47            3.0927     7.6931   -11.4575 H       
  48 H48            1.6634     9.7255   -11.4482 H       
  49 H49            0.6261    10.4442    -9.3079 H       
  50 H50            6.0723     0.5646    -5.9765 H       
  51 H51            5.7308     1.8096    -8.0672 H       
@<TRIPOS>BOND
   1    1    2 ar
   2    1    6 ar
   3    1   37 1
   4    2    3 ar
   5    2   28 1
   6    3    4 ar
   7    3   27 1
   8    4    5 ar
   9    4   38 1
  10    5    6 ar
  11    5    7 1
  12    6   39 1
  13    7    8 1
  14    7    9 1
  15    7   23 1
  16    8   11 1
  17    9   10 1
  18    9   40 1
  19    9   41 1
  20   10   11 2
  21   10   12 1
  22   12   13 ar
  23   12   14 ar
  24   13   22 ar
  25   13   17 ar
  26   14   15 ar
  27   14   42 1
  28   15   16 ar
  29   15   43 1
  30   16   17 ar
  31   16   18 1
  32   17   21 ar
  33   18   19 2
  34   18   20 am
  35   20   29 1
  36   20   44 1
  37   21   36 ar
  38   21   45 1
  39   22   35 ar
  40   22   46 1
  41   23   24 1
  42   23   25 1
  43   23   26 1
  44   29   30 ar
  45   29   31 ar
  46   30   34 ar
  47   31   32 ar
  48   32   33 ar
  49   32   47 1
  50   33   34 ar
  51   33   48 1
  52   34   49 1
  53   35   36 ar
  54   35   50 1
  55   36   51 1

#	End of record

