#	Name: ASD01948193
#	Creating user name:	WinNT
#	Creation time:	15. 06. 2019 20:13

#	Modifying user name:	WinNT
#	Modification time:	15. 06. 2019 20:13

#	Program:	/corina/corina34_cracker 3.40 0067  02.08.2006

@<TRIPOS>MOLECULE
ASD01948193
  50   53    0    0    0
SMALL
NO_CHARGES


@<TRIPOS>ATOM
   1 C1            -1.6245     0.4460     2.7663 C.ar    
   2 C2            -1.5926     1.1333     3.9900 C.ar    
   3 C3            -2.2711     2.3457     4.1353 C.ar    
   4 C4            -2.9755     2.8682     3.0693 C.ar    
   5 C5            -3.0110     2.1899     1.8526 C.ar    
   6 C6            -2.3424     0.9814     1.6996 C.ar    
   7 F7            -3.6330     4.0404     3.2063 F       
   8 O8            -0.8919    -0.6775     2.9183 O.3     
   9 C9            -0.3900    -0.7569     4.1637 C.2     
  10 C10           -0.7694     0.3078     4.8828 C.2     
  11 F11           -2.2384     3.0040     5.3145 F       
  12 N12           -2.3839     0.3055     0.4700 N.am    
  13 N13           -3.7304     2.7287     0.7759 N.pl3   
  14 C14           -5.0139     2.2559     0.4861 C.ar    
  15 C15           -6.1100     3.1073     0.5868 C.ar    
  16 C16           -5.1971     0.9374     0.0918 C.ar    
  17 C17           -6.4666     0.4730    -0.1943 C.ar    
  18 C18           -7.5551     1.3194    -0.0891 C.ar    
  19 C19           -7.3771     2.6358     0.2989 C.ar    
  20 I20           -9.4772     0.6094    -0.5258 I       
  21 F21           -5.9360     4.3923     0.9656 F       
  22 C22           -2.4064    -2.3264     1.2476 C.3     
  23 C23           -1.7282    -3.6933     1.3594 C.3     
  24 C24           -0.2100    -3.5079     1.3974 C.3     
  25 O25            0.2454    -3.0458     0.1242 O.3     
  26 C26            0.4590    -4.8445     1.7241 C.3     
  27 O27            1.8662    -4.6481     1.8766 O.3     
  28 C28           -3.9355    -2.2978     1.2034 C.3     
  29 C29           -3.1976    -1.8291     2.4590 C.3     
  30 S30           -1.5168    -1.0899     0.2625 S.o2    
  31 O31           -1.6387    -1.3754    -1.1242 O.2     
  32 O32           -0.2515    -0.8059     0.8435 O.2     
  33 H33            0.2295    -1.5619     4.5306 H       
  34 H34           -0.5197     0.5171     5.9124 H       
  35 H35           -2.9206     0.6559    -0.2582 H       
  36 H36           -3.3374     3.4294     0.2323 H       
  37 H37           -4.3479     0.2753     0.0085 H       
  38 H38           -6.6090    -0.5527    -0.5011 H       
  39 H39           -8.2293     3.2943     0.3805 H       
  40 H40           -2.0568    -4.1882     2.2734 H       
  41 H41           -1.9982    -4.3044     0.4982 H       
  42 H42            0.0476    -2.7759     2.1629 H       
  43 H43           -0.0140    -3.6121    -0.6155 H       
  44 H44            0.0450    -5.2411     2.6511 H       
  45 H45            0.2764    -5.5499     0.9135 H       
  46 H46            2.3557    -5.4555     2.0853 H       
  47 H47           -4.4069    -1.5359     0.5827 H       
  48 H48           -4.4583    -3.2529     1.2540 H       
  49 H49           -3.2350    -2.4757     3.3357 H       
  50 H50           -3.1835    -0.7587     2.6644 H       
@<TRIPOS>BOND
   1    1    2 ar
   2    1    8 1
   3    1    6 ar
   4    2    3 ar
   5    2   10 1
   6    3    4 ar
   7    3   11 1
   8    4    5 ar
   9    4    7 1
  10    5    6 ar
  11    5   13 1
  12    6   12 1
  13    8    9 1
  14    9   10 2
  15    9   33 1
  16   10   34 1
  17   12   30 am
  18   12   35 1
  19   13   14 1
  20   13   36 1
  21   14   15 ar
  22   14   16 ar
  23   15   21 1
  24   15   19 ar
  25   16   17 ar
  26   16   37 1
  27   17   18 ar
  28   17   38 1
  29   18   19 ar
  30   18   20 1
  31   19   39 1
  32   22   23 1
  33   22   28 1
  34   22   30 1
  35   22   29 1
  36   23   24 1
  37   23   40 1
  38   23   41 1
  39   24   25 1
  40   24   26 1
  41   24   42 1
  42   25   43 1
  43   26   27 1
  44   26   44 1
  45   26   45 1
  46   27   46 1
  47   28   29 1
  48   28   47 1
  49   28   48 1
  50   29   49 1
  51   29   50 1
  52   30   31 2
  53   30   32 2

#	End of record

