#	Name: ASD01917132
#	Creating user name:	WinNT
#	Creation time:	15. 06. 2019 20:08

#	Modifying user name:	WinNT
#	Modification time:	15. 06. 2019 20:08

#	Program:	/corina/corina34_cracker 3.40 0067  02.08.2006

@<TRIPOS>MOLECULE
ASD01917132
  47   50    0    0    0
SMALL
NO_CHARGES


@<TRIPOS>ATOM
   1 C1             0.3491     1.0640    -0.0277 C.2     
   2 C2             0.1179    -0.4252    -0.0304 C.3     
   3 N3             1.6055     1.5509    -0.0514 N.am    
   4 C4             1.8534     3.0007    -0.0491 C.3     
   5 C5             2.8567     3.3213     1.0640 C.3     
   6 N6             4.0537     2.4867     0.8952 N.3     
   7 C7             3.7325     1.0600     1.0341 C.3     
   8 C8             2.7653     0.6467    -0.0741 C.3     
   9 N9            -1.3215    -0.6960    -0.0018 N.pl3   
  10 N10           -2.1778    -0.8105    -1.1088 N.2     
  11 C11           -3.3816    -1.0555    -0.6379 C.2     
  12 N12           -3.3248    -1.1003     0.6978 N.2     
  13 C13           -2.0878    -0.8912     1.0966 C.2     
  14 C14           -1.6182    -0.8702     2.4994 C.ar    
  15 C15           -0.4172    -0.2396     2.8262 C.ar    
  16 C16            0.0162    -0.2228     4.1353 C.ar    
  17 C17           -0.7391    -0.8308     5.1256 C.ar    
  18 C18           -1.9325    -1.4588     4.8062 C.ar    
  19 C19           -2.3777    -1.4758     3.5010 C.ar    
  20 F20           -0.3103    -0.8116     6.4066 F       
  21 C21           -4.6045    -1.2499    -1.4559 C.ar    
  22 C22           -5.8263    -1.5045    -0.8364 C.ar    
  23 C23           -6.9609    -1.6841    -1.6007 C.ar    
  24 C24           -6.8864    -1.6120    -2.9823 C.ar    
  25 C25           -5.6736    -1.3590    -3.6024 C.ar    
  26 C26           -4.5352    -1.1725    -2.8454 C.ar    
  27 F27           -7.9996    -1.7894    -3.7270 F       
  28 O28           -0.5957     1.8242    -0.0091 O.2     
  29 H29            0.5513    -0.8585    -0.9319 H       
  30 H30            0.5884    -0.8676     0.8477 H       
  31 H31            2.2656     3.3032    -1.0118 H       
  32 H32            0.9195     3.5316     0.1356 H       
  33 H33            3.1362     4.3734     1.0097 H       
  34 H34            2.4029     3.1146     2.0332 H       
  35 H35            4.5019     2.6720     0.0104 H       
  36 H36            4.6473     0.4722     0.9582 H       
  37 H37            3.2666     0.8848     2.0038 H       
  38 H38            2.4340    -0.3780     0.0942 H       
  39 H39            3.2668     0.7186    -1.0392 H       
  40 H40            0.1722     0.2341     2.0551 H       
  41 H41            0.9458     0.2647     4.3892 H       
  42 H42           -2.5173    -1.9315     5.5814 H       
  43 H43           -3.3104    -1.9610     3.2538 H       
  44 H44           -5.8851    -1.5616     0.2405 H       
  45 H45           -7.9083    -1.8816    -1.1213 H       
  46 H46           -5.6198    -1.3040    -4.6797 H       
  47 H47           -3.5909    -0.9709    -3.3294 H       
@<TRIPOS>BOND
   1    1    2 1
   2    1    3 am
   3    1   28 2
   4    2    9 1
   5    2   29 1
   6    2   30 1
   7    3    4 1
   8    3    8 1
   9    4    5 1
  10    4   31 1
  11    4   32 1
  12    5    6 1
  13    5   33 1
  14    5   34 1
  15    6    7 1
  16    6   35 1
  17    7    8 1
  18    7   36 1
  19    7   37 1
  20    8   38 1
  21    8   39 1
  22    9   10 1
  23    9   13 1
  24   10   11 2
  25   11   12 1
  26   11   21 1
  27   12   13 2
  28   13   14 1
  29   14   15 ar
  30   14   19 ar
  31   15   16 ar
  32   15   40 1
  33   16   17 ar
  34   16   41 1
  35   17   18 ar
  36   17   20 1
  37   18   19 ar
  38   18   42 1
  39   19   43 1
  40   21   22 ar
  41   21   26 ar
  42   22   23 ar
  43   22   44 1
  44   23   24 ar
  45   23   45 1
  46   24   25 ar
  47   24   27 1
  48   25   26 ar
  49   25   46 1
  50   26   47 1

#	End of record

