#	Name: ASD01140254
#	Creating user name:	WinNT
#	Creation time:	15. 06. 2019 19:00

#	Modifying user name:	WinNT
#	Modification time:	15. 06. 2019 19:00

#	Program:	/corina/corina34_cracker 3.40 0067  02.08.2006

@<TRIPOS>MOLECULE
ASD01140254
  23   24    0    0    0
SMALL
NO_CHARGES


@<TRIPOS>ATOM
   1 C1             0.0021     1.4025     0.0369 C.ar    
   2 C2             0.0100     0.0186     0.1201 C.ar    
   3 C3             1.2021    -0.6736     0.0948 C.ar    
   4 C4             2.4090     0.0212    -0.0157 C.ar    
   5 C5             2.3971     1.4227    -0.1002 C.ar    
   6 C6             1.1864     2.1028    -0.0726 C.ar    
   7 N7             3.5905     2.1258    -0.2100 N.pl3   
   8 Br8           -1.6223    -0.9243     0.2697 Br      
   9 C9             3.6883    -0.7130    -0.0429 C.2     
  10 O10            4.1438    -1.1809     0.9850 O.2     
  11 C11            4.4106    -0.8792    -1.3064 C.2     
  12 C12            5.6486    -1.4458    -1.4447 C.2     
  13 C13            6.0903    -1.4746    -2.7452 C.2     
  14 C14            5.2467    -0.9509    -3.6437 C.2     
  15 S15            3.8228    -0.3896    -2.8896 S.3     
  16 H16           -0.9370     1.9357     0.0534 H       
  17 H17            1.2029    -1.7516     0.1606 H       
  18 H18            1.1717     3.1807    -0.1372 H       
  19 H19            4.4372     1.6561    -0.1524 H       
  20 H20            3.5770     3.0864    -0.3441 H       
  21 H21            6.2213    -1.8314    -0.6142 H       
  22 H22            7.0483    -1.8890    -3.0227 H       
  23 H23            5.4400    -0.8951    -4.7048 H       
@<TRIPOS>BOND
   1    1    2 ar
   2    1    6 ar
   3    1   16 1
   4    2    3 ar
   5    2    8 1
   6    3    4 ar
   7    3   17 1
   8    4    5 ar
   9    4    9 1
  10    5    6 ar
  11    5    7 1
  12    6   18 1
  13    7   19 1
  14    7   20 1
  15    9   10 2
  16    9   11 1
  17   11   12 2
  18   11   15 1
  19   12   13 1
  20   12   21 1
  21   13   14 2
  22   13   22 1
  23   14   15 1
  24   14   23 1

#	End of record

