#	Name: ASD01190113
#	Creating user name:	WinNT
#	Creation time:	15. 06. 2019 19:07

#	Modifying user name:	WinNT
#	Modification time:	15. 06. 2019 19:07

#	Program:	/corina/corina34_cracker 3.40 0067  02.08.2006

@<TRIPOS>MOLECULE
ASD01190113
  51   55    0    0    0
SMALL
NO_CHARGES


@<TRIPOS>ATOM
   1 C1            -0.0187     1.5258     0.0104 C.3     
   2 C2             0.2087     0.0187    -0.1240 C.3     
   3 N3             5.0000     3.9823     0.6331 N.pl3   
   4 N4             5.6336     3.4699    -0.5038 N.2     
   5 C5             4.8173     2.6950    -1.1603 C.2     
   6 C6             3.5488     2.6690    -0.4389 C.ar    
   7 C7             2.3225     2.0290    -0.6505 C.ar    
   8 C8             1.3023     2.2148     0.2369 C.ar    
   9 C9             1.4699     3.0337     1.3469 C.ar    
  10 C10            2.6576     3.6694     1.5745 C.ar    
  11 C11            3.7164     3.4985     0.6869 C.ar    
  12 C12            5.5835     4.8455     1.5696 C.ar    
  13 C13            6.9299     4.7209     1.8857 C.ar    
  14 C14            7.5031     5.5728     2.8092 C.ar    
  15 C15            6.7362     6.5510     3.4197 C.ar    
  16 C16            5.3933     6.6770     3.1058 C.ar    
  17 C17            4.8175     5.8308     2.1787 C.ar    
  18 F18            7.2988     7.3832     4.3232 F       
  19 F19            0.7951    -0.4708     1.0480 F       
  20 F20           -1.0176    -0.6209    -0.3342 F       
  21 F21            1.0564    -0.2301    -1.2087 F       
  22 C22            1.0996     1.3192    -4.4559 C.ar    
  23 N23            0.9175     1.2910    -3.1534 N.ar    
  24 C24           -0.1435     1.8873    -2.6103 C.ar    
  25 C25           -1.0648     2.5467    -3.4503 C.ar    
  26 C26           -0.8219     2.5446    -4.8197 C.ar    
  27 N27            0.2582     1.9268    -5.2733 N.ar    
  28 N28           -2.0501     3.0675    -2.6447 N.pl3   
  29 C29           -0.6504     2.0531    -1.2521 C.2     
  30 C30           -1.7891     2.7652    -1.3399 C.2     
  31 C31           -3.2067     3.8329    -3.1167 C.3     
  32 C32           -4.3207     2.8696    -3.5317 C.3     
  33 O33           -5.4489     3.6161    -3.9921 O.3     
  34 Cl34          -1.9136     3.3359    -5.9132 Cl      
  35 O35           -0.8846     1.7799     1.1184 O.3     
  36 H36            5.0396     2.1664    -2.0754 H       
  37 H37            2.1841     1.3916    -1.5113 H       
  38 H38            0.6512     3.1695     2.0381 H       
  39 H39            2.7748     4.3035     2.4409 H       
  40 H40            7.5283     3.9579     1.4101 H       
  41 H41            8.5502     5.4759     3.0556 H       
  42 H42            4.7968     7.4403     3.5834 H       
  43 H43            3.7714     5.9325     1.9306 H       
  44 H44            1.9696     0.8323    -4.8710 H       
  45 H45           -2.4054     3.0544    -0.5015 H       
  46 H46           -3.5654     4.4799    -2.3163 H       
  47 H47           -2.9150     4.4414    -3.9727 H       
  48 H48           -3.9620     2.2226    -4.3322 H       
  49 H49           -4.6124     2.2611    -2.6758 H       
  50 H50           -6.1950     3.0686    -4.2724 H       
  51 H51           -1.0729     2.7172     1.2636 H       
@<TRIPOS>BOND
   1    1    2 1
   2    1    8 1
   3    1   29 1
   4    1   35 1
   5    2   19 1
   6    2   20 1
   7    2   21 1
   8    3    4 1
   9    3   11 1
  10    3   12 1
  11    4    5 2
  12    5    6 1
  13    5   36 1
  14    6    7 ar
  15    6   11 ar
  16    7    8 ar
  17    7   37 1
  18    8    9 ar
  19    9   10 ar
  20    9   38 1
  21   10   11 ar
  22   10   39 1
  23   12   13 ar
  24   12   17 ar
  25   13   14 ar
  26   13   40 1
  27   14   15 ar
  28   14   41 1
  29   15   16 ar
  30   15   18 1
  31   16   17 ar
  32   16   42 1
  33   17   43 1
  34   22   23 ar
  35   22   27 ar
  36   22   44 1
  37   23   24 ar
  38   24   25 ar
  39   24   29 1
  40   25   26 ar
  41   25   28 1
  42   26   27 ar
  43   26   34 1
  44   28   30 1
  45   28   31 1
  46   29   30 2
  47   30   45 1
  48   31   32 1
  49   31   46 1
  50   31   47 1
  51   32   33 1
  52   32   48 1
  53   32   49 1
  54   33   50 1
  55   35   51 1

#	End of record

