#	Name: ASD01881560
#	Creating user name:	WinNT
#	Creation time:	15. 06. 2019 19:42

#	Modifying user name:	WinNT
#	Modification time:	15. 06. 2019 19:42

#	Program:	/corina/corina34_cracker 3.40 0067  02.08.2006

@<TRIPOS>MOLECULE
ASD01881560
  58   63    0    0    0
SMALL
NO_CHARGES


@<TRIPOS>ATOM
   1 C1            -0.0171     1.4119     0.0098 C.2     
   2 C2             0.0021    -0.0041     0.0020 C.2     
   3 C3            -1.1516    -0.6977     0.0093 C.2     
   4 N4            -2.3550    -0.0531     0.0237 N.pl3   
   5 C5            -2.4170     1.3195     0.0317 C.2     
   6 C6            -1.2307     2.0728     0.0307 C.2     
   7 C7            -3.6470    -0.4833     0.0336 C.2     
   8 N8            -4.4148     0.5755     0.0466 N.2     
   9 N9            -3.7004     1.6456     0.0456 N.2     
  10 C10           -4.1081    -1.9180     0.0299 C.3     
  11 C11            1.2517     2.1774     0.0018 C.ar    
  12 C12           -4.2504    -2.4118     1.4710 C.3     
  13 C13            2.1186     2.0944     1.0838 C.ar    
  14 C14            3.3095     2.8196     1.0642 C.ar    
  15 C15            3.6234     3.6265    -0.0457 C.ar    
  16 C16            2.7393     3.6942    -1.1195 C.ar    
  17 C17            1.5776     2.9789    -1.0988 C.ar    
  18 C18            4.4262     2.9672     2.0013 C.2     
  19 C19            5.3043     3.8095     1.4349 C.2     
  20 N20            4.8417     4.2135     0.2122 N.pl3   
  21 C21           -4.8230    -3.8146     1.6839 C.3     
  22 C22           -3.3345    -3.5519     1.9208 C.3     
  23 C23            5.5397     5.1335    -0.6892 C.3     
  24 C24            5.7418     6.4786     0.0114 C.3     
  25 C25            6.4708     7.4395    -0.9300 C.3     
  26 C26            7.8320     6.8506    -1.3059 C.3     
  27 C27            7.6298     5.5055    -2.0065 C.3     
  28 C28            6.9009     4.5446    -1.0651 C.3     
  29 O29            8.5128     7.7480    -2.1852 O.3     
  30 C30           -1.2812     3.5789     0.0398 C.3     
  31 F31           -1.4177     4.0489    -1.2708 F       
  32 F32           -2.3732     4.0043     0.8039 F       
  33 F33           -0.0996     4.0818     0.5949 F       
  34 H34            0.9456    -0.5294    -0.0101 H       
  35 H35           -1.1249    -1.7773     0.0032 H       
  36 H36           -5.0715    -1.9887    -0.4752 H       
  37 H37           -3.3770    -2.5333    -0.4945 H       
  38 H38           -4.5026    -1.6483     2.2068 H       
  39 H39            1.8725     1.4740     1.9329 H       
  40 H40            2.9758     4.3119    -1.9733 H       
  41 H41            0.8987     3.0378    -1.9366 H       
  42 H42            4.5241     2.4890     2.9648 H       
  43 H43            6.2377     4.1227     1.8788 H       
  44 H44           -5.4516    -3.9739     2.5599 H       
  45 H45           -5.0984    -4.3856     0.7972 H       
  46 H46           -2.6306    -3.9501     1.1900 H       
  47 H47           -2.9838    -3.5384     2.9527 H       
  48 H48            4.9453     5.2794    -1.5912 H       
  49 H49            4.7721     6.8982     0.2792 H       
  50 H50            6.3362     6.3328     0.9133 H       
  51 H51            5.8764     7.5853    -1.8320 H       
  52 H52            6.6148     8.3977    -0.4309 H       
  53 H53            8.4264     6.7048    -0.4040 H       
  54 H54            7.0354     5.6513    -2.9085 H       
  55 H55            8.5996     5.0860    -2.2743 H       
  56 H56            7.4952     4.3988    -0.1632 H       
  57 H57            6.7568     3.5864    -1.5642 H       
  58 H58            9.3850     7.4383    -2.4652 H       
@<TRIPOS>BOND
   1    1    2 1
   2    1   11 1
   3    1    6 2
   4    2    3 2
   5    2   34 1
   6    3    4 1
   7    3   35 1
   8    4    5 1
   9    4    7 1
  10    5    6 1
  11    5    9 2
  12    6   30 1
  13    7    8 2
  14    7   10 1
  15    8    9 1
  16   10   12 1
  17   10   36 1
  18   10   37 1
  19   11   13 ar
  20   11   17 ar
  21   12   21 1
  22   12   22 1
  23   12   38 1
  24   13   14 ar
  25   13   39 1
  26   14   15 ar
  27   14   18 1
  28   15   16 ar
  29   15   20 1
  30   16   17 ar
  31   16   40 1
  32   17   41 1
  33   18   19 2
  34   18   42 1
  35   19   20 1
  36   19   43 1
  37   20   23 1
  38   21   22 1
  39   21   44 1
  40   21   45 1
  41   22   46 1
  42   22   47 1
  43   23   24 1
  44   23   28 1
  45   23   48 1
  46   24   25 1
  47   24   49 1
  48   24   50 1
  49   25   26 1
  50   25   51 1
  51   25   52 1
  52   26   27 1
  53   26   29 1
  54   26   53 1
  55   27   28 1
  56   27   54 1
  57   27   55 1
  58   28   56 1
  59   28   57 1
  60   29   58 1
  61   30   31 1
  62   30   32 1
  63   30   33 1

#	End of record

