#	Name: ASD08150922
#	Creating user name:	WinNT
#	Creation time:	15. 06. 2019 21:16

#	Modifying user name:	WinNT
#	Modification time:	15. 06. 2019 21:16

#	Program:	/corina/corina34_cracker 3.40 0067  02.08.2006

@<TRIPOS>MOLECULE
ASD08150922
  52   56    0    0    0
SMALL
NO_CHARGES


@<TRIPOS>ATOM
   1 N1            -0.2170     1.2338    -0.0418 N.3     
   2 C2            -0.3834    -0.2197    -0.1679 C.3     
   3 C3             0.1922    -0.9098     1.0709 C.3     
   4 C4             1.6763    -0.5567     1.2026 C.3     
   5 C5             1.8256     0.9651     1.2835 C.3     
   6 C6             1.2027     1.6008     0.0386 C.3     
   7 O7             0.0485    -2.3253     0.9386 O.3     
   8 N8             0.5117     0.7843    -2.7121 N.ar    
   9 C9             0.8762     0.5508    -3.9495 C.ar    
  10 C10            0.2723     1.1979    -5.0255 C.ar    
  11 C11           -0.7273     2.1016    -4.8034 C.ar    
  12 C12           -1.1158     2.3490    -3.4730 C.ar    
  13 C13           -2.1368     3.2650    -3.1691 C.ar    
  14 C14           -2.4903     3.4820    -1.8707 C.ar    
  15 C15           -1.8536     2.8076    -0.8333 C.ar    
  16 C16           -0.8475     1.9023    -1.0917 C.ar    
  17 C17           -0.4591     1.6562    -2.4267 C.ar    
  18 C18           -2.2689     3.0717     0.5911 C.3     
  19 C19           -1.3956     4.1817     1.1794 C.3     
  20 N20           -3.6733     3.4875     0.6211 N.pl3   
  21 N21           -6.6328     4.2592     0.9317 N.2     
  22 C22           -7.8043     4.3828     1.4849 C.2     
  23 N23           -7.7862     3.8474     2.7384 N.pl3   
  24 C24           -6.5209     3.3668     2.9622 C.ar    
  25 N25           -5.9150     2.7539     3.9738 N.ar    
  26 C26           -4.6489     2.4045     3.8853 C.ar    
  27 N27           -3.9225     2.6392     2.8079 N.ar    
  28 C28           -4.4423     3.2466     1.7462 C.ar    
  29 C29           -5.7909     3.6385     1.7926 C.ar    
  30 Cl30          -2.9464     4.1196    -4.4451 Cl      
  31 H31           -1.4434    -0.4576    -0.2565 H       
  32 H32            0.1428    -0.5698    -1.0560 H       
  33 H33           -0.3427    -0.5705     1.9580 H       
  34 H34            2.0799    -1.0109     2.1076 H       
  35 H35            2.2181    -0.9301     0.3337 H       
  36 H36            1.3164     1.3339     2.1739 H       
  37 H37            2.8829     1.2248     1.3344 H       
  38 H38            1.7213     1.2422    -0.8505 H       
  39 H39            1.2946     2.6852     0.0999 H       
  40 H40            0.3929    -2.8276     1.6897 H       
  41 H41            1.6654    -0.1615    -4.1398 H       
  42 H42            0.5945     0.9853    -6.0342 H       
  43 H43           -1.2062     2.6127    -5.6255 H       
  44 H44           -3.2759     4.1875    -1.6438 H       
  45 H45           -2.1464     2.1626     1.1798 H       
  46 H46           -1.6960     4.3728     2.2097 H       
  47 H47           -0.3507     3.8724     1.1571 H       
  48 H48           -1.5181     5.0909     0.5908 H       
  49 H49           -4.0642     3.9317    -0.1475 H       
  50 H50           -8.6638     4.8424     1.0197 H       
  51 H51           -8.5313     3.8129     3.3586 H       
  52 H52           -4.1868     1.9079     4.7257 H       
@<TRIPOS>BOND
   1    1    2 1
   2    1    6 1
   3    1   16 1
   4    2    3 1
   5    2   31 1
   6    2   32 1
   7    3    4 1
   8    3    7 1
   9    3   33 1
  10    4    5 1
  11    4   34 1
  12    4   35 1
  13    5    6 1
  14    5   36 1
  15    5   37 1
  16    6   38 1
  17    6   39 1
  18    7   40 1
  19    8    9 ar
  20    8   17 ar
  21    9   10 ar
  22    9   41 1
  23   10   11 ar
  24   10   42 1
  25   11   12 ar
  26   11   43 1
  27   12   13 ar
  28   12   17 ar
  29   13   14 ar
  30   13   30 1
  31   14   15 ar
  32   14   44 1
  33   15   16 ar
  34   15   18 1
  35   16   17 ar
  36   18   19 1
  37   18   20 1
  38   18   45 1
  39   19   46 1
  40   19   47 1
  41   19   48 1
  42   20   28 1
  43   20   49 1
  44   21   22 2
  45   21   29 1
  46   22   23 1
  47   22   50 1
  48   23   24 1
  49   23   51 1
  50   24   25 ar
  51   24   29 ar
  52   25   26 ar
  53   26   27 ar
  54   26   52 1
  55   27   28 ar
  56   28   29 ar

#	End of record

