#	Name: ASD03240729
#	Creating user name:	WinNT
#	Creation time:	15. 06. 2019 20:35

#	Modifying user name:	WinNT
#	Modification time:	15. 06. 2019 20:35

#	Program:	/corina/corina34_cracker 3.40 0067  02.08.2006

@<TRIPOS>MOLECULE
ASD03240729
  77   83    0    0    0
SMALL
NO_CHARGES


@<TRIPOS>ATOM
   1 N1            -0.0178     1.4642     0.0101 N.3     
   2 C2             0.0021    -0.0041     0.0020 C.3     
   3 C3             0.7039    -0.5130     1.2631 C.3     
   4 C4             2.1331     0.0352     1.3025 C.3     
   5 C5             2.0858     1.5651     1.2611 C.3     
   6 C6             1.3439     2.0138     0.0000 C.3     
   7 C7             2.8099    -0.4136     2.5720 C.2     
   8 O8             2.2093    -1.1040     3.3679 O.2     
   9 N9             4.0825    -0.0476     2.8228 N.am    
  10 C10           -0.8045     1.9863    -1.1153 C.3     
  11 C11           -1.0092     3.4690    -0.9402 C.ar    
  12 C12           -0.0910     4.3584    -1.4693 C.ar    
  13 C13           -0.2730     5.7171    -1.3127 C.ar    
  14 C14           -1.3857     6.1934    -0.6192 C.ar    
  15 C15           -2.3079     5.2916    -0.0881 C.ar    
  16 C16           -2.1175     3.9353    -0.2560 C.ar    
  17 C17            0.2757    11.9092     0.1996 C.2     
  18 N18           -0.9399    12.4844     0.2013 N.2     
  19 C19           -2.0370    11.7884     0.0495 C.2     
  20 C20           -1.9409    10.3410    -0.1283 C.ar    
  21 C21           -0.6623     9.7434    -0.1287 C.ar    
  22 N22            0.4396    10.5599     0.0390 N.pl3   
  23 C23           -3.0775     9.5434    -0.2957 C.ar    
  24 C24           -2.8941     8.1738    -0.4578 C.ar    
  25 C25           -1.5868     7.6504    -0.4471 C.ar    
  26 N26           -0.5336     8.4377    -0.2864 N.ar    
  27 N27            1.8119    10.2859     0.0849 N.2     
  28 C28            2.4617    11.4107     0.2650 C.2     
  29 C29            1.5451    12.4513     0.3479 C.2     
  30 C30           -4.0604     7.2766    -0.6389 C.ar    
  31 C31           -5.1405     7.3471     0.2395 C.ar    
  32 C32           -6.2236     6.5098     0.0657 C.ar    
  33 C33           -6.2387     5.6014    -0.9775 C.ar    
  34 C34           -5.1695     5.5267    -1.8521 C.ar    
  35 C35           -4.0837     6.3632    -1.6918 C.ar    
  36 C36            3.9584    11.5507     0.3705 C.3     
  37 C37            4.7405    -0.4839     4.0569 C.3     
  38 C38            6.1683     0.0645     4.0950 C.3     
  39 C39            7.6184    -0.4460     7.4112 C.2     
  40 N40            7.9437    -1.5650     6.8236 N.2     
  41 C41            7.4811    -1.5543     5.5647 C.2     
  42 C42            6.8451    -0.3843     5.3645 C.2     
  43 N43            6.9319     0.3191     6.5355 N.pl3   
  44 H44           -1.0204    -0.3810    -0.0218 H       
  45 H45            0.5390    -0.3552    -0.8792 H       
  46 H46            0.1597    -0.1738     2.1445 H       
  47 H47            0.7324    -1.6025     1.2493 H       
  48 H48            2.6892    -0.3354     0.4414 H       
  49 H49            1.5633     1.9370     2.1425 H       
  50 H50            3.1015     1.9603     1.2458 H       
  51 H51            1.8745     1.6533    -0.8812 H       
  52 H52            1.2960     3.1025    -0.0252 H       
  53 H53            4.5628     0.5046     2.1862 H       
  54 H54           -0.2719     1.8007    -2.0480 H       
  55 H55           -1.7729     1.4868    -1.1444 H       
  56 H56            0.7703     3.9884    -2.0056 H       
  57 H57            0.4446     6.4104    -1.7258 H       
  58 H58           -3.1712     5.6543     0.4501 H       
  59 H59           -2.8330     3.2363     0.1512 H       
  60 H60           -3.0004    12.2766     0.0553 H       
  61 H61           -4.0666     9.9770    -0.2984 H       
  62 H62            1.7784    13.4950     0.4987 H       
  63 H63           -5.1296     8.0554     1.0547 H       
  64 H64           -7.0610     6.5635     0.7456 H       
  65 H65           -7.0883     4.9479    -1.1095 H       
  66 H66           -5.1865     4.8153    -2.6645 H       
  67 H67           -3.2514     6.3071    -2.3778 H       
  68 H68            4.3790    11.7134    -0.6218 H       
  69 H69            4.1997    12.3991     1.0109 H       
  70 H70            4.3792    10.6410     0.7988 H       
  71 H71            4.1846    -0.1100     4.9167 H       
  72 H72            4.7686    -1.5731     4.0881 H       
  73 H73            6.7241    -0.3094     3.2351 H       
  74 H74            6.1401     1.1537     4.0638 H       
  75 H75            7.8551    -0.1782     8.4303 H       
  76 H76            7.5985    -2.3452     4.8387 H       
  77 H77            6.5682     1.2023     6.7047 H       
@<TRIPOS>BOND
   1    1    2 1
   2    1    6 1
   3    1   10 1
   4    2    3 1
   5    2   44 1
   6    2   45 1
   7    3    4 1
   8    3   46 1
   9    3   47 1
  10    4    5 1
  11    4    7 1
  12    4   48 1
  13    5    6 1
  14    5   49 1
  15    5   50 1
  16    6   51 1
  17    6   52 1
  18    7    8 2
  19    7    9 am
  20    9   37 1
  21    9   53 1
  22   10   11 1
  23   10   54 1
  24   10   55 1
  25   11   12 ar
  26   11   16 ar
  27   12   13 ar
  28   12   56 1
  29   13   14 ar
  30   13   57 1
  31   14   15 ar
  32   14   25 1
  33   15   16 ar
  34   15   58 1
  35   16   59 1
  36   17   18 1
  37   17   22 1
  38   17   29 2
  39   18   19 2
  40   19   20 1
  41   19   60 1
  42   20   21 ar
  43   20   23 ar
  44   21   22 1
  45   21   26 ar
  46   22   27 1
  47   23   24 ar
  48   23   61 1
  49   24   25 ar
  50   24   30 1
  51   25   26 ar
  52   27   28 2
  53   28   29 1
  54   28   36 1
  55   29   62 1
  56   30   31 ar
  57   30   35 ar
  58   31   32 ar
  59   31   63 1
  60   32   33 ar
  61   32   64 1
  62   33   34 ar
  63   33   65 1
  64   34   35 ar
  65   34   66 1
  66   35   67 1
  67   36   68 1
  68   36   69 1
  69   36   70 1
  70   37   38 1
  71   37   71 1
  72   37   72 1
  73   38   42 1
  74   38   73 1
  75   38   74 1
  76   39   40 2
  77   39   43 1
  78   39   75 1
  79   40   41 1
  80   41   42 2
  81   41   76 1
  82   42   43 1
  83   43   77 1

#	End of record

