#	Name: ASD01917024
#	Creating user name:	WinNT
#	Creation time:	15. 06. 2019 20:08

#	Modifying user name:	WinNT
#	Modification time:	15. 06. 2019 20:08

#	Program:	/corina/corina34_cracker 3.40 0067  02.08.2006

@<TRIPOS>MOLECULE
ASD01917024
  31   33    0    0    0
SMALL
NO_CHARGES


@<TRIPOS>ATOM
   1 C1            -0.0180     1.4757     0.0102 C.ar    
   2 C2             0.0021    -0.0041     0.0020 C.2     
   3 N3             1.0773    -0.7630    -0.0119 N.2     
   4 C4             0.7196    -2.0517    -0.0155 C.2     
   5 N5            -0.5936    -2.1308    -0.0040 N.2     
   6 N6            -1.0819    -0.8143     0.0134 N.pl3   
   7 C7             1.6529    -3.2056    -0.0310 C.ar    
   8 C8             3.0294    -2.9910    -0.0432 C.ar    
   9 C9            -1.2337     2.1595     0.0313 C.ar    
  10 C10            1.1553    -4.5073    -0.0276 C.ar    
  11 C11            2.0271    -5.5767    -0.0415 C.ar    
  12 C12            3.3940    -5.3582    -0.0585 C.ar    
  13 C13            3.8932    -4.0674    -0.0571 C.ar    
  14 C14            1.4904    -6.9848    -0.0378 C.3     
  15 C15            1.1787     2.1924     0.0026 C.ar    
  16 C16            1.1534     3.5719     0.0107 C.ar    
  17 C17           -0.0555     4.2443     0.0263 C.ar    
  18 C18           -1.2457     3.5392     0.0392 C.ar    
  19 Br19           4.5831    -6.8284    -0.0762 Br      
  20 H20           -2.0122    -0.5398     0.0248 H       
  21 H21            3.4199    -1.9841    -0.0421 H       
  22 H22           -2.1635     1.6101     0.0410 H       
  23 H23            0.0891    -4.6787    -0.0137 H       
  24 H24            4.9604    -3.9021    -0.0703 H       
  25 H25            1.3475    -7.3219    -1.0645 H       
  26 H26            2.1993    -7.6425     0.4652 H       
  27 H27            0.5362    -7.0086     0.4885 H       
  28 H28            2.1231     1.6686    -0.0093 H       
  29 H29            2.0792     4.1280     0.0052 H       
  30 H30           -0.0702     5.3242     0.0327 H       
  31 H31           -2.1863     4.0698     0.0514 H       
@<TRIPOS>BOND
   1    1    2 1
   2    1   15 ar
   3    1    9 ar
   4    2    3 2
   5    2    6 1
   6    3    4 1
   7    4    5 2
   8    4    7 1
   9    5    6 1
  10    6   20 1
  11    7    8 ar
  12    7   10 ar
  13    8   13 ar
  14    8   21 1
  15    9   18 ar
  16    9   22 1
  17   10   11 ar
  18   10   23 1
  19   11   12 ar
  20   11   14 1
  21   12   13 ar
  22   12   19 1
  23   13   24 1
  24   14   25 1
  25   14   26 1
  26   14   27 1
  27   15   16 ar
  28   15   28 1
  29   16   17 ar
  30   16   29 1
  31   17   18 ar
  32   17   30 1
  33   18   31 1

#	End of record

