#	Name: ASD01881708
#	Creating user name:	WinNT
#	Creation time:	15. 06. 2019 19:43

#	Modifying user name:	WinNT
#	Modification time:	15. 06. 2019 19:43

#	Program:	/corina/corina34_cracker 3.40 0067  02.08.2006

@<TRIPOS>MOLECULE
ASD01881708
  62   66    0    0    0
SMALL
NO_CHARGES


@<TRIPOS>ATOM
   1 C1            -0.0979     1.5246    -0.3493 C.3     
   2 C2            -0.0548    -0.0033    -0.2823 C.3     
   3 C3            -1.4266    -0.5342     0.1385 C.3     
   4 O4             0.2849    -0.5271    -1.5677 O.3     
   5 N5            -1.4067    -2.0031     0.1305 N.3     
   6 C6            -2.6836    -2.5495     0.6088 C.3     
   7 C7            -2.6894    -4.0697     0.4154 C.3     
   8 N8            -1.4925    -4.6276     1.0631 N.am    
   9 C9            -0.1855    -4.0375     0.7364 C.3     
  10 C10           -0.2783    -2.5186     0.9172 C.3     
  11 S11           -1.6134    -5.8865     2.1321 S.o2    
  12 O12           -0.4602    -5.8221     2.9599 O.2     
  13 O13           -2.9392    -5.8536     2.6424 O.2     
  14 C14           -1.4753    -7.3762     1.2015 C.ar    
  15 C15           -0.2337    -7.9455     0.9884 C.ar    
  16 C16           -0.1253    -9.1142     0.2582 C.ar    
  17 C17           -1.2585    -9.7139    -0.2586 C.ar    
  18 C18           -2.5002    -9.1452    -0.0448 C.ar    
  19 C19           -2.6090    -7.9788     0.6891 C.ar    
  20 O20            1.2107     2.0264    -0.6282 O.3     
  21 N21            2.0313     7.4253    -1.0545 N.pl3   
  22 N22            3.4073     7.3522    -1.3174 N.2     
  23 N23            3.7763     6.1199    -1.3277 N.2     
  24 C24            2.7239     5.3136    -1.0838 C.ar    
  25 C25            1.5931     6.1293    -0.9053 C.ar    
  26 C26            2.5860     3.9220    -0.9888 C.ar    
  27 C27            1.3475     3.3761    -0.7213 C.ar    
  28 C28            0.2363     4.1973    -0.5466 C.ar    
  29 C29            0.3553     5.5555    -0.6377 C.ar    
  30 C30            1.2216     8.6419    -0.9525 C.3     
  31 C31            0.6655     9.0016    -2.3318 C.3     
  32 C32           -0.3060    10.1804    -2.4163 C.3     
  33 C33            1.1193    10.3238    -2.9537 C.3     
  34 Br34           4.0891     2.7992    -1.2248 Br      
  35 H35           -0.7819     1.8345    -1.1394 H       
  36 H36           -0.4430     1.9206     0.6058 H       
  37 H37            0.6941    -0.3140     0.4462 H       
  38 H38           -1.6613    -0.1796     1.1422 H       
  39 H39           -2.1841    -0.1773    -0.5593 H       
  40 H40           -0.3397    -0.2896    -2.2667 H       
  41 H41           -2.8052    -2.3170     1.6667 H       
  42 H42           -3.5034    -2.1077     0.0423 H       
  43 H43           -3.5839    -4.4935     0.8718 H       
  44 H44           -2.6722    -4.3034    -0.6491 H       
  45 H45            0.5754    -4.4400     1.4051 H       
  46 H46            0.0723    -4.2681    -0.2972 H       
  47 H47            0.6463    -2.0543     0.5744 H       
  48 H48           -0.4334    -2.2865     1.9709 H       
  49 H49            0.6516    -7.4769     1.3922 H       
  50 H50            0.8447    -9.5586     0.0912 H       
  51 H51           -1.1738   -10.6267    -0.8297 H       
  52 H52           -3.3855    -9.6135    -0.4488 H       
  53 H53           -3.5794    -7.5364     0.8593 H       
  54 H54           -0.7276     3.7570    -0.3380 H       
  55 H55           -0.5125     6.1837    -0.5008 H       
  56 H56            0.3964     8.4722    -0.2610 H       
  57 H57            1.8406     9.4607    -0.5856 H       
  58 H58            0.4962     8.1606    -3.0043 H       
  59 H59           -1.1143    10.1152    -3.1447 H       
  60 H60           -0.5491    10.6998    -1.4894 H       
  61 H61            1.8140    10.9375    -2.3802 H       
  62 H62            1.2488    10.3529    -4.0355 H       
@<TRIPOS>BOND
   1    1    2 1
   2    1   20 1
   3    1   35 1
   4    1   36 1
   5    2    3 1
   6    2    4 1
   7    2   37 1
   8    3    5 1
   9    3   38 1
  10    3   39 1
  11    4   40 1
  12    5    6 1
  13    5   10 1
  14    6    7 1
  15    6   41 1
  16    6   42 1
  17    7    8 1
  18    7   43 1
  19    7   44 1
  20    8    9 1
  21    8   11 am
  22    9   10 1
  23    9   45 1
  24    9   46 1
  25   10   47 1
  26   10   48 1
  27   11   12 2
  28   11   13 2
  29   11   14 1
  30   14   15 ar
  31   14   19 ar
  32   15   16 ar
  33   15   49 1
  34   16   17 ar
  35   16   50 1
  36   17   18 ar
  37   17   51 1
  38   18   19 ar
  39   18   52 1
  40   19   53 1
  41   20   27 1
  42   21   22 1
  43   21   25 1
  44   21   30 1
  45   22   23 2
  46   23   24 1
  47   24   25 ar
  48   24   26 ar
  49   25   29 ar
  50   26   27 ar
  51   26   34 1
  52   27   28 ar
  53   28   29 ar
  54   28   54 1
  55   29   55 1
  56   30   31 1
  57   30   56 1
  58   30   57 1
  59   31   32 1
  60   31   33 1
  61   31   58 1
  62   32   33 1
  63   32   59 1
  64   32   60 1
  65   33   61 1
  66   33   62 1

#	End of record

