#	Name: ASD01901258
#	Creating user name:	WinNT
#	Creation time:	15. 06. 2019 19:53

#	Modifying user name:	WinNT
#	Modification time:	15. 06. 2019 19:53

#	Program:	/corina/corina34_cracker 3.40 0067  02.08.2006

@<TRIPOS>MOLECULE
ASD01901258
  48   51    0    0    0
SMALL
NO_CHARGES


@<TRIPOS>ATOM
   1 C1            -0.0166     1.3750     0.0096 C.ar    
   2 C2             0.0021    -0.0041     0.0020 C.ar    
   3 C3             1.2078    -0.6830    -0.0127 C.ar    
   4 C4             2.4027     0.0149    -0.0199 C.ar    
   5 C5             2.3997     1.3941    -0.0129 C.ar    
   6 C6             1.1860     2.0866     0.0019 C.ar    
   7 C7             1.1748     3.5185     0.0093 C.1     
   8 C8             1.1656     4.6925     0.0153 C.1     
   9 C9             1.1543     6.1244     0.0226 C.ar    
  10 C10           -0.0678     8.1952     0.0502 C.ar    
  11 C11           -0.0607     6.8154     0.0432 C.ar    
  12 C12            2.3584     6.8345     0.0149 C.ar    
  13 C13            2.3438     8.2143     0.0220 C.ar    
  14 C14            1.1325     8.8989     0.0372 C.ar    
  15 F15           -1.2417     8.8638     0.0701 F       
  16 N16            1.1215    10.3004     0.0433 N.am    
  17 C17            1.1320    10.9597     1.2229 C.2     
  18 C18            1.0991    13.0809    -0.0512 C.ar    
  19 N19            1.0959    12.3067    -1.1982 N.am    
  20 C20            1.1062    10.9654    -1.1225 C.2     
  21 O21            1.1020    10.3254    -2.1561 O.2     
  22 O22            1.1509    10.3539     2.2771 O.2     
  23 F23            3.5070     8.9014     0.0145 F       
  24 C24            1.1205    12.4316     1.1967 C.ar    
  25 C25            1.0738    12.9574    -2.5106 C.3     
  26 C26            2.3194    12.5527    -3.3015 C.3     
  27 C27           -0.1788    12.5229    -3.2743 C.3     
  28 N28            1.0879    14.4018    -0.1104 N.ar    
  29 C29            1.1296    13.1905     2.3664 C.ar    
  30 C30            1.1171    14.5700     2.2434 C.ar    
  31 C31            1.0962    15.1409     0.9820 C.ar    
  32 H32           -0.9584     1.9035     0.0169 H       
  33 H33           -0.9266    -0.5554     0.0079 H       
  34 H34            1.2163    -1.7630    -0.0182 H       
  35 H35            3.3399    -0.5217    -0.0306 H       
  36 H36            3.3331     1.9374    -0.0182 H       
  37 H37           -0.9928     6.2698     0.0533 H       
  38 H38            3.2989     6.3038     0.0038 H       
  39 H39            1.0623    14.0395    -2.3795 H       
  40 H40            2.3309    11.4707    -3.4326 H       
  41 H41            2.3030    13.0369    -4.2780 H       
  42 H42            3.2117    12.8623    -2.7575 H       
  43 H43           -1.0662    12.8113    -2.7108 H       
  44 H44           -0.1952    13.0071    -4.2507 H       
  45 H45           -0.1673    11.4409    -3.4054 H       
  46 H46            1.1456    12.7178     3.3373 H       
  47 H47            1.1233    15.1953     3.1240 H       
  48 H48            1.0869    16.2169     0.8905 H       
@<TRIPOS>BOND
   1    1    2 ar
   2    1    6 ar
   3    1   32 1
   4    2    3 ar
   5    2   33 1
   6    3    4 ar
   7    3   34 1
   8    4    5 ar
   9    4   35 1
  10    5    6 ar
  11    5   36 1
  12    6    7 1
  13    7    8 3
  14    8    9 1
  15    9   12 ar
  16    9   11 ar
  17   10   11 ar
  18   10   14 ar
  19   10   15 1
  20   11   37 1
  21   12   13 ar
  22   12   38 1
  23   13   14 ar
  24   13   23 1
  25   14   16 1
  26   16   17 am
  27   16   20 am
  28   17   24 1
  29   17   22 2
  30   18   19 1
  31   18   24 ar
  32   18   28 ar
  33   19   20 am
  34   19   25 1
  35   20   21 2
  36   24   29 ar
  37   25   26 1
  38   25   27 1
  39   25   39 1
  40   26   40 1
  41   26   41 1
  42   26   42 1
  43   27   43 1
  44   27   44 1
  45   27   45 1
  46   28   31 ar
  47   29   30 ar
  48   29   46 1
  49   30   31 ar
  50   30   47 1
  51   31   48 1

#	End of record

