#	Name: ASD01813630
#	Creating user name:	WinNT
#	Creation time:	15. 06. 2019 19:30

#	Modifying user name:	WinNT
#	Modification time:	15. 06. 2019 19:30

#	Program:	/corina/corina34_cracker 3.40 0067  02.08.2006

@<TRIPOS>MOLECULE
ASD01813630
  46   49    0    0    0
SMALL
NO_CHARGES


@<TRIPOS>ATOM
   1 C1             0.0977     1.4753     0.3548 C.ar    
   2 C2             0.0797     0.0881     0.3470 C.ar    
   3 C3             1.2500    -0.6307     0.2168 C.ar    
   4 C4             2.4671     0.0383     0.0913 C.ar    
   5 C5             2.4806     1.4430     0.0996 C.ar    
   6 C6             1.2890     2.1559     0.2321 C.ar    
   7 N7             3.6443    -0.6677    -0.0386 N.pl3   
   8 C8             4.8374    -0.0728    -0.1606 C.2     
   9 C9             4.9774     1.3006    -0.1654 C.2     
  10 C10            3.7744     2.1383    -0.0339 C.2     
  11 O11            3.8447     3.3548    -0.0328 O.2     
  12 C12            6.3052     1.9159    -0.3005 C.2     
  13 O13            6.4289     3.2583    -0.3038 O.3     
  14 O14            7.2920     1.2143    -0.4093 O.2     
  15 C15            3.5871    -2.1316    -0.0427 C.3     
  16 C16            3.4445    -2.6248    -1.4595 C.ar    
  17 C17            4.5577    -2.7691    -2.2627 C.ar    
  18 N18            4.4448    -3.2006    -3.5048 N.ar    
  19 C19            3.2687    -3.5104    -4.0279 C.ar    
  20 C20            2.1048    -3.3887    -3.2751 C.ar    
  21 C21            2.1924    -2.9441    -1.9685 C.ar    
  22 F22            1.2169    -1.9813     0.2113 F       
  23 N23            3.1958    -3.9607    -5.3409 N.3     
  24 C24            4.5309    -4.0153    -5.9540 C.3     
  25 C25            4.4115    -4.5714    -7.3754 C.3     
  26 O26            3.5043    -3.7589    -8.1251 O.3     
  27 C27            2.1941    -3.6840    -7.5567 C.3     
  28 C28            2.2911    -3.1189    -6.1372 C.3     
  29 H29           -0.8272     2.0243     0.4530 H       
  30 H30           -0.8604    -0.4346     0.4442 H       
  31 H31            1.3003     3.2358     0.2381 H       
  32 H32            5.7198    -0.6877    -0.2581 H       
  33 H33            7.3225     3.6166    -0.3952 H       
  34 H34            4.5033    -2.5322     0.3910 H       
  35 H35            2.7314    -2.4635     0.5454 H       
  36 H36            5.5337    -2.5255    -1.8697 H       
  37 H37            1.1465    -3.6417    -3.7042 H       
  38 H38            1.3061    -2.8398    -1.3602 H       
  39 H39            4.9562    -3.0123    -5.9901 H       
  40 H40            5.1768    -4.6641    -5.3623 H       
  41 H41            5.3908    -4.5604    -7.8540 H       
  42 H42            4.0366    -5.5941    -7.3357 H       
  43 H43            1.5696    -3.0311    -8.1665 H       
  44 H44            1.7547    -4.6809    -7.5224 H       
  45 H45            1.3019    -3.1133    -5.6793 H       
  46 H46            2.6805    -2.1016    -6.1762 H       
@<TRIPOS>BOND
   1    1    2 ar
   2    1    6 ar
   3    1   29 1
   4    2    3 ar
   5    2   30 1
   6    3    4 ar
   7    3   22 1
   8    4    5 ar
   9    4    7 1
  10    5    6 ar
  11    5   10 1
  12    6   31 1
  13    7    8 1
  14    7   15 1
  15    8    9 2
  16    8   32 1
  17    9   10 1
  18    9   12 1
  19   10   11 2
  20   12   13 1
  21   12   14 2
  22   13   33 1
  23   15   16 1
  24   15   34 1
  25   15   35 1
  26   16   17 ar
  27   16   21 ar
  28   17   18 ar
  29   17   36 1
  30   18   19 ar
  31   19   20 ar
  32   19   23 1
  33   20   21 ar
  34   20   37 1
  35   21   38 1
  36   23   24 1
  37   23   28 1
  38   24   25 1
  39   24   39 1
  40   24   40 1
  41   25   26 1
  42   25   41 1
  43   25   42 1
  44   26   27 1
  45   27   28 1
  46   27   43 1
  47   27   44 1
  48   28   45 1
  49   28   46 1

#	End of record

