#	Name: ASD01881260
#	Creating user name:	WinNT
#	Creation time:	15. 06. 2019 19:42

#	Modifying user name:	WinNT
#	Modification time:	15. 06. 2019 19:42

#	Program:	/corina/corina34_cracker 3.40 0067  02.08.2006

@<TRIPOS>MOLECULE
ASD01881260
  59   62    0    0    0
SMALL
NO_CHARGES


@<TRIPOS>ATOM
   1 C1             0.0963     1.2596    -0.8998 C.2     
   2 N2             0.1184    -0.0816    -0.8157 N.am    
   3 C3             1.4947    -0.5155    -0.5497 C.3     
   4 C4             2.3261     0.7412    -0.4799 C.ar    
   5 C5             3.6607     0.9735    -0.2615 C.ar    
   6 C6             4.1465     2.2796    -0.2554 C.ar    
   7 C7             3.2781     3.3468    -0.4702 C.ar    
   8 C8             1.9394     3.1177    -0.6896 C.ar    
   9 C9             1.4475     1.8083    -0.6970 C.ar    
  10 O10           -0.8978     1.9252    -1.1177 O.2     
  11 N11            5.4989     2.5173    -0.0342 N.pl3   
  12 C12            6.4125     1.3947     0.1924 C.3     
  13 C13            6.3287     4.4563    -1.2156 C.ar    
  14 C14            5.9856     3.8253    -0.0280 C.ar    
  15 C15            6.1360     4.5253     1.1794 C.ar    
  16 C16            6.6271     5.8321     1.1261 C.ar    
  17 C17            6.9431     6.3808    -0.0997 C.ar    
  18 N18            6.7883     5.6917    -1.2143 N.ar    
  19 C19            5.7830     3.8958     2.4747 C.ar    
  20 C20            6.7282     3.8203     3.4964 C.ar    
  21 C21            6.3941     3.2332     4.6998 C.ar    
  22 C22            5.1241     2.7202     4.8932 C.ar    
  23 C23            4.1822     2.7919     3.8827 C.ar    
  24 C24            4.5031     3.3823     2.6772 C.ar    
  25 C25            7.4731     7.7900    -0.1668 C.3     
  26 C26            6.1799     3.7184    -2.5211 C.3     
  27 C27           -1.0408    -0.9649    -0.9645 C.3     
  28 C28           -1.1972    -1.3578    -2.4349 C.3     
  29 C29           -2.4078    -2.2803    -2.5904 C.3     
  30 C30           -2.5642    -2.6732    -4.0608 C.3     
  31 H31            1.5424    -1.0496     0.3993 H       
  32 H32            1.8489    -1.1548    -1.3584 H       
  33 H33            4.3336     0.1455    -0.0942 H       
  34 H34            3.6569     4.3582    -0.4643 H       
  35 H35            1.2689     3.9480    -0.8555 H       
  36 H36            6.7428     0.9959    -0.7668 H       
  37 H37            7.2771     1.7388     0.7600 H       
  38 H38            5.8974     0.6143     0.7524 H       
  39 H39            6.7573     6.4051     2.0322 H       
  40 H40            7.7202     4.2202     3.3464 H       
  41 H41            7.1257     3.1738     5.4921 H       
  42 H42            4.8670     2.2616     5.8366 H       
  43 H43            3.1922     2.3894     4.0390 H       
  44 H44            3.7653     3.4424     1.8908 H       
  45 H45            8.5606     7.7729    -0.0953 H       
  46 H46            7.1782     8.2444    -1.1127 H       
  47 H47            7.0637     8.3718     0.6590 H       
  48 H48            5.1831     3.8936    -2.9259 H       
  49 H49            6.9276     4.0772    -3.2285 H       
  50 H50            6.3214     2.6508    -2.3532 H       
  51 H51           -0.8940    -1.8616    -0.3625 H       
  52 H52           -1.9387    -0.4454    -0.6298 H       
  53 H53           -1.3439    -0.4611    -3.0370 H       
  54 H54           -0.2992    -1.8772    -2.7697 H       
  55 H55           -2.2610    -3.1770    -1.9883 H       
  56 H56           -3.3058    -1.7608    -2.2557 H       
  57 H57           -2.7109    -1.7765    -4.6629 H       
  58 H58           -1.6662    -3.1926    -4.3955 H       
  59 H59           -3.4267    -3.3304    -4.1715 H       
@<TRIPOS>BOND
   1    1    2 am
   2    1    9 1
   3    1   10 2
   4    2    3 1
   5    2   27 1
   6    3    4 1
   7    3   31 1
   8    3   32 1
   9    4    5 ar
  10    4    9 ar
  11    5    6 ar
  12    5   33 1
  13    6    7 ar
  14    6   11 1
  15    7    8 ar
  16    7   34 1
  17    8    9 ar
  18    8   35 1
  19   11   12 1
  20   11   14 1
  21   12   36 1
  22   12   37 1
  23   12   38 1
  24   13   14 ar
  25   13   18 ar
  26   13   26 1
  27   14   15 ar
  28   15   16 ar
  29   15   19 1
  30   16   17 ar
  31   16   39 1
  32   17   18 ar
  33   17   25 1
  34   19   20 ar
  35   19   24 ar
  36   20   21 ar
  37   20   40 1
  38   21   22 ar
  39   21   41 1
  40   22   23 ar
  41   22   42 1
  42   23   24 ar
  43   23   43 1
  44   24   44 1
  45   25   45 1
  46   25   46 1
  47   25   47 1
  48   26   48 1
  49   26   49 1
  50   26   50 1
  51   27   28 1
  52   27   51 1
  53   27   52 1
  54   28   29 1
  55   28   53 1
  56   28   54 1
  57   29   30 1
  58   29   55 1
  59   29   56 1
  60   30   57 1
  61   30   58 1
  62   30   59 1

#	End of record

