#	Name: ASD00311334
#	Creating user name:	WinNT
#	Creation time:	15. 06. 2019 18:34

#	Modifying user name:	WinNT
#	Modification time:	15. 06. 2019 18:34

#	Program:	/corina/corina34_cracker 3.40 0067  02.08.2006

@<TRIPOS>MOLECULE
ASD00311334
  37   40    0    0    0
SMALL
NO_CHARGES


@<TRIPOS>ATOM
   1 C1            -0.0167     1.3779     0.0096 C.2     
   2 C2             0.0021    -0.0041     0.0020 C.2     
   3 C3             1.2589    -0.6766    -0.0140 C.2     
   4 C4             2.4315     0.0675    -0.0217 C.2     
   5 C5             2.3574     1.4754    -0.0134 C.2     
   6 N6             1.1649     2.0906     0.0022 N.am    
   7 C7            -1.3431    -0.5749     0.0123 C.2     
   8 C8            -2.3222     0.3255     0.0268 C.2     
   9 S9            -1.6795     1.9560     0.0358 S.3     
  10 O10            3.3823     2.1375    -0.0200 O.2     
  11 C11            3.7477    -0.6117    -0.0379 C.ar    
  12 C12            4.5930    -0.4743    -1.1387 C.ar    
  13 C13            5.8179    -1.1095    -1.1479 C.ar    
  14 C14            6.2080    -1.8815    -0.0682 C.ar    
  15 C15            5.3739    -2.0217     1.0266 C.ar    
  16 C16            4.1491    -1.3867     1.0501 C.ar    
  17 O17            1.3089    -2.0290    -0.0214 O.3     
  18 C18           -1.5955    -2.0356     0.0062 C.ar    
  19 C19           -2.4696    -2.5976     0.9364 C.ar    
  20 C20           -2.7022    -3.9585     0.9276 C.ar    
  21 C21           -2.0655    -4.7673    -0.0070 C.ar    
  22 C22           -1.1956    -4.2100    -0.9325 C.ar    
  23 C23           -0.9642    -2.8495    -0.9330 C.ar    
  24 O24           -2.2958    -6.1074    -0.0135 O.3     
  25 F25           -3.5486    -4.5046     1.8279 F       
  26 H26            1.1327     3.0600     0.0077 H       
  27 H27           -3.3747     0.0836     0.0354 H       
  28 H28            4.2894     0.1278    -1.9823 H       
  29 H29            6.4732    -1.0042    -1.9999 H       
  30 H30            7.1676    -2.3771    -0.0802 H       
  31 H31            5.6840    -2.6256     1.8665 H       
  32 H32            3.5007    -1.4932     1.9072 H       
  33 H33            2.2062    -2.3894    -0.0322 H       
  34 H34           -2.9635    -1.9692     1.6627 H       
  35 H35           -0.7024    -4.8412    -1.6569 H       
  36 H36           -0.2903    -2.4164    -1.6572 H       
  37 H37           -3.0349    -6.3767    -0.5758 H       
@<TRIPOS>BOND
   1    1    2 2
   2    1    6 1
   3    1    9 1
   4    2    3 1
   5    2    7 1
   6    3    4 2
   7    3   17 1
   8    4    5 1
   9    4   11 1
  10    5    6 am
  11    5   10 2
  12    6   26 1
  13    7    8 2
  14    7   18 1
  15    8    9 1
  16    8   27 1
  17   11   12 ar
  18   11   16 ar
  19   12   13 ar
  20   12   28 1
  21   13   14 ar
  22   13   29 1
  23   14   15 ar
  24   14   30 1
  25   15   16 ar
  26   15   31 1
  27   16   32 1
  28   17   33 1
  29   18   19 ar
  30   18   23 ar
  31   19   20 ar
  32   19   34 1
  33   20   21 ar
  34   20   25 1
  35   21   22 ar
  36   21   24 1
  37   22   23 ar
  38   22   35 1
  39   23   36 1
  40   24   37 1

#	End of record

