#	Name: ASD03740278
#	Creating user name:	WinNT
#	Creation time:	15. 06. 2019 20:47

#	Modifying user name:	WinNT
#	Modification time:	15. 06. 2019 20:47

#	Program:	/corina/corina34_cracker 3.40 0067  02.08.2006

@<TRIPOS>MOLECULE
ASD03740278
  57   61    0    0    0
SMALL
NO_CHARGES


@<TRIPOS>ATOM
   1 C1             3.4516    -0.8319     3.4933 C.ar    
   2 C2             2.2141    -1.1491     2.9492 C.ar    
   3 C3             4.3829    -0.1414     2.7460 C.ar    
   4 C4             1.9153    -0.7656     1.6472 C.ar    
   5 C5             4.0894     0.2429     1.4399 C.ar    
   6 C6             2.8465    -0.0741     0.9044 C.ar    
   7 S7             2.4737     0.4298    -0.7459 S.o2    
   8 C8             3.7134     1.6151    -1.1695 C.2     
   9 C9             4.8059     1.7092    -0.4118 C.2     
  10 N10            5.0468     0.9271     0.6972 N.pl3   
  11 N11            1.2718    -1.8524     3.7086 N.am    
  12 S12            0.9869    -1.4201     5.2815 S.o2    
  13 C13            0.2746     0.2446     5.1716 C.3     
  14 O14            0.0114    -2.3512     5.7296 O.2     
  15 O15            2.2788    -1.3717     5.8712 O.2     
  16 O16            2.6916    -0.7023    -1.5766 O.2     
  17 O17            1.2403     1.1330    -0.6885 O.2     
  18 C18            7.2600     7.2747    -1.6074 C.ar    
  19 C19            8.5323     6.8047    -1.9100 C.ar    
  20 C20            8.8140     5.4564    -1.8591 C.ar    
  21 C21            6.2596     6.3958    -1.2511 C.ar    
  22 C22            6.5314     5.0255    -1.1954 C.ar    
  23 C23            7.8201     4.5518    -1.5022 C.ar    
  24 N24            8.0873     3.1979    -1.4473 N.am    
  25 C25            7.1400     2.3089    -1.1050 C.2     
  26 C26            5.8225     2.7150    -0.7840 C.2     
  27 C27            5.4895     4.0635    -0.8194 C.2     
  28 O28            4.2384     4.4780    -0.5168 O.3     
  29 C29            9.4341     2.7203    -1.7701 C.3     
  30 O30            7.4219     1.1236    -1.0701 O.2     
  31 C31           10.2688     2.6855    -0.5158 C.ar    
  32 C32           10.3002     1.5426     0.2614 C.ar    
  33 C33           11.8008     2.6214     1.7856 C.ar    
  34 C34           11.7734     3.7634     1.0032 C.ar    
  35 C35           11.0653     1.5095     1.4118 C.ar    
  36 C36           11.0069     3.7945    -0.1463 C.ar    
  37 F37            7.0037     8.6002    -1.6576 F       
  38 F38           12.5501     2.5897     2.9094 F       
  39 H39            3.6841    -1.1232     4.5070 H       
  40 H40            5.3433     0.1026     3.1756 H       
  41 H41            0.9547    -1.0097     1.2183 H       
  42 H42            3.5879     2.2545    -2.0309 H       
  43 H43            5.9691     0.8461     0.9868 H       
  44 H44            0.7857    -2.5929     3.3134 H       
  45 H45           -0.6444     0.2087     4.5866 H       
  46 H46            0.0533     0.6120     6.1736 H       
  47 H47            0.9870     0.9134     4.6884 H       
  48 H48            9.3081     7.5028    -2.1878 H       
  49 H49            9.8064     5.1026    -2.0967 H       
  50 H50            5.2717     6.7635    -1.0160 H       
  51 H51            4.1165     5.4355    -0.5743 H       
  52 H52            9.3724     1.7178    -2.1934 H       
  53 H53            9.8942     3.3927    -2.4941 H       
  54 H54            9.7264     0.6754    -0.0305 H       
  55 H55           12.3465     4.6314     1.2940 H       
  56 H56           11.0892     0.6168     2.0191 H       
  57 H57           10.9848     4.6853    -0.7565 H       
@<TRIPOS>BOND
   1    1    2 ar
   2    1    3 ar
   3    1   39 1
   4    2    4 ar
   5    2   11 1
   6    3    5 ar
   7    3   40 1
   8    4    6 ar
   9    4   41 1
  10    5    6 ar
  11    5   10 1
  12    6    7 1
  13    7    8 1
  14    7   16 2
  15    7   17 2
  16    8    9 2
  17    8   42 1
  18    9   10 1
  19    9   26 1
  20   10   43 1
  21   11   12 am
  22   11   44 1
  23   12   13 1
  24   12   14 2
  25   12   15 2
  26   13   45 1
  27   13   46 1
  28   13   47 1
  29   18   19 ar
  30   18   21 ar
  31   18   37 1
  32   19   20 ar
  33   19   48 1
  34   20   23 ar
  35   20   49 1
  36   21   22 ar
  37   21   50 1
  38   22   23 ar
  39   22   27 1
  40   23   24 1
  41   24   25 am
  42   24   29 1
  43   25   26 1
  44   25   30 2
  45   26   27 2
  46   27   28 1
  47   28   51 1
  48   29   31 1
  49   29   52 1
  50   29   53 1
  51   31   32 ar
  52   31   36 ar
  53   32   35 ar
  54   32   54 1
  55   33   34 ar
  56   33   35 ar
  57   33   38 1
  58   34   36 ar
  59   34   55 1
  60   35   56 1
  61   36   57 1

#	End of record

