#	Name: ASD01882764
#	Creating user name:	WinNT
#	Creation time:	15. 06. 2019 19:45

#	Modifying user name:	WinNT
#	Modification time:	15. 06. 2019 19:45

#	Program:	/corina/corina34_cracker 3.40 0067  02.08.2006

@<TRIPOS>MOLECULE
ASD01882764
  41   42    0    0    0
SMALL
NO_CHARGES


@<TRIPOS>ATOM
   1 N1            -0.0165     1.3692     0.0096 N.pl3   
   2 O2             1.1412    -0.7243    -0.0127 O.3     
   3 C3             0.0021    -0.0041     0.0020 C.2     
   4 N4            -1.0753    -0.7270     0.0089 N.2     
   5 C5            -0.6823    -2.1496     0.0076 C.3     
   6 C6             0.8153    -2.0697     0.3922 C.3     
   7 C7             1.6390    -3.0940    -0.3909 C.3     
   8 O8             3.0178    -2.9666    -0.0377 O.3     
   9 C9             3.8916    -3.8096    -0.6484 C.ar    
  10 C10            5.2454    -3.7409    -0.3525 C.ar    
  11 C11            6.1314    -4.5988    -0.9746 C.ar    
  12 C12            5.6702    -5.5252    -1.8919 C.ar    
  13 C13            4.3218    -5.5953    -2.1887 C.ar    
  14 C14            3.4307    -4.7439    -1.5642 C.ar    
  15 C15            5.7489    -2.7310     0.6462 C.3     
  16 C16            6.6392    -6.4596    -2.5694 C.3     
  17 C17            7.3531    -7.3068    -1.5143 C.3     
  18 C18            5.8776    -7.3758    -3.5293 C.3     
  19 C19            7.6705    -5.6447    -3.3525 C.3     
  20 H20            0.8168     1.8655     0.0043 H       
  21 H21           -0.8631     1.8427     0.0162 H       
  22 H22           -1.2463    -2.7101     0.7532 H       
  23 H23           -0.8071    -2.5872    -0.9829 H       
  24 H24            0.9511    -2.1991     1.4659 H       
  25 H25            1.2935    -4.0992    -0.1495 H       
  26 H26            1.5198    -2.9156    -1.4596 H       
  27 H27            7.1853    -4.5457    -0.7446 H       
  28 H28            3.9641    -6.3194    -2.9057 H       
  29 H29            2.3768    -4.8022    -1.7929 H       
  30 H30            5.7396    -3.1705     1.6436 H       
  31 H31            6.7668    -2.4398     0.3870 H       
  32 H32            5.1044    -1.8520     0.6305 H       
  33 H33            6.6184    -7.8873    -0.9564 H       
  34 H34            8.0540    -7.9827    -2.0044 H       
  35 H35            7.8957    -6.6541    -0.8304 H       
  36 H36            5.3689    -6.7722    -4.2810 H       
  37 H37            6.5784    -8.0516    -4.0194 H       
  38 H38            5.1428    -7.9563    -2.9714 H       
  39 H39            8.2131    -4.9920    -2.6686 H       
  40 H40            8.3714    -6.3206    -3.8426 H       
  41 H41            7.1619    -5.0411    -4.1042 H       
@<TRIPOS>BOND
   1    1    3 1
   2    1   20 1
   3    1   21 1
   4    2    3 1
   5    2    6 1
   6    3    4 2
   7    4    5 1
   8    5    6 1
   9    5   22 1
  10    5   23 1
  11    6    7 1
  12    6   24 1
  13    7    8 1
  14    7   25 1
  15    7   26 1
  16    8    9 1
  17    9   10 ar
  18    9   14 ar
  19   10   11 ar
  20   10   15 1
  21   11   12 ar
  22   11   27 1
  23   12   13 ar
  24   12   16 1
  25   13   14 ar
  26   13   28 1
  27   14   29 1
  28   15   30 1
  29   15   31 1
  30   15   32 1
  31   16   17 1
  32   16   19 1
  33   16   18 1
  34   17   33 1
  35   17   34 1
  36   17   35 1
  37   18   36 1
  38   18   37 1
  39   18   38 1
  40   19   39 1
  41   19   40 1
  42   19   41 1

#	End of record

