#	Name: ASD07930650
#	Creating user name:	WinNT
#	Creation time:	15. 06. 2019 21:12

#	Modifying user name:	WinNT
#	Modification time:	15. 06. 2019 21:12

#	Program:	/corina/corina34_cracker 3.40 0067  02.08.2006

@<TRIPOS>MOLECULE
ASD07930650
  51   53    0    0    0
SMALL
NO_CHARGES


@<TRIPOS>ATOM
   1 C1            -0.0343     1.4582     0.0425 C.3     
   2 N2             0.7952    -0.4133    -2.1302 N.2     
   3 N3            -0.8904    -1.7835    -1.2685 N.pl3   
   4 C4            -0.9150    -2.8271    -0.2382 C.3     
   5 C5            -1.2300    -2.1885     1.1215 C.3     
   6 S6             0.0061    -0.8913     1.4435 S.o2    
   7 N7            -0.0141    -0.0067     0.0315 N.am    
   8 C8            -0.0113    -0.7259    -1.1551 C.2     
   9 C9             0.4500    -3.5153    -0.1755 C.3     
  10 C10           -1.9765    -3.8423    -0.5755 C.ar    
  11 C11           -2.8068    -3.6380    -1.6597 C.ar    
  12 C12           -3.7850    -4.5740    -1.9701 C.ar    
  13 C13           -3.9256    -5.7134    -1.1890 C.ar    
  14 C14           -3.0929    -5.9137    -0.1053 C.ar    
  15 C15           -2.1147    -4.9822     0.1989 C.ar    
  16 O16           -0.4576     0.0117     2.4378 O.2     
  17 O17            1.3140    -1.4440     1.5003 O.2     
  18 N18           -4.6278    -4.3688    -3.0681 N.am    
  19 C19           -5.0478    -5.4192    -3.8008 C.2     
  20 O20           -4.6185    -6.5325    -3.5690 O.2     
  21 C21           -6.0315    -5.2171    -4.8875 C.ar    
  22 N22           -6.4973    -3.9988    -5.1367 N.ar    
  23 F23           -1.3010    -5.1802     1.2590 F       
  24 C24           -7.3715    -3.7764    -6.0930 C.ar    
  25 C25           -7.8440    -4.8129    -6.8831 C.ar    
  26 C26           -7.3864    -6.1010    -6.6600 C.ar    
  27 C27           -6.4586    -6.3079    -5.6471 C.ar    
  28 C28           -8.8469    -4.5406    -7.9745 C.3     
  29 C29           -8.1095    -4.2273    -9.2780 C.3     
  30 F30           -5.9843    -7.5474    -5.3943 F       
  31 H31            0.9882     1.8357     0.0394 H       
  32 H32           -0.5582     1.8209    -0.8418 H       
  33 H33           -0.5480     1.8077     0.9380 H       
  34 H34            1.4070     0.3332    -2.0331 H       
  35 H35           -1.4884    -1.8387    -2.0302 H       
  36 H36           -2.2270    -1.7485     1.0987 H       
  37 H37           -1.1799    -2.9460     1.9037 H       
  38 H38            1.2165    -2.7804     0.0704 H       
  39 H39            0.4311    -4.2908     0.5903 H       
  40 H40            0.6749    -3.9651    -1.1426 H       
  41 H41           -2.6960    -2.7510    -2.2657 H       
  42 H42           -4.6858    -6.4422    -1.4284 H       
  43 H43           -3.2021    -6.7996     0.5027 H       
  44 H44           -4.9098    -3.4707    -3.3019 H       
  45 H45           -7.7271    -2.7713    -6.2654 H       
  46 H46           -7.7398    -6.9248    -7.2623 H       
  47 H47           -9.4774    -5.4184    -8.1158 H       
  48 H48           -9.4669    -3.6892    -7.6941 H       
  49 H49           -8.8349    -4.0304   -10.0674 H       
  50 H50           -7.4789    -3.3495    -9.1368 H       
  51 H51           -7.4895    -5.0788    -9.5584 H       
@<TRIPOS>BOND
   1    1    7 1
   2    1   31 1
   3    1   32 1
   4    1   33 1
   5    2    8 2
   6    2   34 1
   7    3    4 1
   8    3    8 1
   9    3   35 1
  10    4    5 1
  11    4    9 1
  12    4   10 1
  13    5    6 1
  14    5   36 1
  15    5   37 1
  16    6    7 am
  17    6   16 2
  18    6   17 2
  19    7    8 1
  20    9   38 1
  21    9   39 1
  22    9   40 1
  23   10   11 ar
  24   10   15 ar
  25   11   12 ar
  26   11   41 1
  27   12   13 ar
  28   12   18 1
  29   13   14 ar
  30   13   42 1
  31   14   15 ar
  32   14   43 1
  33   15   23 1
  34   18   19 am
  35   18   44 1
  36   19   20 2
  37   19   21 1
  38   21   22 ar
  39   21   27 ar
  40   22   24 ar
  41   24   25 ar
  42   24   45 1
  43   25   26 ar
  44   25   28 1
  45   26   27 ar
  46   26   46 1
  47   27   30 1
  48   28   29 1
  49   28   47 1
  50   28   48 1
  51   29   49 1
  52   29   50 1
  53   29   51 1

#	End of record

