#	Name: ASD09116021
#	Creating user name:	WinNT
#	Creation time:	15. 06. 2019 21:20

#	Modifying user name:	WinNT
#	Modification time:	15. 06. 2019 21:20

#	Program:	/corina/corina34_cracker 3.40 0067  02.08.2006

@<TRIPOS>MOLECULE
ASD09116021
  84   91    0    0    0
SMALL
NO_CHARGES


@<TRIPOS>ATOM
   1 C1             0.0721     1.3400    -0.2546 C.ar    
   2 C2             0.0862    -0.0505    -0.1736 C.ar    
   3 C3            -1.1045    -0.7240    -0.0496 C.ar    
   4 N4            -2.2318    -0.0116    -0.0113 N.ar    
   5 N5            -2.2479     1.2701    -0.0853 N.ar    
   6 C6            -1.1354     2.0006    -0.2018 C.ar    
   7 N7            -1.1344    -2.1172     0.0338 N.pl3   
   8 N8            -0.0309    -2.9853     0.0064 N.2     
   9 C9            -0.5010    -4.2053     0.1108 C.2     
  10 N10           -1.8350    -4.1523     0.2021 N.2     
  11 C11           -2.2323    -2.8985     0.1630 C.2     
  12 N12            0.2660    -5.3702     0.1240 N.pl3   
  13 C13           -0.3618    -6.6218     0.1282 C.ar    
  14 C14           -1.5879    -6.7856    -0.5031 C.ar    
  15 C15            0.2444    -7.7005     0.7588 C.ar    
  16 C16           -0.3758    -8.9360     0.7627 C.ar    
  17 C17           -1.6061    -9.0975     0.1352 C.ar    
  18 C18           -2.2082    -8.0197    -0.4991 C.ar    
  19 N19           -3.5402    -2.4576     0.2318 N.pl3   
  20 N20           -2.2354   -10.3497     0.1383 N.3     
  21 F21            0.2133    -9.9860     1.3755 F       
  22 C22           -3.5475   -10.2777     0.7937 C.3     
  23 C23           -1.3824   -11.3658     0.7679 C.3     
  24 C24           -2.0354   -12.7423     0.6240 C.3     
  25 C25           -3.4131   -12.7206     1.2918 C.3     
  26 C26           -4.2651   -11.6217     0.6506 C.3     
  27 N27           -4.0692   -14.0217     1.1061 N.3     
  28 C28           -3.3016   -15.0984     1.7583 C.3     
  29 C29           -5.4363   -14.0108     1.6690 C.3     
  30 C30           -5.6572   -15.4495     2.1993 C.3     
  31 C31           -4.2508   -15.7987     2.7533 C.3     
  32 C32            1.4438     1.9527    -0.3888 C.3     
  33 C33            2.2731     1.4940     0.8233 C.3     
  34 C34            2.2885    -0.0320     0.9128 C.3     
  35 C35            1.4707    -0.6461    -0.2366 C.3     
  36 C36            2.0973     1.3477    -1.6435 C.3     
  37 C37            2.1132    -0.1783    -1.5540 C.3     
  38 C38           -1.1996     3.4801    -0.2840 C.ar    
  39 C39           -0.4216     4.1632    -1.2168 C.ar    
  40 C40           -0.4854     5.5401    -1.2887 C.ar    
  41 C41           -1.3193     6.2418    -0.4373 C.ar    
  42 C42           -2.0939     5.5689     0.4908 C.ar    
  43 C43           -2.0426     4.1921     0.5678 C.ar    
  44 C44            0.3557     6.2803    -2.2966 C.3     
  45 H45            1.2343    -5.3133     0.1304 H       
  46 H46           -2.0568    -5.9475    -0.9971 H       
  47 H47            1.2001    -7.5742     1.2457 H       
  48 H48           -3.1637    -8.1452    -0.9865 H       
  49 H49           -4.2640    -3.0978     0.3168 H       
  50 H50           -3.7345    -1.5080     0.1950 H       
  51 H51           -3.4133   -10.0484     1.8509 H       
  52 H52           -4.1448    -9.4953     0.3256 H       
  53 H53           -0.4072   -11.3737     0.2810 H       
  54 H54           -1.2583   -11.1314     1.8251 H       
  55 H55           -2.1472   -12.9833    -0.4332 H       
  56 H56           -1.4096   -13.4940     1.1050 H       
  57 H57           -3.2986   -12.5180     2.3567 H       
  58 H58           -5.2324   -11.5728     1.1506 H       
  59 H59           -4.4120   -11.8451    -0.4061 H       
  60 H60           -2.9556   -15.8123     1.0108 H       
  61 H61           -2.4505   -14.6759     2.2924 H       
  62 H62           -5.5052   -13.2910     2.4846 H       
  63 H63           -6.1645   -13.7766     0.8925 H       
  64 H64           -6.4039   -15.4626     2.9933 H       
  65 H65           -5.9372   -16.1249     1.3909 H       
  66 H66           -4.0903   -16.8767     2.7454 H       
  67 H67           -4.1214   -15.3960     3.7579 H       
  68 H68            1.3876     3.0400    -0.4406 H       
  69 H69            3.2948     1.8593     0.7200 H       
  70 H70            1.8372     1.9041     1.7342 H       
  71 H71            3.3176    -0.3862     0.8522 H       
  72 H72            1.8595    -0.3414     1.8658 H       
  73 H73            1.4371    -1.7329    -0.1611 H       
  74 H74            1.5333     1.6512    -2.5255 H       
  75 H75            3.1201     1.7143    -1.7295 H       
  76 H76            3.1435    -0.5312    -1.5977 H       
  77 H77            1.5569    -0.5944    -2.3940 H       
  78 H78            0.2302     3.6162    -1.8819 H       
  79 H79           -1.3658     7.3192    -0.4968 H       
  80 H80           -2.7431     6.1220     1.1534 H       
  81 H81           -2.6479     3.6678     1.2924 H       
  82 H82           -0.2024     6.3876    -3.2268 H       
  83 H83            0.6054     7.2671    -1.9068 H       
  84 H84            1.2723     5.7215    -2.4853 H       
@<TRIPOS>BOND
   1    1    2 ar
   2    1   32 1
   3    1    6 ar
   4    2    3 ar
   5    2   35 1
   6    3    4 ar
   7    3    7 1
   8    4    5 ar
   9    5    6 ar
  10    6   38 1
  11    7    8 1
  12    7   11 1
  13    8    9 2
  14    9   10 1
  15    9   12 1
  16   10   11 2
  17   11   19 1
  18   12   13 1
  19   12   45 1
  20   13   14 ar
  21   13   15 ar
  22   14   18 ar
  23   14   46 1
  24   15   16 ar
  25   15   47 1
  26   16   17 ar
  27   16   21 1
  28   17   18 ar
  29   17   20 1
  30   18   48 1
  31   19   49 1
  32   19   50 1
  33   20   22 1
  34   20   23 1
  35   22   26 1
  36   22   51 1
  37   22   52 1
  38   23   24 1
  39   23   53 1
  40   23   54 1
  41   24   25 1
  42   24   55 1
  43   24   56 1
  44   25   26 1
  45   25   27 1
  46   25   57 1
  47   26   58 1
  48   26   59 1
  49   27   28 1
  50   27   29 1
  51   28   31 1
  52   28   60 1
  53   28   61 1
  54   29   30 1
  55   29   62 1
  56   29   63 1
  57   30   31 1
  58   30   64 1
  59   30   65 1
  60   31   66 1
  61   31   67 1
  62   32   33 1
  63   32   36 1
  64   32   68 1
  65   33   34 1
  66   33   69 1
  67   33   70 1
  68   34   35 1
  69   34   71 1
  70   34   72 1
  71   35   37 1
  72   35   73 1
  73   36   37 1
  74   36   74 1
  75   36   75 1
  76   37   76 1
  77   37   77 1
  78   38   39 ar
  79   38   43 ar
  80   39   40 ar
  81   39   78 1
  82   40   41 ar
  83   40   44 1
  84   41   42 ar
  85   41   79 1
  86   42   43 ar
  87   42   80 1
  88   43   81 1
  89   44   82 1
  90   44   83 1
  91   44   84 1

#	End of record

