#	Name: ASD03491002
#	Creating user name:	WinNT
#	Creation time:	15. 06. 2019 20:42

#	Modifying user name:	WinNT
#	Modification time:	15. 06. 2019 20:42

#	Program:	/corina/corina34_cracker 3.40 0067  02.08.2006

@<TRIPOS>MOLECULE
ASD03491002
  67   70    0    0    0
SMALL
NO_CHARGES


@<TRIPOS>ATOM
   1 C1             0.0578     1.4510     0.4267 C.ar    
   2 C2             0.0830     0.1961    -0.1856 C.ar    
   3 C3             1.2900    -0.4942    -0.3014 C.ar    
   4 C4             2.4560     0.0705     0.1922 C.ar    
   5 C5             2.4198     1.3206     0.8002 C.ar    
   6 C6             1.2242     2.0042     0.9148 C.ar    
   7 C7             1.1940     3.3585     1.5751 C.3     
   8 N8             3.6677    -0.6168     0.0793 N.am    
   9 C9             3.6913    -1.9611     0.1737 C.2     
  10 O10            2.6781    -2.5677     0.4560 O.2     
  11 C11            5.0145    -4.1504     0.1427 C.ar    
  12 C12            6.2852    -4.8721     0.0406 C.ar    
  13 C13            6.2976    -6.2706     0.2512 C.ar    
  14 C14            5.0900    -6.9377     0.5535 C.ar    
  15 C15            3.9034    -6.2338     0.6433 C.ar    
  16 C16            3.8553    -4.8675     0.4510 C.ar    
  17 C17            7.4780    -4.2078    -0.2598 C.ar    
  18 C18            8.6417    -4.9159    -0.3466 C.ar    
  19 C19            8.6569    -6.2917    -0.1403 C.ar    
  20 C20            7.5110    -6.9687     0.1551 C.ar    
  21 O21            5.0943    -8.2765     0.7563 O.3     
  22 C22            3.8400    -8.8909     1.0584 C.3     
  23 C23            4.0426   -10.3949     1.2534 C.3     
  24 N24            4.8835   -10.6265     2.4354 N.3     
  25 C25            4.9065   -12.0519     2.7945 C.3     
  26 C26            5.8390   -12.2562     3.9914 C.3     
  27 O27            5.4026   -11.4317     5.0755 O.3     
  28 C28            5.3687   -10.0370     4.7607 C.3     
  29 C29            4.4315    -9.8103     3.5716 C.3     
  30 C30            2.1000     4.3216     0.8053 C.3     
  31 C31           -0.2389     3.8949     1.5734 C.3     
  32 C32            1.6903     3.2341     3.0171 C.3     
  33 C33            4.9608    -2.7029    -0.0685 C.2     
  34 O34            5.9519    -2.1059    -0.4414 O.2     
  35 C35           -1.1259    -0.3804    -0.6925 C.1     
  36 N36           -2.0849    -0.8377    -1.0946 N.1     
  37 H37           -0.8737     1.9905     0.5143 H       
  38 H38            1.3159    -1.4651    -0.7736 H       
  39 H39            3.3292     1.7588     1.1841 H       
  40 H40            4.4917    -0.1264    -0.0671 H       
  41 H41            2.9922    -6.7652     0.8750 H       
  42 H42            2.9109    -4.3494     0.5291 H       
  43 H43            7.4787    -3.1401    -0.4227 H       
  44 H44            9.5626    -4.4016    -0.5787 H       
  45 H45            9.5897    -6.8309    -0.2148 H       
  46 H46            7.5369    -8.0367     0.3133 H       
  47 H47            3.4339    -8.4575     1.9723 H       
  48 H48            3.1451    -8.7215     0.2359 H       
  49 H49            3.0751   -10.8764     1.3957 H       
  50 H50            4.5305   -10.8129     0.3729 H       
  51 H51            3.9000   -12.3773     3.0576 H       
  52 H52            5.2684   -12.6348     1.9475 H       
  53 H53            5.8151   -13.3021     4.2971 H       
  54 H54            6.8559   -11.9812     3.7116 H       
  55 H55            5.0048    -9.4781     5.6228 H       
  56 H56            6.3720    -9.6976     4.5032 H       
  57 H57            4.4466    -8.7569     3.2919 H       
  58 H58            3.4174   -10.0998     3.8471 H       
  59 H59            1.7465     4.4102    -0.2219 H       
  60 H60            2.0781     5.3011     1.2829 H       
  61 H61            3.1208     3.9395     0.8065 H       
  62 H62           -0.8843     3.2088     2.1219 H       
  63 H63           -0.2607     4.8744     2.0510 H       
  64 H64           -0.5924     3.9835     0.5462 H       
  65 H65            2.7111     2.8519     3.0183 H       
  66 H66            1.6684     4.2136     3.4947 H       
  67 H67            1.0448     2.5480     3.5655 H       
@<TRIPOS>BOND
   1    1    2 ar
   2    1    6 ar
   3    1   37 1
   4    2    3 ar
   5    2   35 1
   6    3    4 ar
   7    3   38 1
   8    4    5 ar
   9    4    8 1
  10    5    6 ar
  11    5   39 1
  12    6    7 1
  13    7   30 1
  14    7   31 1
  15    7   32 1
  16    8    9 am
  17    8   40 1
  18    9   10 2
  19    9   33 1
  20   11   12 ar
  21   11   33 1
  22   11   16 ar
  23   12   13 ar
  24   12   17 ar
  25   13   14 ar
  26   13   20 ar
  27   14   15 ar
  28   14   21 1
  29   15   16 ar
  30   15   41 1
  31   16   42 1
  32   17   18 ar
  33   17   43 1
  34   18   19 ar
  35   18   44 1
  36   19   20 ar
  37   19   45 1
  38   20   46 1
  39   21   22 1
  40   22   23 1
  41   22   47 1
  42   22   48 1
  43   23   24 1
  44   23   49 1
  45   23   50 1
  46   24   25 1
  47   24   29 1
  48   25   26 1
  49   25   51 1
  50   25   52 1
  51   26   27 1
  52   26   53 1
  53   26   54 1
  54   27   28 1
  55   28   29 1
  56   28   55 1
  57   28   56 1
  58   29   57 1
  59   29   58 1
  60   30   59 1
  61   30   60 1
  62   30   61 1
  63   31   62 1
  64   31   63 1
  65   31   64 1
  66   32   65 1
  67   32   66 1
  68   32   67 1
  69   33   34 2
  70   35   36 3

#	End of record

