#	Name: ASD03240564
#	Creating user name:	WinNT
#	Creation time:	15. 06. 2019 20:35

#	Modifying user name:	WinNT
#	Modification time:	15. 06. 2019 20:35

#	Program:	/corina/corina34_cracker 3.40 0067  02.08.2006

@<TRIPOS>MOLECULE
ASD03240564
  69   76    0    0    0
SMALL
NO_CHARGES


@<TRIPOS>ATOM
   1 C1            -0.0166     1.3755     0.0096 C.ar    
   2 C2             0.0021    -0.0041     0.0020 C.ar    
   3 N3             1.1422    -0.6683    -0.0058 N.ar    
   4 C4             2.3145    -0.0481    -0.0058 C.ar    
   5 C5             2.3702     1.3442    -0.0124 C.ar    
   6 C6             1.1860     2.0698     0.0018 C.ar    
   7 N7             3.4820    -0.8058     0.0220 N.pl3   
   8 C8             4.3588    -0.7198     1.0999 C.ar    
   9 C9             4.9953     0.4883     1.4042 C.ar    
  10 C10            4.7644     1.6830     0.5626 C.2     
  11 N11            3.5938     2.0276    -0.0513 N.pl3   
  12 C12            4.6042    -1.8397     1.8832 C.ar    
  13 C13            5.4638    -1.7548     2.9618 C.ar    
  14 C14            6.0851    -0.5570     3.2708 C.ar    
  15 C15            5.8559     0.5641     2.4989 C.ar    
  16 N16            5.6763     2.5931     0.2861 N.2     
  17 C17            5.1465     3.5395    -0.5048 C.2     
  18 C18            3.8222     3.2035    -0.7366 C.2     
  19 C19            2.8499     3.9540    -1.5542 C.ar    
  20 C20            2.7513     5.3421    -1.4295 C.ar    
  21 C21            2.0275     3.2806    -2.4609 C.ar    
  22 C22            1.1209     3.9886    -3.2218 C.ar    
  23 C23            1.0247     5.3627    -3.0889 C.ar    
  24 C24            1.8401     6.0370    -2.1970 C.ar    
  25 C25            5.8502     4.7293    -1.0338 C.ar    
  26 C26            0.0316     6.1292    -3.9239 C.3     
  27 N27           -1.0474     5.2813    -4.4484 N.3     
  28 C28           -0.4693     7.4201    -3.2550 C.3     
  29 C29           -0.3824     8.0791    -4.6418 C.3     
  30 C30            0.6844     7.0250    -4.9898 C.3     
  31 C31            6.8200     5.3687    -0.2594 C.ar    
  32 C32            7.4747     6.4751    -0.7521 C.ar    
  33 C33            7.1687     6.9576    -2.0249 C.ar    
  34 C34            6.1997     6.3191    -2.7992 C.ar    
  35 C35            5.5485     5.2091    -2.3097 C.ar    
  36 C36            7.8733     8.1496    -2.5546 C.ar    
  37 C37            7.5818     8.6496    -3.8276 C.ar    
  38 C38            8.8433     8.8082    -1.7926 C.ar    
  39 C39            9.4747     9.9137    -2.3240 C.ar    
  40 N40            9.1735    10.3501    -3.5322 N.ar    
  41 C41            8.2612     9.7611    -4.2815 C.ar    
  42 H42           -0.9556     1.9091     0.0170 H       
  43 H43           -0.9306    -0.5486     0.0028 H       
  44 H44            1.2002     3.1497     0.0068 H       
  45 H45            3.6864    -1.3999    -0.7170 H       
  46 H46            4.1227    -2.7777     1.6494 H       
  47 H47            5.6518    -2.6287     3.5679 H       
  48 H48            6.7515    -0.4996     4.1187 H       
  49 H49            6.3417     1.4975     2.7422 H       
  50 H50            3.3868     5.8696    -0.7336 H       
  51 H51            2.1017     2.2083    -2.5659 H       
  52 H52            0.4847     3.4694    -3.9234 H       
  53 H53            1.7593     7.1094    -2.0981 H       
  54 H54           -0.6745     4.4595    -4.8996 H       
  55 H55           -1.6969     5.0298    -3.7184 H       
  56 H56           -1.4862     7.3461    -2.8697 H       
  57 H57            0.2301     7.8357    -2.5296 H       
  58 H58           -1.2961     7.9838    -5.2285 H       
  59 H59            0.0017     9.0989    -4.6173 H       
  60 H60            1.6997     7.3321    -4.7388 H       
  61 H61            0.5977     6.6342    -6.0036 H       
  62 H62            7.0565     4.9957     0.7262 H       
  63 H63            8.2249     6.9698    -0.1531 H       
  64 H64            5.9632     6.6930    -3.7844 H       
  65 H65            4.7984     4.7149    -2.9092 H       
  66 H66            6.8362     8.1724    -4.4463 H       
  67 H67            9.0943     8.4569    -0.8027 H       
  68 H68           10.2253    10.4291    -1.7431 H       
  69 H69            8.0461    10.1520    -5.2650 H       
@<TRIPOS>BOND
   1    1    2 ar
   2    1    6 ar
   3    1   42 1
   4    2    3 ar
   5    2   43 1
   6    3    4 ar
   7    4    5 ar
   8    4    7 1
   9    5    6 ar
  10    5   11 1
  11    6   44 1
  12    7    8 1
  13    7   45 1
  14    8    9 ar
  15    8   12 ar
  16    9   10 1
  17    9   15 ar
  18   10   11 1
  19   10   16 2
  20   11   18 1
  21   12   13 ar
  22   12   46 1
  23   13   14 ar
  24   13   47 1
  25   14   15 ar
  26   14   48 1
  27   15   49 1
  28   16   17 1
  29   17   18 2
  30   17   25 1
  31   18   19 1
  32   19   20 ar
  33   19   21 ar
  34   20   24 ar
  35   20   50 1
  36   21   22 ar
  37   21   51 1
  38   22   23 ar
  39   22   52 1
  40   23   24 ar
  41   23   26 1
  42   24   53 1
  43   25   31 ar
  44   25   35 ar
  45   26   27 1
  46   26   28 1
  47   26   30 1
  48   27   54 1
  49   27   55 1
  50   28   29 1
  51   28   56 1
  52   28   57 1
  53   29   30 1
  54   29   58 1
  55   29   59 1
  56   30   60 1
  57   30   61 1
  58   31   32 ar
  59   31   62 1
  60   32   33 ar
  61   32   63 1
  62   33   34 ar
  63   33   36 1
  64   34   35 ar
  65   34   64 1
  66   35   65 1
  67   36   37 ar
  68   36   38 ar
  69   37   41 ar
  70   37   66 1
  71   38   39 ar
  72   38   67 1
  73   39   40 ar
  74   39   68 1
  75   40   41 ar
  76   41   69 1

#	End of record

