#	Name: ASD02500769
#	Creating user name:	WinNT
#	Creation time:	15. 06. 2019 20:23

#	Modifying user name:	WinNT
#	Modification time:	15. 06. 2019 20:23

#	Program:	/corina/corina34_cracker 3.40 0067  02.08.2006

@<TRIPOS>MOLECULE
ASD02500769
  47   49    0    0    0
SMALL
NO_CHARGES


@<TRIPOS>ATOM
   1 O1            -0.0164     1.3569     0.0095 O.3     
   2 C2             0.0021    -0.0041     0.0020 C.ar    
   3 C3             1.1496    -0.6980    -0.3644 C.ar    
   4 O4             2.2825    -0.0325    -0.7194 O.3     
   5 C5             2.1357     1.3497    -1.0629 C.3     
   6 C6             1.2537     2.0177     0.0009 C.3     
   7 C7             1.1451    -2.0846    -0.3687 C.ar    
   8 C8             0.0032    -2.7746    -0.0070 C.ar    
   9 C9            -1.1371    -2.0847     0.3592 C.ar    
  10 C10           -1.1397    -0.7023     0.3645 C.ar    
  11 S11            0.0010    -4.5366    -0.0137 S.o2    
  12 O12           -1.3555    -4.9357    -0.1538 O.2     
  13 O13            1.0256    -4.9357    -0.9138 O.2     
  14 N14            0.4814    -5.0330     1.4914 N.am    
  15 C15           -0.3527    -4.7410     2.6599 C.3     
  16 C16            0.1005    -5.6048     3.8386 C.3     
  17 C17           -0.7706    -5.2999     5.0589 C.3     
  18 S18           -0.8352    -5.7595     7.7233 S.o2    
  19 O19           -0.2809    -6.7537     8.5739 O.2     
  20 O20           -0.6023    -4.3687     7.8988 O.2     
  21 N21           -0.3366    -6.1270     6.1876 N.am    
  22 C22           -2.5826    -5.9813     7.7715 C.ar    
  23 C23           -3.1153    -7.2120     8.1142 C.ar    
  24 C24           -4.4887    -7.3852     8.1517 C.ar    
  25 C25           -5.3274    -6.3297     7.8471 C.ar    
  26 C26           -4.7965    -5.1004     7.5049 C.ar    
  27 C27           -3.4235    -4.9233     7.4723 C.ar    
  28 F28           -2.9050    -3.7199     7.1435 F       
  29 F29           -2.2957    -8.2440     8.4115 F       
  30 H30            3.1142     1.8295    -1.0831 H       
  31 H31            1.6625     1.4372    -2.0409 H       
  32 H32            1.1182     3.0714    -0.2428 H       
  33 H33            1.7236     1.9238     0.9800 H       
  34 H34            2.0346    -2.6260    -0.6551 H       
  35 H35           -2.0275    -2.6266     0.6418 H       
  36 H36           -2.0319    -0.1657     0.6516 H       
  37 H37            1.3150    -5.5171     1.5993 H       
  38 H38           -0.2544    -3.6877     2.9224 H       
  39 H39           -1.3944    -4.9618     2.4270 H       
  40 H40            0.0022    -6.6582     3.5761 H       
  41 H41            1.1422    -5.3841     4.0715 H       
  42 H42           -0.6723    -4.2466     5.3214 H       
  43 H43           -1.8123    -5.5207     4.8260 H       
  44 H44            0.2428    -6.8899     6.0353 H       
  45 H45           -4.9046    -8.3455     8.4187 H       
  46 H46           -6.3984    -6.4658     7.8763 H       
  47 H47           -5.4529    -4.2764     7.2668 H       
@<TRIPOS>BOND
   1    1    2 1
   2    1    6 1
   3    2    3 ar
   4    2   10 ar
   5    3    4 1
   6    3    7 ar
   7    4    5 1
   8    5    6 1
   9    5   30 1
  10    5   31 1
  11    6   32 1
  12    6   33 1
  13    7    8 ar
  14    7   34 1
  15    8    9 ar
  16    8   11 1
  17    9   10 ar
  18    9   35 1
  19   10   36 1
  20   11   12 2
  21   11   13 2
  22   11   14 am
  23   14   15 1
  24   14   37 1
  25   15   16 1
  26   15   38 1
  27   15   39 1
  28   16   17 1
  29   16   40 1
  30   16   41 1
  31   17   21 1
  32   17   42 1
  33   17   43 1
  34   18   19 2
  35   18   20 2
  36   18   21 am
  37   18   22 1
  38   21   44 1
  39   22   23 ar
  40   22   27 ar
  41   23   24 ar
  42   23   29 1
  43   24   25 ar
  44   24   45 1
  45   25   26 ar
  46   25   46 1
  47   26   27 ar
  48   26   47 1
  49   27   28 1

#	End of record

