#	Name: ASD03730316
#	Creating user name:	WinNT
#	Creation time:	15. 06. 2019 20:44

#	Modifying user name:	WinNT
#	Modification time:	15. 06. 2019 20:44

#	Program:	/corina/corina34_cracker 3.40 0067  02.08.2006

@<TRIPOS>MOLECULE
ASD03730316
  62   67    0    0    0
SMALL
NO_CHARGES


@<TRIPOS>ATOM
   1 O1            -0.4749     0.5773     2.3417 O.3     
   2 C2            -0.2515    -0.8449     2.3684 C.3     
   3 O3             0.6751    -1.0658     1.2889 O.3     
   4 C4             1.3676     0.1037     1.1565 C.ar    
   5 C5             0.6585     1.1143     1.8017 C.ar    
   6 C6             2.5662     0.3921     0.5293 C.ar    
   7 C7             3.0699     1.6893     0.5332 C.ar    
   8 C8             2.3466     2.6930     1.1704 C.ar    
   9 C9             1.1551     2.4070     1.8036 C.ar    
  10 O10            4.2258     2.1771    -0.0016 O.3     
  11 C11            3.1208     3.9691     0.9759 C.3     
  12 C12            4.1227     3.6082    -0.1295 C.3     
  13 N13            2.4161     6.0786     1.5017 N.am    
  14 C14            2.2367     5.1153     0.5760 C.2     
  15 C15            3.8092     4.4174     2.2305 C.ar    
  16 C16            4.7339     3.8298     3.0761 C.ar    
  17 C17            5.1927     4.5231     4.1907 C.ar    
  18 C18            4.7220     5.7964     4.4481 C.ar    
  19 C19            3.8006     6.3837     3.6055 C.ar    
  20 C20            3.3329     5.6993     2.4852 C.ar    
  21 O21            1.5052     5.1647    -0.3902 O.2     
  22 C22            1.7300     7.3728     1.4787 C.3     
  23 C23            0.4172     7.2679     2.2576 C.3     
  24 C24           -0.2993     8.6195     2.2337 C.3     
  25 C25           -1.6121     8.5146     3.0126 C.3     
  26 C26           -2.3286     9.8662     2.9886 C.3     
  27 N27            5.2053     2.5420     2.8105 N.pl3   
  28 C28            6.2144     0.6889     3.9937 C.ar    
  29 C29            6.2535     2.0097     3.5707 C.ar    
  30 C30            7.3498     2.7994     3.9120 C.ar    
  31 C31            8.3625     2.2307     4.6642 C.ar    
  32 C32            8.2538     0.9017     5.0515 C.ar    
  33 N33            7.1993     0.1810     4.7096 N.ar    
  34 O34            9.2426     0.3353     5.7897 O.3     
  35 C35            9.0737    -1.0352     6.1576 C.3     
  36 H36            0.1891    -1.1456     3.3190 H       
  37 H37           -1.1829    -1.3823     2.1898 H       
  38 H38            3.1150    -0.3948     0.0334 H       
  39 H39            0.6079     3.1933     2.3023 H       
  40 H40            5.0868     4.0835     0.0516 H       
  41 H41            3.7329     3.8822    -1.1098 H       
  42 H42            5.9141     4.0679     4.8531 H       
  43 H43            5.0778     6.3354     5.3137 H       
  44 H44            3.4391     7.3794     3.8158 H       
  45 H45            2.3658     8.1293     1.9385 H       
  46 H46            1.5188     7.6538     0.4470 H       
  47 H47           -0.2186     6.5113     1.7978 H       
  48 H48            0.6284     6.9868     3.2894 H       
  49 H49            0.3365     9.3761     2.6935 H       
  50 H50           -0.5105     8.9005     1.2019 H       
  51 H51           -2.2479     7.7581     2.5528 H       
  52 H52           -1.4009     8.2336     4.0443 H       
  53 H53           -2.5398    10.1473     1.9569 H       
  54 H54           -3.2639     9.7915     3.5435 H       
  55 H55           -1.6928    10.6228     3.4484 H       
  56 H56            4.8065     2.0166     2.0994 H       
  57 H57            5.3665     0.0710     3.7376 H       
  58 H58            7.4079     3.8307     3.5966 H       
  59 H59            9.2269     2.8134     4.9464 H       
  60 H60            8.1663    -1.1427     6.7518 H       
  61 H61            8.9935    -1.6456     5.2581 H       
  62 H62            9.9326    -1.3626     6.7434 H       
@<TRIPOS>BOND
   1    1    2 1
   2    1    5 1
   3    2    3 1
   4    2   36 1
   5    2   37 1
   6    3    4 1
   7    4    5 ar
   8    4    6 ar
   9    5    9 ar
  10    6    7 ar
  11    6   38 1
  12    7    8 ar
  13    7   10 1
  14    8    9 ar
  15    8   11 1
  16    9   39 1
  17   10   12 1
  18   11   12 1
  19   11   14 1
  20   11   15 1
  21   12   40 1
  22   12   41 1
  23   13   14 am
  24   13   20 1
  25   13   22 1
  26   14   21 2
  27   15   16 ar
  28   15   20 ar
  29   16   17 ar
  30   16   27 1
  31   17   18 ar
  32   17   42 1
  33   18   19 ar
  34   18   43 1
  35   19   20 ar
  36   19   44 1
  37   22   23 1
  38   22   45 1
  39   22   46 1
  40   23   24 1
  41   23   47 1
  42   23   48 1
  43   24   25 1
  44   24   49 1
  45   24   50 1
  46   25   26 1
  47   25   51 1
  48   25   52 1
  49   26   53 1
  50   26   54 1
  51   26   55 1
  52   27   29 1
  53   27   56 1
  54   28   29 ar
  55   28   33 ar
  56   28   57 1
  57   29   30 ar
  58   30   31 ar
  59   30   58 1
  60   31   32 ar
  61   31   59 1
  62   32   33 ar
  63   32   34 1
  64   34   35 1
  65   35   60 1
  66   35   61 1
  67   35   62 1

#	End of record

