#	Name: ASD01810524
#	Creating user name:	WinNT
#	Creation time:	15. 06. 2019 19:24

#	Modifying user name:	WinNT
#	Modification time:	15. 06. 2019 19:24

#	Program:	/corina/corina34_cracker 3.40 0067  02.08.2006

@<TRIPOS>MOLECULE
ASD01810524
 104  109    0    0    0
SMALL
NO_CHARGES


@<TRIPOS>ATOM
   1 S1             2.6123     1.1697     2.2484 S.3     
   2 C2             3.3194    -0.2753     3.1256 C.3     
   3 N3             2.2326    -1.2550     3.1097 N.am    
   4 C4             1.0081    -0.8179     2.8294 C.2     
   5 C5             0.8703     0.6671     2.5551 C.3     
   6 C6             4.5381    -0.7909     2.3708 C.3     
   7 C7             5.1599    -1.9562     3.1467 C.3     
   8 N8             5.5226    -1.5058     4.4966 N.3     
   9 C9             4.3388    -1.0788     5.2536 C.3     
  10 C10            3.6884     0.1167     4.5507 C.3     
  11 C11            0.0060     0.9144     1.3171 C.3     
  12 C12           -0.2153     2.4181     1.1417 C.3     
  13 O13            0.0542    -1.5661     2.7947 O.2     
  14 C14            2.4848    -2.6699     3.3935 C.3     
  15 C15            5.8101   -12.0839    -1.8513 C.3     
  16 O16            6.1708   -13.4354    -1.5591 O.3     
  17 C17            6.5174   -14.2226    -2.6110 C.ar    
  18 C18            6.8715   -15.5236    -2.3915 C.ar    
  19 C19            6.5014   -13.6922    -3.9045 C.ar    
  20 C20            6.8431   -14.4552    -4.9774 C.ar    
  21 C21            7.2183   -15.7964    -4.7877 C.ar    
  22 C22            7.2298   -16.3381    -3.4776 C.ar    
  23 C23            7.5777   -16.6128    -5.8736 C.ar    
  24 C24            7.9362   -17.9072    -5.6536 C.ar    
  25 C25            7.9524   -18.4385    -4.3652 C.ar    
  26 C26            7.6058   -17.6797    -3.2900 C.ar    
  27 C27            8.3210   -18.7793    -6.8208 C.3     
  28 N28            9.7324   -18.5625    -7.1481 N.pl3   
  29 C29           10.0509   -17.6244    -8.1070 C.ar    
  30 C30           11.3924   -17.3876    -8.4485 C.ar    
  31 C31           12.4439   -18.1605    -7.7614 C.2     
  32 C32           12.0080   -19.1391    -6.7522 C.2     
  33 C33           10.6581   -19.2798    -6.4993 C.2     
  34 C34            9.0473   -16.8998    -8.7500 C.ar    
  35 C35            9.3796   -15.9647    -9.7076 C.ar    
  36 C36           10.7066   -15.7341   -10.0423 C.ar    
  37 C37           11.7129   -16.4385    -9.4198 C.ar    
  38 F38            7.7510   -17.1140    -8.4352 F       
  39 O39           13.6236   -17.9961    -8.0186 O.2     
  40 C40           12.9934   -19.9495    -6.0226 C.2     
  41 O41           14.3090   -19.7997    -6.2754 O.3     
  42 O42           12.6220   -20.7548    -5.1912 O.2     
  43 C43            2.8409    -3.3951     2.0942 C.3     
  44 C44            3.2271    -4.8421     2.4071 C.3     
  45 C45            3.5832    -5.5673     1.1078 C.3     
  46 C46            3.9694    -7.0143     1.4207 C.3     
  47 C47            4.3255    -7.7395     0.1214 C.3     
  48 C48            4.7117    -9.1865     0.4344 C.3     
  49 C49            5.0678    -9.9117    -0.8649 C.3     
  50 C50            5.4540   -11.3587    -0.5520 C.3     
  51 C51            6.8350    -1.9668     6.5121 C.3     
  52 C52            6.2611    -2.5499     5.2193 C.3     
  53 H53            0.4639     1.1859     3.4233 H       
  54 H54            4.2352    -1.1332     1.3813 H       
  55 H55            5.2698     0.0108     2.2705 H       
  56 H56            4.4398    -2.7715     3.2167 H       
  57 H57            6.0529    -2.3034     2.6271 H       
  58 H58            3.6255    -1.9012     5.3070 H       
  59 H59            4.6367    -0.7899     6.2615 H       
  60 H60            4.3894     0.9511     4.5285 H       
  61 H61            2.7889     0.4112     5.0914 H       
  62 H62            0.5102     0.5162     0.4366 H       
  63 H63           -0.9562     0.4175     1.4406 H       
  64 H64           -0.8311     2.5943     0.2597 H       
  65 H65           -0.7195     2.8163     2.0222 H       
  66 H66            0.7469     2.9150     1.0182 H       
  67 H67            3.3127    -2.7575     4.0971 H       
  68 H68            1.5908    -3.1185     3.8267 H       
  69 H69            6.6491   -11.5795    -2.3307 H       
  70 H70            4.9498   -12.0740    -2.5205 H       
  71 H71            6.8761   -15.9233    -1.3881 H       
  72 H72            6.2133   -12.6621    -4.0539 H       
  73 H73            6.8259   -14.0323    -5.9710 H       
  74 H74            7.5692   -16.2152    -6.8777 H       
  75 H75            8.2405   -19.4690    -4.2183 H       
  76 H76            7.6230   -18.1049    -2.2974 H       
  77 H77            8.1653   -19.8260    -6.5593 H       
  78 H78            7.7048   -18.5248    -7.6832 H       
  79 H79           10.3378   -19.9978    -5.7589 H       
  80 H80            8.5990   -15.4061   -10.2026 H       
  81 H81           10.9512   -14.9988   -10.7945 H       
  82 H82           12.7448   -16.2567    -9.6815 H       
  83 H83           14.9191   -20.3548    -5.7705 H       
  84 H84            1.9806    -3.3853     1.4250 H       
  85 H85            3.6799    -2.8907     1.6148 H       
  86 H86            4.0875    -4.8520     3.0763 H       
  87 H87            2.3881    -5.3465     2.8865 H       
  88 H88            2.7229    -5.5575     0.4387 H       
  89 H89            4.4222    -5.0629     0.6284 H       
  90 H90            4.8298    -7.0242     2.0899 H       
  91 H91            3.1304    -7.5187     1.9002 H       
  92 H92            3.4652    -7.7296    -0.5477 H       
  93 H93            5.1645    -7.2351    -0.3580 H       
  94 H94            5.5721    -9.1964     1.1035 H       
  95 H95            3.8727    -9.6909     0.9138 H       
  96 H96            4.2075    -9.9018    -1.5341 H       
  97 H97            5.9068    -9.4073    -1.3444 H       
  98 H98            4.6151   -11.8631    -0.0726 H       
  99 H99            6.3144   -11.3686     0.1171 H       
 100 H100           7.3830    -2.7416     7.0483 H       
 101 H101           7.5094    -1.1448     6.2720 H       
 102 H102           6.0215    -1.5985     7.1371 H       
 103 H103           5.5868    -3.3719     5.4594 H       
 104 H104           7.0747    -2.9182     4.5943 H       
@<TRIPOS>BOND
   1    1    2 1
   2    1    5 1
   3    2    3 1
   4    2    6 1
   5    2   10 1
   6    3    4 am
   7    3   14 1
   8    4    5 1
   9    4   13 2
  10    5   11 1
  11    5   53 1
  12    6    7 1
  13    6   54 1
  14    6   55 1
  15    7    8 1
  16    7   56 1
  17    7   57 1
  18    8   52 1
  19    8    9 1
  20    9   10 1
  21    9   58 1
  22    9   59 1
  23   10   60 1
  24   10   61 1
  25   11   12 1
  26   11   62 1
  27   11   63 1
  28   12   64 1
  29   12   65 1
  30   12   66 1
  31   14   43 1
  32   14   67 1
  33   14   68 1
  34   15   50 1
  35   15   16 1
  36   15   69 1
  37   15   70 1
  38   16   17 1
  39   17   18 ar
  40   17   19 ar
  41   18   22 ar
  42   18   71 1
  43   19   20 ar
  44   19   72 1
  45   20   21 ar
  46   20   73 1
  47   21   22 ar
  48   21   23 ar
  49   22   26 ar
  50   23   24 ar
  51   23   74 1
  52   24   25 ar
  53   24   27 1
  54   25   26 ar
  55   25   75 1
  56   26   76 1
  57   27   28 1
  58   27   77 1
  59   27   78 1
  60   28   29 1
  61   28   33 1
  62   29   30 ar
  63   29   34 ar
  64   30   31 1
  65   30   37 ar
  66   31   32 1
  67   31   39 2
  68   32   33 2
  69   32   40 1
  70   33   79 1
  71   34   35 ar
  72   34   38 1
  73   35   36 ar
  74   35   80 1
  75   36   37 ar
  76   36   81 1
  77   37   82 1
  78   40   41 1
  79   40   42 2
  80   41   83 1
  81   43   44 1
  82   43   84 1
  83   43   85 1
  84   44   45 1
  85   44   86 1
  86   44   87 1
  87   45   46 1
  88   45   88 1
  89   45   89 1
  90   46   47 1
  91   46   90 1
  92   46   91 1
  93   47   48 1
  94   47   92 1
  95   47   93 1
  96   48   49 1
  97   48   94 1
  98   48   95 1
  99   49   50 1
 100   49   96 1
 101   49   97 1
 102   50   98 1
 103   50   99 1
 104   51   52 1
 105   51  100 1
 106   51  101 1
 107   51  102 1
 108   52  103 1
 109   52  104 1

#	End of record

