#	Name: ASD09080049
#	Creating user name:	WinNT
#	Creation time:	15. 06. 2019 21:20

#	Modifying user name:	WinNT
#	Modification time:	15. 06. 2019 21:20

#	Program:	/corina/corina34_cracker 3.40 0067  02.08.2006

@<TRIPOS>MOLECULE
ASD09080049
  76   78    0    0    0
SMALL
NO_CHARGES


@<TRIPOS>ATOM
   1 C1            -0.0166     1.3760     0.0096 C.ar    
   2 C2             0.0021    -0.0041     0.0020 C.ar    
   3 C3             1.2195    -0.6816    -0.0133 C.ar    
   4 C4             2.4120     0.0390    -0.0209 C.ar    
   5 C5             2.3816     1.4188    -0.0132 C.ar    
   6 C6             1.1702     2.0863     0.0021 C.ar    
   7 C7             1.1434     3.5931     0.0104 C.3     
   8 C8             1.1204     4.1107    -1.4291 C.3     
   9 C9             0.9676     5.6330    -1.4213 C.3     
  10 N10            2.3726     3.7491    -2.0982 N.am    
  11 C11            0.9446     6.1507    -2.8609 C.3     
  12 O12           -0.0827     5.4786    -3.5924 O.3     
  13 O13           -0.2538     5.9858    -0.7688 O.3     
  14 C14            2.4097     3.6303    -3.4402 C.2     
  15 C15            3.6977     3.2583    -4.1284 C.3     
  16 O16            1.4065     3.8229    -4.0940 O.2     
  17 C17            1.2459    -2.1653    -0.0210 C.ar    
  18 C18            2.4634    -2.8426    -0.0363 C.ar    
  19 C19            2.4827    -4.2239    -0.0435 C.ar    
  20 C20            1.2952    -4.9350    -0.0355 C.ar    
  21 C21            0.0832    -4.2667    -0.0203 C.ar    
  22 C22            0.0534    -2.8856    -0.0072 C.ar    
  23 Cl23           3.9989    -5.0692    -0.0632 Cl      
  24 Cl24          -1.4019    -5.1656    -0.0104 Cl      
  25 C25            4.0698     3.6539    -6.4586 C.3     
  26 C26            5.2322     4.3134    -5.6755 C.3     
  27 C27            4.5941     4.5060    -4.2744 C.3     
  28 N28            3.4155     2.7626    -5.4834 N.am    
  29 O29            2.4946     1.3213    -7.0703 O.3     
  30 C30            1.6927     0.1368    -7.3199 C.3     
  31 C31            0.2907     0.3389    -6.7415 C.3     
  32 C32            1.5926    -0.1030    -8.8277 C.3     
  33 C33            2.3496    -1.0736    -6.6535 C.3     
  34 C34            2.6811     1.6733    -5.7842 C.2     
  35 O35            2.1873     1.0089    -4.8947 O.2     
  36 C36            0.6714     7.6327    -2.8575 C.2     
  37 O37           -0.3483     8.0602    -3.3447 O.2     
  38 O38            1.5609     8.4779    -2.3133 O.3     
  39 C39            2.3557    10.6921    -1.6841 C.3     
  40 C40            1.2319     9.8918    -2.3455 C.3     
  41 H41           -0.9597     1.9022     0.0169 H       
  42 H42           -0.9252    -0.5577     0.0083 H       
  43 H43            3.3584    -0.4812    -0.0324 H       
  44 H44            3.3053     1.9784    -0.0190 H       
  45 H45            0.2521     3.9377     0.5347 H       
  46 H46            2.0317     3.9695     0.5178 H       
  47 H47            0.2813     3.6640    -1.9625 H       
  48 H48            1.8066     6.0797    -0.8879 H       
  49 H49            3.1749     3.5951    -1.5753 H       
  50 H50            1.9094     5.9602    -3.3310 H       
  51 H51           -0.9702     5.6043    -3.2298 H       
  52 H52           -1.0443     5.6218    -1.1903 H       
  53 H53            4.2168     2.4913    -3.5536 H       
  54 H54            3.3904    -2.2886    -0.0429 H       
  55 H55            1.3145    -6.0148    -0.0416 H       
  56 H56           -0.8928    -2.3651     0.0046 H       
  57 H57            3.3696     4.4124    -6.8086 H       
  58 H58            4.4572     3.0776    -7.2988 H       
  59 H59            6.0950     3.6493    -5.6239 H       
  60 H60            5.5052     5.2725    -6.1156 H       
  61 H61            3.9955     5.4165    -4.2451 H       
  62 H62            5.3612     4.5225    -3.5002 H       
  63 H63           -0.1774     1.2013    -7.2163 H       
  64 H64           -0.3113    -0.5502    -6.9289 H       
  65 H65            0.3619     0.5097    -5.6673 H       
  66 H66            2.5914    -0.2470    -9.2397 H       
  67 H67            0.9906    -0.9921    -9.0150 H       
  68 H68            1.1246     0.7594    -9.3024 H       
  69 H69            2.4209    -0.9028    -5.5793 H       
  70 H70            1.7477    -1.9628    -6.8408 H       
  71 H71            3.3484    -1.2176    -7.0655 H       
  72 H72            2.4712    10.3694    -0.6494 H       
  73 H73            3.2878    10.5236    -2.2235 H       
  74 H74            2.1088    11.7535    -1.7083 H       
  75 H75            1.1164    10.2145    -3.3802 H       
  76 H76            0.2998    10.0603    -1.8062 H       
@<TRIPOS>BOND
   1    1    2 ar
   2    1    6 ar
   3    1   41 1
   4    2    3 ar
   5    2   42 1
   6    3    4 ar
   7    3   17 1
   8    4    5 ar
   9    4   43 1
  10    5    6 ar
  11    5   44 1
  12    6    7 1
  13    7    8 1
  14    7   45 1
  15    7   46 1
  16    8    9 1
  17    8   10 1
  18    8   47 1
  19    9   11 1
  20    9   13 1
  21    9   48 1
  22   10   14 am
  23   10   49 1
  24   11   12 1
  25   11   36 1
  26   11   50 1
  27   12   51 1
  28   13   52 1
  29   14   16 2
  30   14   15 1
  31   15   28 1
  32   15   27 1
  33   15   53 1
  34   17   18 ar
  35   17   22 ar
  36   18   19 ar
  37   18   54 1
  38   19   20 ar
  39   19   23 1
  40   20   21 ar
  41   20   55 1
  42   21   22 ar
  43   21   24 1
  44   22   56 1
  45   25   26 1
  46   25   28 1
  47   25   57 1
  48   25   58 1
  49   26   27 1
  50   26   59 1
  51   26   60 1
  52   27   61 1
  53   27   62 1
  54   28   34 am
  55   29   30 1
  56   29   34 1
  57   30   31 1
  58   30   32 1
  59   30   33 1
  60   31   63 1
  61   31   64 1
  62   31   65 1
  63   32   66 1
  64   32   67 1
  65   32   68 1
  66   33   69 1
  67   33   70 1
  68   33   71 1
  69   34   35 2
  70   36   37 2
  71   36   38 1
  72   38   40 1
  73   39   40 1
  74   39   72 1
  75   39   73 1
  76   39   74 1
  77   40   75 1
  78   40   76 1

#	End of record

