#	Name: ASD08070093
#	Creating user name:	WinNT
#	Creation time:	15. 06. 2019 21:14

#	Modifying user name:	WinNT
#	Modification time:	15. 06. 2019 21:14

#	Program:	/corina/corina34_cracker 3.40 0067  02.08.2006

@<TRIPOS>MOLECULE
ASD08070093
  41   41    0    0    0
SMALL
NO_CHARGES


@<TRIPOS>ATOM
   1 C1            -0.0166     1.3758     0.0096 C.ar    
   2 C2             0.0021    -0.0041     0.0020 C.ar    
   3 C3             1.1685     2.0876     0.0021 C.ar    
   4 C4             2.3855     1.4192    -0.0135 C.ar    
   5 C5             2.4157     0.0350    -0.0212 C.ar    
   6 C6             1.2204    -0.6846    -0.0132 C.ar    
   7 C7             1.2444    -2.1630    -0.0209 C.2     
   8 O8             2.3068    -2.7535    -0.0342 O.2     
   9 C9             0.1121    -4.3206    -0.0207 C.3     
  10 N10            0.0884    -2.8558    -0.0132 N.am    
  11 C11           -1.1808    -4.8548     0.5988 C.3     
  12 C12           -1.2405    -4.4586     2.0754 C.3     
  13 O13            3.5475     2.1241    -0.0217 O.3     
  14 C14           -2.5334    -4.9929     2.6949 C.3     
  15 C15            0.2322    -4.8212    -1.4615 C.3     
  16 C16            3.4419     3.5492    -0.0135 C.3     
  17 C17            1.5818    -4.3915    -2.0400 C.3     
  18 C18            1.7019    -4.8922    -3.4808 C.3     
  19 H19           -0.9601     1.9014     0.0169 H       
  20 H20           -0.9256    -0.5570     0.0082 H       
  21 H21            1.1477     3.1674     0.0081 H       
  22 H22            3.3616    -0.4860    -0.0338 H       
  23 H23            0.9654    -4.6731     0.5587 H       
  24 H24           -0.7594    -2.3845    -0.0026 H       
  25 H25           -2.0372    -4.4313     0.0741 H       
  26 H26           -1.2030    -5.9412     0.5129 H       
  27 H27           -0.3841    -4.8821     2.6001 H       
  28 H28           -1.2183    -3.3722     2.1613 H       
  29 H29           -3.3898    -4.5694     2.1702 H       
  30 H30           -2.5556    -6.0793     2.6090 H       
  31 H31           -2.5759    -4.7106     3.7469 H       
  32 H32            0.1606    -5.9088    -1.4754 H       
  33 H33           -0.5723    -4.3965    -2.0620 H       
  34 H34            2.8936     3.8780    -0.8964 H       
  35 H35            2.9116     3.8690     0.8835 H       
  36 H36            4.4398     3.9875    -0.0214 H       
  37 H37            1.6534    -3.3040    -2.0261 H       
  38 H38            2.3863    -4.8163    -1.4395 H       
  39 H39            1.6303    -5.9798    -3.4946 H       
  40 H40            0.8974    -4.4675    -4.0812 H       
  41 H41            2.6634    -4.5861    -3.8929 H       
@<TRIPOS>BOND
   1    1    2 ar
   2    1    3 ar
   3    1   19 1
   4    2    6 ar
   5    2   20 1
   6    3    4 ar
   7    3   21 1
   8    4    5 ar
   9    4   13 1
  10    5    6 ar
  11    5   22 1
  12    6    7 1
  13    7    8 2
  14    7   10 am
  15    9   11 1
  16    9   10 1
  17    9   15 1
  18    9   23 1
  19   10   24 1
  20   11   12 1
  21   11   25 1
  22   11   26 1
  23   12   14 1
  24   12   27 1
  25   12   28 1
  26   13   16 1
  27   14   29 1
  28   14   30 1
  29   14   31 1
  30   15   17 1
  31   15   32 1
  32   15   33 1
  33   16   34 1
  34   16   35 1
  35   16   36 1
  36   17   18 1
  37   17   37 1
  38   17   38 1
  39   18   39 1
  40   18   40 1
  41   18   41 1

#	End of record

