#	Name: ASD09890091
#	Creating user name:	WinNT
#	Creation time:	15. 06. 2019 21:24

#	Modifying user name:	WinNT
#	Modification time:	15. 06. 2019 21:24

#	Program:	/corina/corina34_cracker 3.40 0067  02.08.2006

@<TRIPOS>MOLECULE
ASD09890091
  31   33    0    0    0
SMALL
NO_CHARGES


@<TRIPOS>ATOM
   1 C1            -0.0021     1.3972    -0.2265 C.ar    
   2 C2             0.0136     0.0010    -0.2393 C.ar    
   3 C3             2.3916     0.0254     0.1947 C.ar    
   4 C4             2.3662     1.4014     0.2050 C.ar    
   5 C5             1.1726     2.0909    -0.0045 C.ar    
   6 C6            -1.0129    -1.0252    -0.4381 C.2     
   7 C7            -0.4018    -2.2164    -0.3400 C.2     
   8 N8             0.9321    -2.0376    -0.0948 N.pl3   
   9 C9             1.2196    -0.6908    -0.0272 C.ar    
  10 C10           -1.0842    -3.5528    -0.4795 C.3     
  11 N11            1.1639     3.4912     0.0097 N.am    
  12 C12            0.1052     4.1535     0.5167 C.2     
  13 C13            0.1388     5.6301     0.6266 C.ar    
  14 O14           -0.8770     3.5390     0.8836 O.2     
  15 C15            0.1488     8.2994     0.8470 C.ar    
  16 N16           -0.9185     7.6339     1.2521 N.ar    
  17 C17           -0.9533     6.3171     1.1562 C.ar    
  18 N18            1.2129     6.3046     0.2256 N.ar    
  19 C19            1.2391     7.6186     0.3250 C.ar    
  20 H20           -0.9256     1.9317    -0.3935 H       
  21 H21            3.3217    -0.4986     0.3580 H       
  22 H22            3.2791     1.9521     0.3774 H       
  23 H23           -2.0626    -0.8555    -0.6276 H       
  24 H24            1.5792    -2.7518     0.0152 H       
  25 H25           -1.0643    -3.8636    -1.5241 H       
  26 H26           -0.5636    -4.2919     0.1294 H       
  27 H27           -2.1182    -3.4695    -0.1448 H       
  28 H28            1.9199     3.9845    -0.3454 H       
  29 H29            0.1741     9.3761     0.9264 H       
  30 H30           -1.8259     5.7734     1.4869 H       
  31 H31            2.1092     8.1668    -0.0048 H       
@<TRIPOS>BOND
   1    1    2 ar
   2    1    5 ar
   3    1   20 1
   4    2    9 ar
   5    2    6 1
   6    3    4 ar
   7    3    9 ar
   8    3   21 1
   9    4    5 ar
  10    4   22 1
  11    5   11 1
  12    6    7 2
  13    6   23 1
  14    7    8 1
  15    7   10 1
  16    8    9 1
  17    8   24 1
  18   10   25 1
  19   10   26 1
  20   10   27 1
  21   11   12 am
  22   11   28 1
  23   12   13 1
  24   12   14 2
  25   13   18 ar
  26   13   17 ar
  27   15   16 ar
  28   15   19 ar
  29   15   29 1
  30   16   17 ar
  31   17   30 1
  32   18   19 ar
  33   19   31 1

#	End of record

