#	Name: ASD01208908
#	Creating user name:	WinNT
#	Creation time:	15. 06. 2019 19:10

#	Modifying user name:	WinNT
#	Modification time:	15. 06. 2019 19:10

#	Program:	/corina/corina34_cracker 3.40 0067  02.08.2006

@<TRIPOS>MOLECULE
ASD01208908
  73   77    0    0    0
SMALL
NO_CHARGES


@<TRIPOS>ATOM
   1 C1            -0.2601     1.7862     0.5527 C.2     
   2 C2            -0.2290     0.3259     0.3252 C.ar    
   3 C3             0.9388    -0.2864    -0.1319 C.ar    
   4 C4             0.9637    -1.6548    -0.3438 C.ar    
   5 C5            -0.1704    -2.4169    -0.1027 C.ar    
   6 C6            -1.3336    -1.8124     0.3518 C.ar    
   7 C7            -1.3653    -0.4449     0.5724 C.ar    
   8 O8             0.7325     2.4555     0.3415 O.2     
   9 N9            -1.3905     2.3763     0.9889 N.am    
  10 S10           -0.1002     4.8066     0.9535 S.3     
  11 C11           -1.4197     3.7484     1.2026 C.2     
  12 N12           -2.4517     4.4132     1.6196 N.2     
  13 C13           -2.3029     5.7163     1.7678 C.2     
  14 C14           -1.0876     6.1744     1.4615 C.2     
  15 C15           -3.4155     6.6141     2.2444 C.3     
  16 C16           -4.6400     6.4297     1.3457 C.3     
  17 O17           -7.8987     8.8253     2.4530 O.3     
  18 C18           -6.8602     9.5175     1.7558 C.3     
  19 C19           -5.8084     8.5409     1.3080 C.2     
  20 N20           -5.7216     7.3025     1.8090 N.am    
  21 C21           -6.6640     6.7876     2.7995 C.3     
  22 C22           -7.4012     7.9485     3.4706 C.3     
  23 O23           -5.0104     8.8873     0.4630 O.2     
  24 O24           -2.4417    -2.5633     0.5860 O.3     
  25 C25           -3.4402    -2.5307    -0.3341 C.ar    
  26 C26           -4.6119    -3.2425    -0.1104 C.ar    
  27 C27           -5.6273    -3.2119    -1.0416 C.ar    
  28 C28           -5.4774    -2.4637    -2.2109 C.ar    
  29 C29           -4.2983    -1.7492    -2.4320 C.ar    
  30 C30           -3.2894    -1.7809    -1.4938 C.ar    
  31 O31           -6.5546    -1.7524    -4.3785 O.3     
  32 C32           -6.5636    -2.4286    -3.2122 C.2     
  33 N33           -7.7172    -3.0499    -3.1319 N.2     
  34 N34           -8.4124    -2.7912    -4.1831 N.2     
  35 C35           -7.7364    -2.0013    -4.9694 C.2     
  36 C36           -8.1964    -1.4643    -6.3002 C.3     
  37 O37            2.1005    -2.2519    -0.7890 O.3     
  38 C38            3.1044    -3.9997    -2.1223 C.3     
  39 C39            2.0227    -3.6444    -1.1004 C.3     
  40 C40            2.2356    -4.4646     0.1736 C.3     
  41 O41            4.3939    -3.8152    -1.5347 O.3     
  42 C42            5.4809    -4.1213    -2.4104 C.3     
  43 H43            1.8219     0.3061    -0.3206 H       
  44 H44           -0.1478    -3.4837    -0.2696 H       
  45 H45           -2.2697     0.0243     0.9304 H       
  46 H46           -2.1837     1.8428     1.1536 H       
  47 H47           -0.7655     7.2038     1.5155 H       
  48 H48           -3.6761     6.3562     3.2709 H       
  49 H49           -3.0874     7.6527     2.2027 H       
  50 H50           -4.3795     6.6876     0.3192 H       
  51 H51           -4.9682     5.3911     1.3874 H       
  52 H52           -7.2812    10.0209     0.8855 H       
  53 H53           -6.4097    10.2569     2.4180 H       
  54 H54           -7.3863     6.1362     2.3075 H       
  55 H55           -6.1210     6.2189     3.5543 H       
  56 H56           -6.7138     8.4927     4.1183 H       
  57 H57           -8.2333     7.5619     4.0591 H       
  58 H58           -4.7272    -3.8210     0.7944 H       
  59 H59           -6.5377    -3.7661    -0.8673 H       
  60 H60           -4.1785    -1.1697    -3.3354 H       
  61 H61           -2.3786    -1.2255    -1.6623 H       
  62 H62           -7.8997    -2.1523    -7.0918 H       
  63 H63           -9.2815    -1.3621    -6.2954 H       
  64 H64           -7.7405    -0.4899    -6.4759 H       
  65 H65            2.9893    -5.0401    -2.4265 H       
  66 H66            3.0067    -3.3532    -2.9945 H       
  67 H67            1.0410    -3.8692    -1.5174 H       
  68 H68            3.2172    -4.2398     0.5906 H       
  69 H69            1.4649    -4.2115     0.9017 H       
  70 H70            2.1762    -5.5267    -0.0639 H       
  71 H71            5.4150    -5.1642    -2.7206 H       
  72 H72            5.4325    -3.4773    -3.2885 H       
  73 H73            6.4243    -3.9559    -1.8901 H       
@<TRIPOS>BOND
   1    1    2 1
   2    1    8 2
   3    1    9 am
   4    2    3 ar
   5    2    7 ar
   6    3    4 ar
   7    3   43 1
   8    4    5 ar
   9    4   37 1
  10    5    6 ar
  11    5   44 1
  12    6    7 ar
  13    6   24 1
  14    7   45 1
  15    9   11 1
  16    9   46 1
  17   10   11 1
  18   10   14 1
  19   11   12 2
  20   12   13 1
  21   13   14 2
  22   13   15 1
  23   14   47 1
  24   15   16 1
  25   15   48 1
  26   15   49 1
  27   16   20 1
  28   16   50 1
  29   16   51 1
  30   17   18 1
  31   17   22 1
  32   18   19 1
  33   18   52 1
  34   18   53 1
  35   19   20 am
  36   19   23 2
  37   20   21 1
  38   21   22 1
  39   21   54 1
  40   21   55 1
  41   22   56 1
  42   22   57 1
  43   24   25 1
  44   25   26 ar
  45   25   30 ar
  46   26   27 ar
  47   26   58 1
  48   27   28 ar
  49   27   59 1
  50   28   29 ar
  51   28   32 1
  52   29   30 ar
  53   29   60 1
  54   30   61 1
  55   31   32 1
  56   31   35 1
  57   32   33 2
  58   33   34 1
  59   34   35 2
  60   35   36 1
  61   36   62 1
  62   36   63 1
  63   36   64 1
  64   37   39 1
  65   38   39 1
  66   38   41 1
  67   38   65 1
  68   38   66 1
  69   39   40 1
  70   39   67 1
  71   40   68 1
  72   40   69 1
  73   40   70 1
  74   41   42 1
  75   42   71 1
  76   42   72 1
  77   42   73 1

#	End of record

