#	Name: ASD01940414
#	Creating user name:	WinNT
#	Creation time:	15. 06. 2019 20:12

#	Modifying user name:	WinNT
#	Modification time:	15. 06. 2019 20:12

#	Program:	/corina/corina34_cracker 3.40 0067  02.08.2006

@<TRIPOS>MOLECULE
ASD01940414
  42   44    0    0    0
SMALL
NO_CHARGES


@<TRIPOS>ATOM
   1 S1             1.6624     2.4730     2.6902 S.3     
   2 N2             2.1062     0.9731     3.3454 N.2     
   3 C3             2.7530     0.3128     2.4468 C.2     
   4 C4             2.9596     0.9016     1.1884 C.ar    
   5 C5             2.3956     2.1879     1.1088 C.ar    
   6 C6             2.4883     2.9460    -0.0559 C.ar    
   7 C7             3.1559     2.4164    -1.1679 C.ar    
   8 C8             3.7193     1.1316    -1.0884 C.ar    
   9 C9             3.6278     0.3958     0.0444 C.ar    
  10 C10            3.2659     3.1992    -2.4093 C.2     
  11 O11            2.7608     4.3036    -2.4787 O.2     
  12 N12            3.9261     2.6923    -3.4693 N.am    
  13 O13            4.0319     3.4454    -4.6638 O.3     
  14 C14            4.7575     2.7868    -5.7038 C.3     
  15 C15            4.8083     3.6876    -6.9395 C.3     
  16 O16            5.5613     4.8647    -6.6403 O.3     
  17 C17            5.7032     5.7748    -7.6363 C.2     
  18 C18            6.3858     6.8812    -7.4250 C.2     
  19 N19            1.9247     4.2128    -0.1144 N.pl3   
  20 C20            0.6374     4.3823    -0.6349 C.ar    
  21 C21            0.0237     5.6300    -0.5845 C.ar    
  22 C22           -1.2483     5.7935    -1.1005 C.ar    
  23 C23           -1.9103     4.7175    -1.6659 C.ar    
  24 C24           -1.3017     3.4764    -1.7169 C.ar    
  25 C25           -0.0282     3.3075    -1.2081 C.ar    
  26 F26            0.6697     6.6799    -0.0318 F       
  27 Br27          -3.6507     4.9445    -2.3696 Br      
  28 H28            3.1302    -0.6769     2.6582 H       
  29 H29            4.2335     0.7237    -1.9461 H       
  30 H30            4.0702    -0.5889     0.0775 H       
  31 H31            4.3288     1.8116    -3.4140 H       
  32 H32            5.7720     2.5790    -5.3637 H       
  33 H33            4.2602     1.8505    -5.9570 H       
  34 H34            5.2836     3.1512    -7.7608 H       
  35 H35            3.7949     3.9678    -7.2268 H       
  36 H36            5.2564     5.5921    -8.6024 H       
  37 H37            6.8325     7.0639    -6.4589 H       
  38 H38            6.4988     7.6057    -8.2179 H       
  39 H39            2.4235     4.9808     0.2057 H       
  40 H40           -1.7260     6.7613    -1.0621 H       
  41 H41           -1.8213     2.6389    -2.1585 H       
  42 H42            0.4475     2.3389    -1.2527 H       
@<TRIPOS>BOND
   1    1    2 1
   2    1    5 1
   3    2    3 2
   4    3    4 1
   5    3   28 1
   6    4    5 ar
   7    4    9 ar
   8    5    6 ar
   9    6    7 ar
  10    6   19 1
  11    7    8 ar
  12    7   10 1
  13    8    9 ar
  14    8   29 1
  15    9   30 1
  16   10   11 2
  17   10   12 am
  18   12   13 1
  19   12   31 1
  20   13   14 1
  21   14   15 1
  22   14   32 1
  23   14   33 1
  24   15   16 1
  25   15   34 1
  26   15   35 1
  27   16   17 1
  28   17   18 2
  29   17   36 1
  30   18   37 1
  31   18   38 1
  32   19   20 1
  33   19   39 1
  34   20   21 ar
  35   20   25 ar
  36   21   22 ar
  37   21   26 1
  38   22   23 ar
  39   22   40 1
  40   23   24 ar
  41   23   27 1
  42   24   25 ar
  43   24   41 1
  44   25   42 1

#	End of record

