#	Name: ASD00311010
#	Creating user name:	WinNT
#	Creation time:	15. 06. 2019 18:34

#	Modifying user name:	WinNT
#	Modification time:	15. 06. 2019 18:34

#	Program:	/corina/corina34_cracker 3.40 0067  02.08.2006

@<TRIPOS>MOLECULE
ASD00311010
  32   34    0    0    0
SMALL
NO_CHARGES


@<TRIPOS>ATOM
   1 C1            -0.0158     1.3141     0.0093 C.ar    
   2 N2             0.0021    -0.0041     0.0020 N.ar    
   3 C3             1.1287    -0.6886    -0.0125 C.ar    
   4 C4             2.3501    -0.0441    -0.0203 C.ar    
   5 C5             2.3789     1.3544    -0.0130 C.ar    
   6 C6             1.1595     2.0395     0.0019 C.ar    
   7 C7             3.6717     3.5524    -0.0127 C.2     
   8 C8             3.6652     2.0896    -0.0204 C.2     
   9 C9             3.6644     6.4255     0.0028 C.ar    
  10 C10            4.8519     5.6922    -0.0116 C.ar    
  11 C11            4.8455     4.2232    -0.0194 C.2     
  12 C12            3.7194     7.8139     0.0092 C.ar    
  13 N13            4.8493     8.4755     0.0019 N.ar    
  14 C14            6.0372     7.8660    -0.0115 C.ar    
  15 C15            6.1047     6.4507    -0.0191 C.ar    
  16 O16            4.7162     1.4766    -0.0330 O.2     
  17 C17            7.3486     5.8124    -0.0340 C.ar    
  18 C18            8.4889     6.5605    -0.0410 C.ar    
  19 C19            8.4291     7.9522    -0.0331 C.ar    
  20 C20            7.2345     8.6043    -0.0186 C.ar    
  21 H21           -0.9625     1.8339     0.0166 H       
  22 H22            1.0960    -1.7681    -0.0179 H       
  23 H23            3.2692    -0.6112    -0.0314 H       
  24 H24            1.1373     3.1192     0.0076 H       
  25 H25            2.7388     4.0965    -0.0015 H       
  26 H26            2.7110     5.9182     0.0043 H       
  27 H27            5.7783     3.6792    -0.0306 H       
  28 H28            2.7933     8.3695     0.0204 H       
  29 H29            7.4061     4.7340    -0.0395 H       
  30 H30            9.4500     6.0679    -0.0525 H       
  31 H31            9.3458     8.5231    -0.0385 H       
  32 H32            7.2059     9.6839    -0.0130 H       
@<TRIPOS>BOND
   1    1    2 ar
   2    1    6 ar
   3    1   21 1
   4    2    3 ar
   5    3    4 ar
   6    3   22 1
   7    4    5 ar
   8    4   23 1
   9    5    6 ar
  10    5    8 1
  11    6   24 1
  12    7    8 1
  13    7   11 2
  14    7   25 1
  15    8   16 2
  16    9   10 ar
  17    9   12 ar
  18    9   26 1
  19   10   11 1
  20   10   15 ar
  21   11   27 1
  22   12   13 ar
  23   12   28 1
  24   13   14 ar
  25   14   15 ar
  26   14   20 ar
  27   15   17 ar
  28   17   18 ar
  29   17   29 1
  30   18   19 ar
  31   18   30 1
  32   19   20 ar
  33   19   31 1
  34   20   32 1

#	End of record

