#	Name: ASD01884387
#	Creating user name:	WinNT
#	Creation time:	15. 06. 2019 19:48

#	Modifying user name:	WinNT
#	Modification time:	15. 06. 2019 19:48

#	Program:	/corina/corina34_cracker 3.40 0067  02.08.2006

@<TRIPOS>MOLECULE
ASD01884387
  66   68    0    0    0
SMALL
NO_CHARGES


@<TRIPOS>ATOM
   1 C1            -0.1227     1.9978     0.4634 C.2     
   2 C2            -0.3342     0.6215     0.4425 C.2     
   3 C3            -1.6239     0.1326     0.6550 C.2     
   4 C4            -2.6502     0.9919     0.8774 C.2     
   5 N5            -2.4519     2.3323     0.8992 N.am    
   6 C6            -1.2267     2.8564     0.7059 C.2     
   7 O7            -1.0679     4.0648     0.7290 O.2     
   8 C8            -3.5877     3.2251     1.1423 C.3     
   9 C9             1.1866     2.5371     0.2500 C.1     
  10 N10            2.2252     2.9649     0.0807 N.1     
  11 N11            1.3548    -0.7849     1.4788 N.3     
  12 C12            2.3107    -1.8839     1.2836 C.3     
  13 C13            2.9117    -2.2798     2.6343 C.3     
  14 N14            1.8332    -2.6798     3.5490 N.3     
  15 C15            0.8773    -1.5808     3.7442 C.3     
  16 C16            0.2764    -1.1850     2.3934 C.3     
  17 N17            2.3708    -3.1350     4.8210 N.3     
  18 C18           -3.7273     3.4751     2.6453 C.3     
  19 C19            0.8117    -0.3251     0.1937 C.3     
  20 C20           -4.9135     4.4075     2.8992 C.3     
  21 C21           -5.1303     4.5581     4.4063 C.3     
  22 C22           -4.6244     5.7791     2.2860 C.3     
  23 C23            1.3097    -3.6872     5.6736 C.3     
  24 C24            3.4462    -4.1148     4.6176 C.3     
  25 C25            0.7114    -4.9001     5.0088 C.ar    
  26 C26            1.2147    -6.1576     5.2836 C.ar    
  27 C27            0.6658    -7.2704     4.6737 C.ar    
  28 C28           -0.3866    -7.1253     3.7895 C.ar    
  29 C29           -0.8907    -5.8674     3.5153 C.ar    
  30 C30           -0.3448    -4.7554     4.1284 C.ar    
  31 C31           -2.0378    -5.7091     2.5509 C.3     
  32 F32           -2.4172    -6.9658     2.0672 F       
  33 F33           -3.1211    -5.1160     3.2081 F       
  34 F34           -1.6402    -4.8986     1.4822 F       
  35 H35           -1.8055    -0.9319     0.6421 H       
  36 H36           -3.6435     0.6003     1.0397 H       
  37 H37           -3.4210     4.1729     0.6304 H       
  38 H38           -4.5000     2.7636     0.7645 H       
  39 H39            1.7958    -2.7409     0.8494 H       
  40 H40            3.1062    -1.5592     0.6128 H       
  41 H41            3.5993    -3.1141     2.4959 H       
  42 H42            3.4497    -1.4307     3.0558 H       
  43 H43            0.0819    -1.9056     4.4150 H       
  44 H44            1.3923    -0.7238     4.1783 H       
  45 H45           -0.4113    -0.3507     2.5318 H       
  46 H46           -0.2616    -2.0340     1.9719 H       
  47 H47           -3.8941     2.5273     3.1573 H       
  48 H48           -2.8150     3.9366     3.0232 H       
  49 H49            0.4571    -1.1824    -0.3785 H       
  50 H50            1.5921     0.1888    -0.3676 H       
  51 H51           -5.8100     3.9873     2.4434 H       
  52 H52           -4.2338     4.9783     4.8621 H       
  53 H53           -5.9754     5.2224     4.5872 H       
  54 H54           -5.3363     3.5810     4.8432 H       
  55 H55           -3.7279     6.1993     2.7418 H       
  56 H56           -4.4700     5.6718     1.2123 H       
  57 H57           -5.4695     6.4434     2.4669 H       
  58 H58            1.7299    -3.9718     6.6382 H       
  59 H59            0.5349    -2.9351     5.8225 H       
  60 H60            4.2507    -3.6572     4.0419 H       
  61 H61            3.8304    -4.4386     5.5849 H       
  62 H62            3.0555    -4.9758     4.0752 H       
  63 H63            2.0370    -6.2710     5.9745 H       
  64 H64            1.0596    -8.2530     4.8878 H       
  65 H65           -0.8149    -7.9944     3.3125 H       
  66 H66           -0.7386    -3.7729     3.9142 H       
@<TRIPOS>BOND
   1    1    2 2
   2    1    9 1
   3    1    6 1
   4    2    3 1
   5    2   19 1
   6    3    4 2
   7    3   35 1
   8    4    5 1
   9    4   36 1
  10    5    6 am
  11    5    8 1
  12    6    7 2
  13    8   18 1
  14    8   37 1
  15    8   38 1
  16    9   10 3
  17   11   12 1
  18   11   16 1
  19   11   19 1
  20   12   13 1
  21   12   39 1
  22   12   40 1
  23   13   14 1
  24   13   41 1
  25   13   42 1
  26   14   15 1
  27   14   17 1
  28   15   16 1
  29   15   43 1
  30   15   44 1
  31   16   45 1
  32   16   46 1
  33   17   23 1
  34   17   24 1
  35   18   20 1
  36   18   47 1
  37   18   48 1
  38   19   49 1
  39   19   50 1
  40   20   21 1
  41   20   22 1
  42   20   51 1
  43   21   52 1
  44   21   53 1
  45   21   54 1
  46   22   55 1
  47   22   56 1
  48   22   57 1
  49   23   25 1
  50   23   58 1
  51   23   59 1
  52   24   60 1
  53   24   61 1
  54   24   62 1
  55   25   26 ar
  56   25   30 ar
  57   26   27 ar
  58   26   63 1
  59   27   28 ar
  60   27   64 1
  61   28   29 ar
  62   28   65 1
  63   29   31 1
  64   29   30 ar
  65   30   66 1
  66   31   32 1
  67   31   33 1
  68   31   34 1

#	End of record

