#	Name: ASD01810680
#	Creating user name:	WinNT
#	Creation time:	15. 06. 2019 19:25

#	Modifying user name:	WinNT
#	Modification time:	15. 06. 2019 19:25

#	Program:	/corina/corina34_cracker 3.40 0067  02.08.2006

@<TRIPOS>MOLECULE
ASD01810680
  59   63    0    0    0
SMALL
NO_CHARGES


@<TRIPOS>ATOM
   1 C1            -0.1762     1.9834     0.5160 C.ar    
   2 C2             0.0701     0.6091     0.5305 C.ar    
   3 C3            -0.9743    -0.2842     0.3946 C.ar    
   4 C4            -2.2677     0.1743     0.2438 C.ar    
   5 C5            -2.5280     1.5466     0.2276 C.ar    
   6 C6            -1.4797     2.4529     0.3704 C.ar    
   7 C7            -3.9138     2.0361     0.0654 C.2     
   8 N8            -4.4455     2.8700     0.9811 N.am    
   9 O9            -4.5736     1.6864    -0.8937 O.2     
  10 C10           -5.8474     3.2978     0.8793 C.3     
  11 C11           -3.6359     3.3637     2.1033 C.3     
  12 C12           -4.3707     3.0597     3.4127 C.3     
  13 C13           -5.7821     3.6478     3.3493 C.3     
  14 C14           -6.5528     2.9946     2.2050 C.3     
  15 C15           -6.4964     3.3801     4.6490 C.ar    
  16 C16           -6.9520     4.4384     5.4151 C.ar    
  17 C17           -7.6070     4.2006     6.6056 C.ar    
  18 C18           -7.8097     2.8881     7.0371 C.ar    
  19 C19           -7.3473     1.8249     6.2590 C.ar    
  20 C20           -6.6985     2.0770     5.0680 C.ar    
  21 C21            0.9437     2.9387     0.6611 C.2     
  22 N22            2.1924     2.6109     0.9125 N.2     
  23 C23            2.9445     3.7170     0.9800 C.2     
  24 C24            2.1024     4.8131     0.7543 C.2     
  25 N25            0.8409     4.2939     0.5490 N.pl3   
  26 C26            4.3636     3.9720     1.2253 C.2     
  27 C27            4.8067     5.2435     1.2253 C.2     
  28 N28            3.9601     6.2894     1.0024 N.am    
  29 C29            2.6464     6.1081     0.7714 C.2     
  30 C30            1.4788     0.0995     0.6942 C.3     
  31 C31           -3.4011    -0.8079     0.0957 C.3     
  32 C32           -8.4884     2.6338     8.2721 C.1     
  33 N33           -9.0268     2.4320     9.2518 N.1     
  34 O34            1.9249     7.0729     0.5767 O.2     
  35 H35           -0.7783    -1.3462     0.4061 H       
  36 H36           -1.6755     3.5150     0.3587 H       
  37 H37           -5.8892     4.3685     0.6797 H       
  38 H38           -6.3377     2.7540     0.0718 H       
  39 H39           -2.6674     2.8635     2.1031 H       
  40 H40           -3.4936     4.4400     2.0056 H       
  41 H41           -4.4321     1.9805     3.5532 H       
  42 H42           -3.8280     3.5053     4.2464 H       
  43 H43           -5.7203     4.7234     3.1840 H       
  44 H44           -7.5659     3.3955     2.1731 H       
  45 H45           -6.5924     1.9166     2.3616 H       
  46 H46           -6.7942     5.4530     5.0803 H       
  47 H47           -7.9618     5.0275     7.2028 H       
  48 H48           -7.5005     0.8074     6.5871 H       
  49 H49           -6.3403     1.2556     4.4652 H       
  50 H50            0.0326     4.7977     0.3656 H       
  51 H51            5.0452     3.1536     1.4040 H       
  52 H52            5.8534     5.4391     1.4057 H       
  53 H53            4.3156     7.1919     1.0105 H       
  54 H54            1.7322     0.0657     1.7538 H       
  55 H55            1.5545    -0.9019     0.2704 H       
  56 H56            2.1688     0.7661     0.1767 H       
  57 H57           -3.7408    -1.1221     1.0826 H       
  58 H58           -4.2249    -0.3342    -0.4383 H       
  59 H59           -3.0574    -1.6776    -0.4643 H       
@<TRIPOS>BOND
   1    1    2 ar
   2    1   21 1
   3    1    6 ar
   4    2    3 ar
   5    2   30 1
   6    3    4 ar
   7    3   35 1
   8    4    5 ar
   9    4   31 1
  10    5    6 ar
  11    5    7 1
  12    6   36 1
  13    7    8 am
  14    7    9 2
  15    8   10 1
  16    8   11 1
  17   10   14 1
  18   10   37 1
  19   10   38 1
  20   11   12 1
  21   11   39 1
  22   11   40 1
  23   12   13 1
  24   12   41 1
  25   12   42 1
  26   13   14 1
  27   13   15 1
  28   13   43 1
  29   14   44 1
  30   14   45 1
  31   15   16 ar
  32   15   20 ar
  33   16   17 ar
  34   16   46 1
  35   17   18 ar
  36   17   47 1
  37   18   19 ar
  38   18   32 1
  39   19   20 ar
  40   19   48 1
  41   20   49 1
  42   21   22 2
  43   21   25 1
  44   22   23 1
  45   23   24 2
  46   23   26 1
  47   24   25 1
  48   24   29 1
  49   25   50 1
  50   26   27 2
  51   26   51 1
  52   27   28 1
  53   27   52 1
  54   28   29 am
  55   28   53 1
  56   29   34 2
  57   30   54 1
  58   30   55 1
  59   30   56 1
  60   31   57 1
  61   31   58 1
  62   31   59 1
  63   32   33 3

#	End of record

