#	Name: ASD01140125
#	Creating user name:	WinNT
#	Creation time:	15. 06. 2019 19:00

#	Modifying user name:	WinNT
#	Modification time:	15. 06. 2019 19:00

#	Program:	/corina/corina34_cracker 3.40 0067  02.08.2006

@<TRIPOS>MOLECULE
ASD01140125
  17   17    0    0    0
SMALL
NO_CHARGES


@<TRIPOS>ATOM
   1 C1            -0.0166     1.3752     0.0096 C.ar    
   2 C2             0.0021    -0.0041     0.0020 C.ar    
   3 C3             1.2224    -0.6824    -0.0133 C.ar    
   4 C4             2.4163     0.0415    -0.0207 C.ar    
   5 C5             2.3831     1.4205    -0.0130 C.ar    
   6 C6             1.1703     2.0864     0.0021 C.ar    
   7 N7             1.2479    -2.0372    -0.0203 N.1     
   8 N8             1.2673    -3.0705    -0.0257 N.1     
   9 S9             1.1371     3.8481     0.0119 S.o2    
  10 O10            1.1148     4.3063    -1.4393 O.3     
  11 O11           -0.1147     4.2228     0.5703 O.2     
  12 O12            2.3842     4.2699     0.5467 O.2     
  13 H13           -0.9599     1.9012     0.0169 H       
  14 H14           -0.9250    -0.5580     0.0082 H       
  15 H15            3.3636    -0.4770    -0.0322 H       
  16 H16            3.3058     1.9817    -0.0188 H       
  17 H17            1.0956     5.2670    -1.5482 H       
@<TRIPOS>BOND
   1    1    2 ar
   2    1    6 ar
   3    1   13 1
   4    2    3 ar
   5    2   14 1
   6    3    4 ar
   7    3    7 1
   8    4    5 ar
   9    4   15 1
  10    5    6 ar
  11    5   16 1
  12    6    9 1
  13    7    8 3
  14    9   10 1
  15    9   11 2
  16    9   12 2
  17   10   17 1

#	End of record

