#	Name: ASD02198238
#	Creating user name:	WinNT
#	Creation time:	15. 06. 2019 20:19

#	Modifying user name:	WinNT
#	Modification time:	15. 06. 2019 20:19

#	Program:	/corina/corina34_cracker 3.40 0067  02.08.2006

@<TRIPOS>MOLECULE
ASD02198238
  49   52    0    0    0
SMALL
NO_CHARGES


@<TRIPOS>ATOM
   1 C1            -0.0085     1.3812     0.1764 C.2     
   2 C2             0.0028     0.0074     0.0646 C.2     
   3 C3            -1.1906    -0.7834     0.0343 C.1     
   4 S4             1.5788     2.0035     0.1808 S.3     
   5 C5             2.2784     0.3995     0.0304 C.2     
   6 C6             1.2813    -0.5426    -0.0171 C.2     
   7 C7             3.6595     0.1210    -0.0332 C.2     
   8 C8             4.6305     1.2262    -0.1484 C.2     
   9 O9             4.0513    -1.0334     0.0071 O.2     
  10 N10            1.5214    -1.9038    -0.1345 N.pl3   
  11 N11           -1.1476     2.1476     0.2663 N.pl3   
  12 N12           -2.1374    -1.4107     0.0103 N.1     
  13 C13           -1.0431     3.6043     0.3820 C.3     
  14 C14           -2.3268     4.2684    -0.1460 C.3     
  15 C15            5.9770     1.0399    -0.0761 C.2     
  16 C16           -2.9346     5.0533     1.0348 C.3     
  17 C17           -1.7312     5.3212     1.9724 C.3     
  18 C18           -0.9156     4.0088     1.8652 C.3     
  19 S19            6.7971     2.5258    -0.2487 S.3     
  20 C20            5.2859     3.4052    -0.4206 C.2     
  21 C21            4.2501     2.5532    -0.3469 C.2     
  22 C22            6.6495    -0.2932     0.1279 C.3     
  23 C23            5.1715     4.8656    -0.6223 C.ar    
  24 C24            6.3198     5.6558    -0.6897 C.ar    
  25 C25            3.9150     5.4588    -0.7520 C.ar    
  26 C26            3.8152     6.8219    -0.9405 C.ar    
  27 C27            4.9573     7.6003    -1.0016 C.ar    
  28 C28            6.2062     7.0177    -0.8786 C.ar    
  29 H29            2.4323    -2.2329    -0.1876 H       
  30 H30            0.7783    -2.5266    -0.1635 H       
  31 H31           -2.0198     1.7235     0.2531 H       
  32 H32           -0.1797     3.9621    -0.1789 H       
  33 H33           -2.0863     4.9492    -0.9626 H       
  34 H34           -3.0275     3.5069    -0.4883 H       
  35 H35           -3.3641     5.9930     0.6874 H       
  36 H36           -3.6887     4.4532     1.5439 H       
  37 H37           -1.1462     6.1696     1.6174 H       
  38 H38           -2.0680     5.4841     2.9962 H       
  39 H39           -1.3437     3.2400     2.5085 H       
  40 H40            0.1283     4.1862     2.1239 H       
  41 H41            3.2198     2.8670    -0.4265 H       
  42 H42            6.8472    -0.7525    -0.8406 H       
  43 H43            7.5897    -0.1482     0.6600 H       
  44 H44            5.9980    -0.9432     0.7120 H       
  45 H45            7.2952     5.2022    -0.5939 H       
  46 H46            3.0228     4.8521    -0.7052 H       
  47 H47            2.8434     7.2822    -1.0409 H       
  48 H48            4.8738     8.6668    -1.1500 H       
  49 H49            7.0939     7.6309    -0.9272 H       
@<TRIPOS>BOND
   1    1    2 2
   2    1    4 1
   3    1   11 1
   4    2    3 1
   5    2    6 1
   6    3   12 3
   7    4    5 1
   8    5    6 2
   9    5    7 1
  10    6   10 1
  11    7    8 1
  12    7    9 2
  13    8   15 2
  14    8   21 1
  15   10   29 1
  16   10   30 1
  17   11   13 1
  18   11   31 1
  19   13   14 1
  20   13   18 1
  21   13   32 1
  22   14   16 1
  23   14   33 1
  24   14   34 1
  25   15   19 1
  26   15   22 1
  27   16   17 1
  28   16   35 1
  29   16   36 1
  30   17   18 1
  31   17   37 1
  32   17   38 1
  33   18   39 1
  34   18   40 1
  35   19   20 1
  36   20   21 2
  37   20   23 1
  38   21   41 1
  39   22   42 1
  40   22   43 1
  41   22   44 1
  42   23   24 ar
  43   23   25 ar
  44   24   28 ar
  45   24   45 1
  46   25   26 ar
  47   25   46 1
  48   26   27 ar
  49   26   47 1
  50   27   28 ar
  51   27   48 1
  52   28   49 1

#	End of record

