#	Name: ASD02039249
#	Creating user name:	WinNT
#	Creation time:	15. 06. 2019 20:17

#	Modifying user name:	WinNT
#	Modification time:	15. 06. 2019 20:17

#	Program:	/corina/corina34_cracker 3.40 0067  02.08.2006

@<TRIPOS>MOLECULE
ASD02039249
  46   49    0    0    0
SMALL
NO_CHARGES


@<TRIPOS>ATOM
   1 N1            -0.0160     1.3036    -0.0275 N.2     
   2 C2             0.0019    -0.0039    -0.0002 C.2     
   3 C3             1.3717    -0.3810     0.0196 C.2     
   4 C4             2.0347     0.7973     0.0008 C.2     
   5 O5             1.1031     1.7614    -0.0273 O.3     
   6 N6            -1.0994    -0.8549     0.0084 N.pl3   
   7 C7            -0.9164    -2.2357    -0.1058 C.ar    
   8 C8             0.1058    -2.7392    -0.9007 C.ar    
   9 C9             0.2841    -4.1040    -1.0109 C.ar    
  10 C10           -0.5536    -4.9696    -0.3311 C.ar    
  11 C11           -1.5722    -4.4719     0.4604 C.ar    
  12 C12           -1.7525    -3.1077     0.5796 C.ar    
  13 O13            4.0144     1.0218    -1.3330 O.3     
  14 C14            5.3529     1.1901    -1.5022 C.ar    
  15 C15            6.1808     1.3213    -0.3902 C.ar    
  16 C16            7.5392     1.4921    -0.5425 C.ar    
  17 C17            8.0955     1.5346    -1.8163 C.ar    
  18 C18            7.2623     1.4023    -2.9433 C.ar    
  19 C19            5.8854     1.2242    -2.7756 C.ar    
  20 C20            3.5293     0.9896     0.0107 C.3     
  21 C21           -0.3560    -6.4585    -0.4539 C.3     
  22 N22            9.4540     1.7059    -1.9899 N.am    
  23 C23            9.9941     1.7483    -3.2204 C.2     
  24 C24            9.2023     1.6209    -4.3816 C.2     
  25 C25            7.8612     1.4499    -4.2785 C.2     
  26 O26           11.1979     1.9009    -3.3359 O.2     
  27 C27           -2.4827    -5.4188     1.1989 C.3     
  28 H28            1.7870    -1.3777     0.0444 H       
  29 H29           -1.9939    -0.4896     0.0936 H       
  30 H30            0.7600    -2.0639    -1.4321 H       
  31 H31            1.0783    -4.4961    -1.6290 H       
  32 H32           -2.5483    -2.7195     1.1981 H       
  33 H33            5.7537     1.2894     0.6013 H       
  34 H34            8.1719     1.5932     0.3270 H       
  35 H35            5.2417     1.1218    -3.6368 H       
  36 H36            3.7715     1.9293     0.5071 H       
  37 H37            3.9983     0.1643     0.5466 H       
  38 H38            0.3279    -6.7996     0.3234 H       
  39 H39           -1.3155    -6.9630    -0.3404 H       
  40 H40            0.0626    -6.6900    -1.4333 H       
  41 H41           10.0274     1.7973    -1.2129 H       
  42 H42            9.6664     1.6595    -5.3561 H       
  43 H43            7.2481     1.3509    -5.1620 H       
  44 H44           -2.0663    -5.6292     2.1840 H       
  45 H45           -3.4670    -4.9639     1.3101 H       
  46 H46           -2.5734    -6.3482     0.6367 H       
@<TRIPOS>BOND
   1    1    2 2
   2    1    5 1
   3    2    3 1
   4    2    6 1
   5    3    4 2
   6    3   28 1
   7    4    5 1
   8    4   20 1
   9    6    7 1
  10    6   29 1
  11    7    8 ar
  12    7   12 ar
  13    8    9 ar
  14    8   30 1
  15    9   10 ar
  16    9   31 1
  17   10   11 ar
  18   10   21 1
  19   11   12 ar
  20   11   27 1
  21   12   32 1
  22   13   14 1
  23   13   20 1
  24   14   15 ar
  25   14   19 ar
  26   15   16 ar
  27   15   33 1
  28   16   17 ar
  29   16   34 1
  30   17   18 ar
  31   17   22 1
  32   18   19 ar
  33   18   25 1
  34   19   35 1
  35   20   36 1
  36   20   37 1
  37   21   38 1
  38   21   39 1
  39   21   40 1
  40   22   23 am
  41   22   41 1
  42   23   24 1
  43   23   26 2
  44   24   25 2
  45   24   42 1
  46   25   43 1
  47   27   44 1
  48   27   45 1
  49   27   46 1

#	End of record

