#	Name: ASD01200289
#	Creating user name:	WinNT
#	Creation time:	15. 06. 2019 19:08

#	Modifying user name:	WinNT
#	Modification time:	15. 06. 2019 19:08

#	Program:	/corina/corina34_cracker 3.40 0067  02.08.2006

@<TRIPOS>MOLECULE
ASD01200289
  66   68    0    0    0
SMALL
NO_CHARGES


@<TRIPOS>ATOM
   1 C1             0.2537     0.7990    -0.0411 C.ar    
   2 C2             0.6131    -0.5109     0.2426 C.ar    
   3 C3            -0.3596    -1.4945     0.3451 C.ar    
   4 C4            -1.6947    -1.1727     0.1644 C.ar    
   5 C5            -2.0606     0.1431    -0.1210 C.ar    
   6 C6            -1.0792     1.1306    -0.2180 C.ar    
   7 O7             1.2107     1.7589    -0.1399 O.3     
   8 C8             2.5620     1.3537     0.0875 C.3     
   9 C9             3.4895     2.5605    -0.0687 C.3     
  10 O10            4.8408     2.1553     0.1587 O.3     
  11 C11            5.7933     3.2135     0.0364 C.3     
  12 C12            2.6937     0.7891     1.5034 C.3     
  13 C13            2.9497     0.2777    -0.9288 C.3     
  14 O14           -0.0021    -2.7760     0.6226 O.3     
  15 C15           -1.0548    -3.7380     0.7138 C.3     
  16 C16           -0.4632    -5.1131     1.0302 C.3     
  17 C17           -1.5734    -6.1276     1.1263 C.ar    
  18 C18           -1.9783    -6.8173    -0.0012 C.ar    
  19 C19           -2.9960    -7.7482     0.0859 C.ar    
  20 C20           -3.6102    -7.9899     1.3030 C.ar    
  21 C21           -3.2038    -7.2985     2.4317 C.ar    
  22 C22           -2.1823    -6.3718     2.3432 C.ar    
  23 F23           -4.6055    -8.8994     1.3893 F       
  24 C24           -3.4840     0.4912    -0.3151 C.2     
  25 N25           -4.4307    -0.4631    -0.2165 N.am    
  26 O26           -3.8008     1.6380    -0.5637 O.2     
  27 C27           -5.7560    -0.1587    -0.5002 C.ar    
  28 N28           -6.0948     1.0944    -0.7698 N.ar    
  29 C29           -6.7079    -1.1755    -0.5028 C.ar    
  30 C30           -7.3373     1.4306    -1.0443 C.ar    
  31 C31           -8.3474     0.4629    -1.0589 C.ar    
  32 C32           -8.0137    -0.8735    -0.7826 C.ar    
  33 C33           -9.7352     0.8375    -1.3644 C.2     
  34 C34          -10.0436     2.1248    -1.6340 C.2     
  35 C35          -11.3825     2.4863    -1.9287 C.2     
  36 O36          -11.6906     3.7720    -2.1980 O.3     
  37 O37          -12.2536     1.6372    -1.9389 O.2     
  38 H38            1.6532    -0.7653     0.3837 H       
  39 H39           -2.4514    -1.9392     0.2440 H       
  40 H40           -1.3580     2.1504    -0.4384 H       
  41 H41            3.3956     2.9627    -1.0774 H       
  42 H42            3.2133     3.3271     0.6553 H       
  43 H43            5.7473     3.6293    -0.9701 H       
  44 H44            5.5650     3.9936     0.7626 H       
  45 H45            6.7943     2.8247     0.2235 H       
  46 H46            1.8982     0.0656     1.6815 H       
  47 H47            3.6614     0.2989     1.6105 H       
  48 H48            2.6155     1.6006     2.2268 H       
  49 H49            3.0718     0.7332    -1.9115 H       
  50 H50            3.8872    -0.1880    -0.6251 H       
  51 H51            2.1661    -0.4787    -0.9738 H       
  52 H52           -1.7443    -3.4480     1.5067 H       
  53 H53           -1.5898    -3.7822    -0.2348 H       
  54 H54            0.2263    -5.4031     0.2373 H       
  55 H55            0.0718    -5.0689     1.9788 H       
  56 H56           -1.4994    -6.6284    -0.9506 H       
  57 H57           -3.3125    -8.2867    -0.7952 H       
  58 H58           -3.6821    -7.4862     3.3816 H       
  59 H59           -1.8651    -5.8324     3.2234 H       
  60 H60           -4.1865    -1.3625     0.0526 H       
  61 H61           -6.4184    -2.1932    -0.2862 H       
  62 H62           -7.5789     2.4610    -1.2595 H       
  63 H63           -8.7704    -1.6441    -0.7865 H       
  64 H64          -10.5085     0.0837    -1.3735 H       
  65 H65           -9.2703     2.8787    -1.6250 H       
  66 H66          -12.6272     3.9208    -2.3867 H       
@<TRIPOS>BOND
   1    1    2 ar
   2    1    7 1
   3    1    6 ar
   4    2    3 ar
   5    2   38 1
   6    3    4 ar
   7    3   14 1
   8    4    5 ar
   9    4   39 1
  10    5    6 ar
  11    5   24 1
  12    6   40 1
  13    7    8 1
  14    8    9 1
  15    8   12 1
  16    8   13 1
  17    9   10 1
  18    9   41 1
  19    9   42 1
  20   10   11 1
  21   11   43 1
  22   11   44 1
  23   11   45 1
  24   12   46 1
  25   12   47 1
  26   12   48 1
  27   13   49 1
  28   13   50 1
  29   13   51 1
  30   14   15 1
  31   15   16 1
  32   15   52 1
  33   15   53 1
  34   16   17 1
  35   16   54 1
  36   16   55 1
  37   17   18 ar
  38   17   22 ar
  39   18   19 ar
  40   18   56 1
  41   19   20 ar
  42   19   57 1
  43   20   21 ar
  44   20   23 1
  45   21   22 ar
  46   21   58 1
  47   22   59 1
  48   24   25 am
  49   24   26 2
  50   25   27 1
  51   25   60 1
  52   27   28 ar
  53   27   29 ar
  54   28   30 ar
  55   29   32 ar
  56   29   61 1
  57   30   31 ar
  58   30   62 1
  59   31   32 ar
  60   31   33 1
  61   32   63 1
  62   33   34 2
  63   33   64 1
  64   34   35 1
  65   34   65 1
  66   35   36 1
  67   35   37 2
  68   36   66 1

#	End of record

