#	Name: ASD01915126
#	Creating user name:	WinNT
#	Creation time:	15. 06. 2019 20:04

#	Modifying user name:	WinNT
#	Modification time:	15. 06. 2019 20:04

#	Program:	/corina/corina34_cracker 3.40 0067  02.08.2006

@<TRIPOS>MOLECULE
ASD01915126
  48   50    0    0    0
SMALL
NO_CHARGES


@<TRIPOS>ATOM
   1 C1            -0.0179     1.4721     0.0101 C.2     
   2 C2             0.0021    -0.0041     0.0020 C.ar    
   3 C3             1.2223    -0.6862    -0.0133 C.ar    
   4 C4             1.2416    -2.0518    -0.0208 C.ar    
   5 C5             0.0396    -2.7682    -0.0127 C.ar    
   6 C6            -1.1814    -2.0848     0.0031 C.ar    
   7 C7            -1.1992    -0.7192     0.0155 C.ar    
   8 O8             1.0266     2.0942     0.0035 O.2     
   9 N9            -1.1942     2.1300     0.0193 N.am    
  10 C10            0.0590    -4.2000    -0.0211 C.1     
  11 C11            0.0749    -5.3739    -0.0279 C.1     
  12 C12            0.0943    -6.8057    -0.0363 C.ar    
  13 C13           -1.1044    -7.5244    -0.0282 C.ar    
  14 C14           -1.0778    -8.9032    -0.0363 C.ar    
  15 C15            0.1319    -9.5753    -0.0519 C.ar    
  16 C16            1.3228    -8.8705    -0.0594 C.ar    
  17 C17            1.3120    -7.4914    -0.0583 C.ar    
  18 C18           -1.2140     3.5948     0.0273 C.3     
  19 C19           -2.6633     4.0852     0.0369 C.3     
  20 C20           -2.6841     5.6150     0.0453 C.3     
  21 C21           -2.0986     6.1275    -1.2379 C.2     
  22 C22           -2.5947     7.1092    -1.9204 C.2     
  23 C23           -3.8307     7.8651    -1.5293 C.3     
  24 C24           -4.1577     7.6143    -0.0556 C.3     
  25 C25           -4.1267     6.1019     0.1979 C.3     
  26 H26            2.1500    -0.1332    -0.0195 H       
  27 H27            2.1843    -2.5786    -0.0334 H       
  28 H28           -2.1095    -2.6371     0.0093 H       
  29 H29           -2.1414    -0.1916     0.0318 H       
  30 H30           -2.0275     1.6336     0.0205 H       
  31 H31           -2.0492    -7.0012    -0.0153 H       
  32 H32           -2.0032    -9.4599    -0.0301 H       
  33 H33            0.1465   -10.6551    -0.0578 H       
  34 H34            2.2630    -9.4018    -0.0712 H       
  35 H35            2.2422    -6.9427    -0.0694 H       
  36 H36           -0.7010     3.9603     0.9169 H       
  37 H37           -0.7094     3.9700    -0.8630 H       
  38 H38           -3.1764     3.7197    -0.8527 H       
  39 H39           -3.1679     3.7101     0.9272 H       
  40 H40           -2.0911     5.9798     0.8840 H       
  41 H41           -1.2077     5.6476    -1.6153 H       
  42 H42           -2.0874     7.4027    -2.8275 H       
  43 H43           -3.6671     8.9312    -1.6867 H       
  44 H44           -4.6665     7.5349    -2.1461 H       
  45 H45           -3.4157     8.1062     0.5733 H       
  46 H46           -5.1503     8.0036     0.1708 H       
  47 H47           -4.7630     5.5955    -0.5279 H       
  48 H48           -4.4792     5.8924     1.2079 H       
@<TRIPOS>BOND
   1    1    2 1
   2    1    8 2
   3    1    9 am
   4    2    3 ar
   5    2    7 ar
   6    3    4 ar
   7    3   26 1
   8    4    5 ar
   9    4   27 1
  10    5    6 ar
  11    5   10 1
  12    6    7 ar
  13    6   28 1
  14    7   29 1
  15    9   18 1
  16    9   30 1
  17   10   11 3
  18   11   12 1
  19   12   13 ar
  20   12   17 ar
  21   13   14 ar
  22   13   31 1
  23   14   15 ar
  24   14   32 1
  25   15   16 ar
  26   15   33 1
  27   16   17 ar
  28   16   34 1
  29   17   35 1
  30   18   19 1
  31   18   36 1
  32   18   37 1
  33   19   20 1
  34   19   38 1
  35   19   39 1
  36   20   21 1
  37   20   25 1
  38   20   40 1
  39   21   22 2
  40   21   41 1
  41   22   23 1
  42   22   42 1
  43   23   24 1
  44   23   43 1
  45   23   44 1
  46   24   25 1
  47   24   45 1
  48   24   46 1
  49   25   47 1
  50   25   48 1

#	End of record

