#	Name: ASD01148152
#	Creating user name:	WinNT
#	Creation time:	15. 06. 2019 19:02

#	Modifying user name:	WinNT
#	Modification time:	15. 06. 2019 19:02

#	Program:	/corina/corina34_cracker 3.40 0067  02.08.2006

@<TRIPOS>MOLECULE
ASD01148152
  51   54    0    0    0
SMALL
NO_CHARGES


@<TRIPOS>ATOM
   1 N1            -0.0161     1.3349     0.0094 N.pl3   
   2 C2             0.0021    -0.0041     0.0020 C.2     
   3 C3             1.1786    -0.7254    -0.0126 C.2     
   4 C4             2.4571     0.0048    -0.0208 C.2     
   5 C5             2.3897     1.4769    -0.0128 C.ar    
   6 C6             3.5483     2.2559    -0.0201 C.ar    
   7 C7             3.4036     3.6372    -0.0123 C.ar    
   8 C8             2.1231     4.1850     0.0024 C.ar    
   9 N9             1.0496     3.4244     0.0095 N.ar    
  10 C10            1.1294     2.0993     0.0025 C.ar    
  11 C11            1.1558    -2.1951    -0.0193 C.2     
  12 O12            0.0937    -2.7865    -0.0120 O.2     
  13 O13            2.3125    -2.8871    -0.0336 O.3     
  14 O14            3.5246    -0.5826    -0.0334 O.2     
  15 C15           -1.3125     2.0171     0.0191 C.3     
  16 C16           -1.7571     2.2468     1.4650 C.3     
  17 N17            4.5294     4.4676    -0.0187 N.pl3   
  18 C18            5.6094     6.6118     0.5914 C.3     
  19 C19            4.3658     5.9234    -0.0103 C.3     
  20 C20            4.3422     6.4812    -1.4493 C.3     
  21 C21            5.0422     7.8207    -1.3665 C.ar    
  22 C22            5.0421     8.8894    -2.2474 C.ar    
  23 C23            5.7667    10.0289    -1.9578 C.ar    
  24 C24            6.4950    10.1039    -0.7851 C.ar    
  25 C25            6.4964     9.0393     0.0946 C.ar    
  26 C26            5.7703     7.8958    -0.1940 C.ar    
  27 C27            2.2140    -4.3357    -0.0395 C.3     
  28 C28            3.6185    -4.9424    -0.0558 C.3     
  29 H29           -0.9366    -0.5381     0.0081 H       
  30 H30            4.5266     1.7987    -0.0312 H       
  31 H31            2.0088     5.2589     0.0085 H       
  32 H32           -1.2220     2.9767    -0.4899 H       
  33 H33           -2.0509     1.4015    -0.4946 H       
  34 H34           -1.8477     1.2872     1.9740 H       
  35 H35           -1.0187     2.8624     1.9787 H       
  36 H36           -2.7217     2.7544     1.4722 H       
  37 H37            5.4183     4.0795    -0.0286 H       
  38 H38            5.4467     6.8316     1.6465 H       
  39 H39            6.4888     5.9798     0.4672 H       
  40 H40            3.4648     6.2073     0.5334 H       
  41 H41            4.8807     5.8140    -2.1224 H       
  42 H42            3.3143     6.6118    -1.7874 H       
  43 H43            4.4737     8.8314    -3.1639 H       
  44 H44            5.7648    10.8603    -2.6471 H       
  45 H45            7.0625    10.9941    -0.5572 H       
  46 H46            7.0655     9.0986     1.0105 H       
  47 H47            1.6852    -4.6676     0.8540 H       
  48 H48            1.6682    -4.6592    -0.9259 H       
  49 H49            4.1473    -4.6105    -0.9493 H       
  50 H50            4.1642    -4.6190     0.8306 H       
  51 H51            3.5445    -6.0299    -0.0602 H       
@<TRIPOS>BOND
   1    1    2 1
   2    1   10 1
   3    1   15 1
   4    2    3 2
   5    2   29 1
   6    3    4 1
   7    3   11 1
   8    4    5 1
   9    4   14 2
  10    5    6 ar
  11    5   10 ar
  12    6    7 ar
  13    6   30 1
  14    7    8 ar
  15    7   17 1
  16    8    9 ar
  17    8   31 1
  18    9   10 ar
  19   11   12 2
  20   11   13 1
  21   13   27 1
  22   15   16 1
  23   15   32 1
  24   15   33 1
  25   16   34 1
  26   16   35 1
  27   16   36 1
  28   17   19 1
  29   17   37 1
  30   18   19 1
  31   18   26 1
  32   18   38 1
  33   18   39 1
  34   19   20 1
  35   19   40 1
  36   20   21 1
  37   20   41 1
  38   20   42 1
  39   21   22 ar
  40   21   26 ar
  41   22   23 ar
  42   22   43 1
  43   23   24 ar
  44   23   44 1
  45   24   25 ar
  46   24   45 1
  47   25   26 ar
  48   25   46 1
  49   27   28 1
  50   27   47 1
  51   27   48 1
  52   28   49 1
  53   28   50 1
  54   28   51 1

#	End of record

