#	Name: ASD03240520
#	Creating user name:	WinNT
#	Creation time:	15. 06. 2019 20:35

#	Modifying user name:	WinNT
#	Modification time:	15. 06. 2019 20:35

#	Program:	/corina/corina34_cracker 3.40 0067  02.08.2006

@<TRIPOS>MOLECULE
ASD03240520
  43   45    0    0    0
SMALL
NO_CHARGES


@<TRIPOS>ATOM
   1 C1            -0.0890     1.3900    -0.3529 C.ar    
   2 C2            -0.0354     0.0559     0.0083 C.ar    
   3 C3             1.0610     2.1533    -0.3564 C.ar    
   4 C4             2.2771     1.5778     0.0046 C.ar    
   5 C5             2.3255     0.2337     0.3675 C.ar    
   6 C6             1.1694    -0.5204     0.3681 C.ar    
   7 C7             3.5174     2.3939     0.0022 C.2     
   8 C8             4.2715     2.7179     1.0921 C.2     
   9 N9             5.3076     3.4664     0.6633 N.pl3   
  10 N10            5.1972     3.6124    -0.7248 N.2     
  11 C11            4.1329     2.9693    -1.1264 C.2     
  12 C12           -1.2942    -0.7726     0.0103 C.3     
  13 C13           -1.0684    -2.0454    -0.8081 C.3     
  14 C14           -1.6496    -1.1429     1.4272 C.ar    
  15 C15           -2.7822    -0.6132     2.0167 C.ar    
  16 C16           -3.1082    -0.9528     3.3164 C.ar    
  17 C17           -2.3018    -1.8225     4.0265 C.ar    
  18 C18           -1.1696    -2.3529     3.4368 C.ar    
  19 C19           -0.8460    -2.0166     2.1356 C.ar    
  20 N20           -2.3283    -2.7943    -0.9065 N.3     
  21 C21            3.9960     2.3125     2.5172 C.3     
  22 C22            3.6438     2.8692    -2.5483 C.3     
  23 H23           -1.0316     1.8341    -0.6370 H       
  24 H24            1.0181     3.1948    -0.6389 H       
  25 H25            3.2658    -0.2173     0.6482 H       
  26 H26            1.2058    -1.5624     0.6496 H       
  27 H27            6.0085     3.8397     1.2204 H       
  28 H28           -2.1086    -0.1972    -0.4300 H       
  29 H29           -0.7253    -1.7786    -1.8077 H       
  30 H30           -0.3157    -2.6634    -0.3186 H       
  31 H31           -3.4123     0.0663     1.4619 H       
  32 H32           -3.9927    -0.5384     3.7772 H       
  33 H33           -2.5561    -2.0873     5.0422 H       
  34 H34           -0.5394    -3.0321     3.9917 H       
  35 H35            0.0385    -2.4310     1.6748 H       
  36 H36           -3.0602    -2.2208    -1.2984 H       
  37 H37           -2.2054    -3.6400    -1.4429 H       
  38 H38            4.4892     1.3633     2.7267 H       
  39 H39            4.3783     3.0776     3.1929 H       
  40 H40            2.9213     2.2034     2.6627 H       
  41 H41            4.0897     1.9964    -3.0254 H       
  42 H42            2.5582     2.7709    -2.5530 H       
  43 H43            3.9296     3.7678    -3.0950 H       
@<TRIPOS>BOND
   1    1    2 ar
   2    1    3 ar
   3    1   23 1
   4    2   12 1
   5    2    6 ar
   6    3    4 ar
   7    3   24 1
   8    4    5 ar
   9    4    7 1
  10    5    6 ar
  11    5   25 1
  12    6   26 1
  13    7    8 2
  14    7   11 1
  15    8    9 1
  16    8   21 1
  17    9   10 1
  18    9   27 1
  19   10   11 2
  20   11   22 1
  21   12   13 1
  22   12   14 1
  23   12   28 1
  24   13   20 1
  25   13   29 1
  26   13   30 1
  27   14   15 ar
  28   14   19 ar
  29   15   16 ar
  30   15   31 1
  31   16   17 ar
  32   16   32 1
  33   17   18 ar
  34   17   33 1
  35   18   19 ar
  36   18   34 1
  37   19   35 1
  38   20   36 1
  39   20   37 1
  40   21   38 1
  41   21   39 1
  42   21   40 1
  43   22   41 1
  44   22   42 1
  45   22   43 1

#	End of record

