#	Name: ASD01885089
#	Creating user name:	WinNT
#	Creation time:	15. 06. 2019 19:49

#	Modifying user name:	WinNT
#	Modification time:	15. 06. 2019 19:49

#	Program:	/corina/corina34_cracker 3.40 0067  02.08.2006

@<TRIPOS>MOLECULE
ASD01885089
  53   57    0    0    0
SMALL
NO_CHARGES


@<TRIPOS>ATOM
   1 C1             1.2019     0.4164    -0.8792 C.2     
   2 C2             0.7614    -0.7836    -0.2886 C.2     
   3 C3            -0.4929    -0.8455     0.2338 C.2     
   4 C4            -1.3283     0.2834     0.1775 C.2     
   5 C5            -0.8927     1.4267    -0.3920 C.2     
   6 N6             0.3651     1.5049    -0.9136 N.pl3   
   7 C7             1.0641     2.4925    -1.5361 C.2     
   8 N8             2.2388     2.0077    -1.8460 N.2     
   9 N9             2.3332     0.7843    -1.4582 N.2     
  10 C10            0.5741     3.8894    -1.8178 C.3     
  11 C11            1.6690    -1.9856    -0.2365 C.3     
  12 C12            0.9242     4.8001    -0.6392 C.3     
  13 C13            1.8934     5.9544    -0.9018 C.3     
  14 C14            0.4066     6.2393    -0.6804 C.3     
  15 C15           -0.9852    -2.1197     0.8702 C.3     
  16 N16           -0.7495    -2.0663     2.3192 N.3     
  17 C17           -1.4255    -3.1795     3.0050 C.3     
  18 C18           -0.9049    -3.2603     4.4412 C.3     
  19 N19           -0.9722    -1.9456     5.0727 N.am    
  20 C20           -1.0867    -0.8098     4.3763 C.2     
  21 C21           -1.1939    -0.7824     2.8778 C.3     
  22 C22           -0.9148    -1.8708     6.4687 C.ar    
  23 C23           -2.0834    -1.7367     7.2070 C.ar    
  24 C24           -2.0234    -1.6636     8.5849 C.ar    
  25 C25           -0.8014    -1.7234     9.2294 C.ar    
  26 C26            0.3640    -1.8569     8.4971 C.ar    
  27 C27            0.3103    -1.9363     7.1193 C.ar    
  28 F28            1.2631    -2.9185    -1.1968 F       
  29 F29            2.9845    -1.5883    -0.4992 F       
  30 F30            1.6021    -2.5657     1.0348 F       
  31 O31           -1.1046     0.2423     4.9795 O.2     
  32 H32           -2.3244     0.2355     0.5920 H       
  33 H33           -1.5432     2.2879    -0.4305 H       
  34 H34            1.0513     4.2663    -2.7224 H       
  35 H35           -0.5069     3.8742    -1.9566 H       
  36 H36            0.9750     4.3112     0.3337 H       
  37 H37            2.5824     6.2250    -0.1017 H       
  38 H38            2.2817     6.0650    -1.9143 H       
  39 H39           -0.1833     6.5374    -1.5472 H       
  40 H40            0.1173     6.6974     0.2654 H       
  41 H41           -2.0525    -2.2323     0.6796 H       
  42 H42           -0.4489    -2.9685     0.4459 H       
  43 H43           -2.5011    -3.0031     3.0155 H       
  44 H44           -1.2110    -4.1132     2.4853 H       
  45 H45           -1.5139    -3.9650     5.0075 H       
  46 H46            0.1292    -3.6046     4.4321 H       
  47 H47           -0.5683     0.0191     2.4849 H       
  48 H48           -2.2306    -0.6031     2.5925 H       
  49 H49           -3.0380    -1.6892     6.7042 H       
  50 H50           -2.9318    -1.5593     9.1596 H       
  51 H51           -0.7571    -1.6653    10.3069 H       
  52 H52            1.3168    -1.9033     9.0034 H       
  53 H53            1.2205    -2.0446     6.5482 H       
@<TRIPOS>BOND
   1    1    2 1
   2    1    9 2
   3    1    6 1
   4    2    3 2
   5    2   11 1
   6    3    4 1
   7    3   15 1
   8    4    5 2
   9    4   32 1
  10    5    6 1
  11    5   33 1
  12    6    7 1
  13    7    8 2
  14    7   10 1
  15    8    9 1
  16   10   12 1
  17   10   34 1
  18   10   35 1
  19   11   28 1
  20   11   29 1
  21   11   30 1
  22   12   14 1
  23   12   13 1
  24   12   36 1
  25   13   14 1
  26   13   37 1
  27   13   38 1
  28   14   39 1
  29   14   40 1
  30   15   16 1
  31   15   41 1
  32   15   42 1
  33   16   17 1
  34   16   21 1
  35   17   18 1
  36   17   43 1
  37   17   44 1
  38   18   19 1
  39   18   45 1
  40   18   46 1
  41   19   20 am
  42   19   22 1
  43   20   21 1
  44   20   31 2
  45   21   47 1
  46   21   48 1
  47   22   23 ar
  48   22   27 ar
  49   23   24 ar
  50   23   49 1
  51   24   25 ar
  52   24   50 1
  53   25   26 ar
  54   25   51 1
  55   26   27 ar
  56   26   52 1
  57   27   53 1

#	End of record

