#	Name: ASD01720190
#	Creating user name:	WinNT
#	Creation time:	15. 06. 2019 19:23

#	Modifying user name:	WinNT
#	Modification time:	15. 06. 2019 19:23

#	Program:	/corina/corina34_cracker 3.40 0067  02.08.2006

@<TRIPOS>MOLECULE
ASD01720190
  54   57    0    0    0
SMALL
NO_CHARGES


@<TRIPOS>ATOM
   1 C1            -0.0158     1.3149     0.0093 C.ar    
   2 N2             0.0021    -0.0041     0.0020 N.ar    
   3 C3             1.1302    -0.6880    -0.0125 C.ar    
   4 C4             2.3495    -0.0427    -0.0207 C.ar    
   5 C5             2.3771     1.3549    -0.0135 C.ar    
   6 C6             1.1588     2.0392     0.0019 C.ar    
   7 C7             3.6650     2.0917    -0.0214 C.ar    
   8 C8             3.8886     3.1207    -0.9399 C.ar    
   9 C9             5.1070     3.7775    -0.9064 C.ar    
  10 C10            6.0547     3.3977     0.0261 C.ar    
  11 N11            5.8149     2.4218     0.8807 N.ar    
  12 C12            4.6689     1.7726     0.8908 C.ar    
  13 C13            7.3823     4.1095     0.0665 C.3     
  14 C14            8.3333     3.4731    -0.9491 C.3     
  15 N15            7.9560     3.9971     1.4098 N.pl3   
  16 C16            8.8579     4.9460     1.8588 C.ar    
  17 N17            9.3665     4.8285     3.0760 N.ar    
  18 C18           10.2345     5.7229     3.5362 C.ar    
  19 C19           10.6046     6.7908     2.7182 C.ar    
  20 C20           10.0506     6.8765     1.4548 C.ar    
  21 N21            9.1951     5.9465     1.0582 N.ar    
  22 N22           10.7661     5.5967     4.8145 N.am    
  23 C23           11.5709     6.4840     5.4150 C.2     
  24 O24           11.9452     6.1269     6.6485 O.3     
  25 O25           11.9280     7.5185     4.8872 O.2     
  26 C26           11.3491     4.8404     6.9837 C.3     
  27 C27           10.5317     4.4703     5.7310 C.3     
  28 C28           11.0508     3.1692     5.1156 C.3     
  29 C29            2.8307     3.5055    -1.9419 C.3     
  30 C30            1.0864    -2.1944    -0.0196 C.3     
  31 F31           -0.2417    -2.6217    -0.1238 F       
  32 F32            1.8184    -2.6771    -1.1098 F       
  33 F33            1.6416    -2.6827     1.1680 F       
  34 H34           -0.9624     1.8349     0.0166 H       
  35 H35            3.2691    -0.6089    -0.0322 H       
  36 H36            1.1368     3.1190     0.0076 H       
  37 H37            5.3151     4.5775    -1.6014 H       
  38 H38            4.5095     0.9793     1.6062 H       
  39 H39            7.2383     5.1614    -0.1801 H       
  40 H40            7.9065     3.5568    -1.9485 H       
  41 H41            9.2936     3.9880    -0.9199 H       
  42 H42            8.4774     2.4212    -0.7024 H       
  43 H43            7.7038     3.2575     1.9846 H       
  44 H44           11.3077     7.5338     3.0645 H       
  45 H45           10.3156     7.6908     0.7967 H       
  46 H46           12.1242     4.0975     7.1717 H       
  47 H47           10.6932     4.9370     7.8490 H       
  48 H48            9.4732     4.3834     5.9764 H       
  49 H49           10.9414     2.3579     5.8353 H       
  50 H50           10.4778     2.9381     4.2176 H       
  51 H51           12.1029     3.2848     4.8555 H       
  52 H52            2.1906     4.2780    -1.5158 H       
  53 H53            3.3073     3.8861    -2.8453 H       
  54 H54            2.2293     2.6308    -2.1892 H       
@<TRIPOS>BOND
   1    1    2 ar
   2    1    6 ar
   3    1   34 1
   4    2    3 ar
   5    3   30 1
   6    3    4 ar
   7    4    5 ar
   8    4   35 1
   9    5    6 ar
  10    5    7 1
  11    6   36 1
  12    7    8 ar
  13    7   12 ar
  14    8    9 ar
  15    8   29 1
  16    9   10 ar
  17    9   37 1
  18   10   11 ar
  19   10   13 1
  20   11   12 ar
  21   12   38 1
  22   13   14 1
  23   13   15 1
  24   13   39 1
  25   14   40 1
  26   14   41 1
  27   14   42 1
  28   15   16 1
  29   15   43 1
  30   16   17 ar
  31   16   21 ar
  32   17   18 ar
  33   18   19 ar
  34   18   22 1
  35   19   20 ar
  36   19   44 1
  37   20   21 ar
  38   20   45 1
  39   22   23 am
  40   22   27 1
  41   23   24 1
  42   23   25 2
  43   24   26 1
  44   26   27 1
  45   26   46 1
  46   26   47 1
  47   27   28 1
  48   27   48 1
  49   28   49 1
  50   28   50 1
  51   28   51 1
  52   29   52 1
  53   29   53 1
  54   29   54 1
  55   30   31 1
  56   30   32 1
  57   30   33 1

#	End of record

