#	Name: ASD01941091
#	Creating user name:	WinNT
#	Creation time:	15. 06. 2019 20:13

#	Modifying user name:	WinNT
#	Modification time:	15. 06. 2019 20:13

#	Program:	/corina/corina34_cracker 3.40 0067  02.08.2006

@<TRIPOS>MOLECULE
ASD01941091
  52   55    0    0    0
SMALL
NO_CHARGES


@<TRIPOS>ATOM
   1 C1             0.0565     0.8924    -0.2033 C.ar    
   2 C2            -0.9786     0.1741    -0.7898 C.ar    
   3 C3            -2.2320     0.1616    -0.2028 C.ar    
   4 C4            -2.4635     0.8642     0.9723 C.ar    
   5 C5            -1.4486     1.5806     1.5657 C.ar    
   6 C6            -0.1756     1.5983     0.9882 C.ar    
   7 F7            -3.2357    -0.5376    -0.7764 F       
   8 F8            -0.7615    -0.5118    -1.9334 F       
   9 C9             0.9135     2.3632     1.6199 C.2     
  10 O10            2.0452     2.2853     1.1811 O.2     
  11 N11            0.6559     3.1491     2.6840 N.am    
  12 N12            1.3171     0.9073    -0.7902 N.pl3   
  13 C13            2.1920    -0.1666    -0.5953 C.ar    
  14 C14            3.4781    -0.1225    -1.1233 C.ar    
  15 C15            4.3399    -1.1863    -0.9284 C.ar    
  16 C16            3.9233    -2.2925    -0.2099 C.ar    
  17 C17            2.6445    -2.3385     0.3157 C.ar    
  18 C18            1.7806    -1.2765     0.1304 C.ar    
  19 F19            3.8845     0.9575    -1.8258 F       
  20 I20            5.2318    -3.9023     0.0825 I       
  21 C21            1.4500     3.9662     3.6139 C.3     
  22 C22            0.2097     4.8485     3.8124 C.3     
  23 C23           -0.5436     3.5724     3.4222 C.3     
  24 C24           -0.0164     5.2969     5.2576 C.3     
  25 O25            0.0874     5.9095     2.8630 O.3     
  26 H26            0.8015     5.9467     5.5687 H       
  27 N27           -1.2863     6.0296     5.3500 N.3     
  28 C28           -1.6550     6.2701     6.7527 C.3     
  29 C29           -2.9496     7.0859     6.8017 C.3     
  30 O30           -3.9729     6.3904     6.0846 O.3     
  31 C31           -3.6472     6.1399     4.7147 C.3     
  32 C32           -2.3597     5.3146     4.6445 C.3     
  33 H33           -3.4449     0.8490     1.4229 H       
  34 H34           -1.6347     2.1252     2.4796 H       
  35 H35            1.5896     1.6623    -1.3347 H       
  36 H36            5.3388    -1.1535    -1.3378 H       
  37 H37            2.3226    -3.2039     0.8758 H       
  38 H38            0.7826    -1.3137     0.5416 H       
  39 H39            1.7503     3.4306     4.5145 H       
  40 H40            2.2801     4.4856     3.1352 H       
  41 H41           -1.4069     3.7563     2.7827 H       
  42 H42           -0.7763     2.9291     4.2707 H       
  43 H43           -0.0533     4.4227     5.9077 H       
  44 H44            0.1753     5.6258     1.9427 H       
  45 H45           -1.8065     5.3163     7.2579 H       
  46 H46           -0.8574     6.8230     7.2490 H       
  47 H47           -3.2575     7.2179     7.8390 H       
  48 H48           -2.7829     8.0610     6.3440 H       
  49 H49           -4.4598     5.5877     4.2425 H       
  50 H50           -3.5008     7.0875     4.1963 H       
  51 H51           -2.0765     5.1699     3.6019 H       
  52 H52           -2.5225     4.3454     5.1160 H       
@<TRIPOS>BOND
   1    1    2 ar
   2    1   12 1
   3    1    6 ar
   4    2    3 ar
   5    2    8 1
   6    3    4 ar
   7    3    7 1
   8    4    5 ar
   9    4   33 1
  10    5    6 ar
  11    5   34 1
  12    6    9 1
  13    9   10 2
  14    9   11 am
  15   11   21 1
  16   11   23 1
  17   12   13 1
  18   12   35 1
  19   13   14 ar
  20   13   18 ar
  21   14   15 ar
  22   14   19 1
  23   15   16 ar
  24   15   36 1
  25   16   17 ar
  26   16   20 1
  27   17   18 ar
  28   17   37 1
  29   18   38 1
  30   21   22 1
  31   21   39 1
  32   21   40 1
  33   22   23 1
  34   22   24 1
  35   22   25 1
  36   23   41 1
  37   23   42 1
  38   24   26 1
  39   24   27 1
  40   24   43 1
  41   25   44 1
  42   27   28 1
  43   27   32 1
  44   28   29 1
  45   28   45 1
  46   28   46 1
  47   29   30 1
  48   29   47 1
  49   29   48 1
  50   30   31 1
  51   31   32 1
  52   31   49 1
  53   31   50 1
  54   32   51 1
  55   32   52 1

#	End of record

