#	Name: ASD01871033
#	Creating user name:	WinNT
#	Creation time:	15. 06. 2019 19:39

#	Modifying user name:	WinNT
#	Modification time:	15. 06. 2019 19:39

#	Program:	/corina/corina34_cracker 3.40 0067  02.08.2006

@<TRIPOS>MOLECULE
ASD01871033
  26   28    0    0    0
SMALL
NO_CHARGES


@<TRIPOS>ATOM
   1 C1            -0.0166     1.3749     0.0096 C.2     
   2 C2             0.0021    -0.0041     0.0020 C.2     
   3 S3            -1.6688    -0.5624     0.0150 S.3     
   4 C4            -2.2267     1.0524     0.0289 C.2     
   5 N5            -1.2327     1.8850     0.0296 N.2     
   6 O6            -3.5307     1.4138     0.0433 O.3     
   7 C7            -4.4646     0.4293     0.0474 C.ar    
   8 C8            -5.8132     0.7607     0.0621 C.ar    
   9 N9            -4.0818    -0.8369     0.0320 N.ar    
  10 C10           -4.9563    -1.8245     0.0353 C.ar    
  11 C11           -6.3133    -1.5683     0.0547 C.ar    
  12 C12           -6.7558    -0.2530     0.0661 C.ar    
  13 C13            1.2113     2.2036     0.0023 C.2     
  14 C14            2.4297     1.8942     0.6408 C.2     
  15 N15            3.2696     2.8663     0.4040 N.2     
  16 N16            2.6286     3.8268    -0.3875 N.pl3   
  17 C17            1.3720     3.4045    -0.6293 C.2     
  18 C18            1.1697    -0.8330    -0.0140 C.1     
  19 N19            2.0959    -1.4906    -0.0267 N.1     
  20 H20           -6.1223     1.7955     0.0705 H       
  21 H21           -4.6067    -2.8463     0.0224 H       
  22 H22           -7.0226    -2.3828     0.0566 H       
  23 H23           -7.8115    -0.0255     0.0813 H       
  24 H24            2.6330     1.0084     1.2242 H       
  25 H25            3.0225     4.6527    -0.7094 H       
  26 H26            0.6253     3.9241    -1.2115 H       
@<TRIPOS>BOND
   1    1    2 2
   2    1   13 1
   3    1    5 1
   4    2    3 1
   5    2   18 1
   6    3    4 1
   7    4    5 2
   8    4    6 1
   9    6    7 1
  10    7    8 ar
  11    7    9 ar
  12    8   12 ar
  13    8   20 1
  14    9   10 ar
  15   10   11 ar
  16   10   21 1
  17   11   12 ar
  18   11   22 1
  19   12   23 1
  20   13   14 1
  21   13   17 2
  22   14   15 2
  23   14   24 1
  24   15   16 1
  25   16   17 1
  26   16   25 1
  27   17   26 1
  28   18   19 3

#	End of record

