#	Name: ASD09116324
#	Creating user name:	WinNT
#	Creation time:	15. 06. 2019 21:21

#	Modifying user name:	WinNT
#	Modification time:	15. 06. 2019 21:21

#	Program:	/corina/corina34_cracker 3.40 0067  02.08.2006

@<TRIPOS>MOLECULE
ASD09116324
  78   85    0    0    0
SMALL
NO_CHARGES


@<TRIPOS>ATOM
   1 N1            -0.0945     1.6490    -0.3066 N.2     
   2 N2            -0.1163     0.3046    -0.7120 N.pl3   
   3 C3             1.1614     2.0253    -0.2941 C.2     
   4 N4             1.9318     0.9968    -0.6678 N.2     
   5 C5             1.1790    -0.0513    -0.9244 C.2     
   6 N6             1.6249    -1.2924    -1.3355 N.pl3   
   7 C7            -1.2402    -0.5032    -0.8654 C.ar    
   8 N8             1.6213     3.2952     0.0533 N.pl3   
   9 C9             2.9970     3.5439     0.1342 C.ar    
  10 C10            3.4912     4.8112    -0.1454 C.ar    
  11 C11            3.8665     2.5245     0.4996 C.ar    
  12 C12            5.2230     2.7697     0.5793 C.ar    
  13 C13            5.7178     4.0356     0.2946 C.ar    
  14 C14            4.8477     5.0563    -0.0657 C.ar    
  15 N15           -2.4377     0.0058    -0.6146 N.ar    
  16 C16           -3.5212    -0.7459    -0.7544 C.ar    
  17 C17           -3.3883    -2.0671    -1.1863 C.ar    
  18 C18           -2.1228    -2.5610    -1.4275 C.ar    
  19 N19           -1.0821    -1.7562    -1.2628 N.ar    
  20 N20            7.0928     4.2842     0.3759 N.3     
  21 C21            9.3460     3.6115    -0.3055 C.3     
  22 C22            7.8467     3.3603    -0.4829 C.3     
  23 C23           -4.8747    -0.2373    -0.4383 C.ar    
  24 C24           -5.7065    -1.0012     0.3827 C.ar    
  25 C25           -5.1869    -2.2865     0.9657 C.3     
  26 C26           -5.1742    -3.4052    -0.0726 C.3     
  27 C27           -4.6162    -2.9040    -1.4017 C.3     
  28 C28           -5.3241     0.9765    -0.9467 C.ar    
  29 C29           -6.6014     1.4112    -0.6503 C.ar    
  30 C30           -7.4296     0.6413     0.1461 C.ar    
  31 C31           -6.9832    -0.5634     0.6615 C.ar    
  32 C32            7.3964     5.6813     0.0356 C.3     
  33 C33            8.8957     5.9325     0.2131 C.3     
  34 N34            9.6496     5.0085    -0.6457 N.3     
  35 C35           11.0928     5.2694    -0.5604 C.3     
  36 C36           11.8653     4.3483    -1.5321 C.3     
  37 C37           12.5801     5.3242    -2.5160 C.3     
  38 C38           11.4136     6.7151    -1.0486 C.3     
  39 C39           12.9145     6.9265    -0.6829 C.3     
  40 C40           13.6870     6.0054    -1.6547 C.3     
  41 C41           11.5224     6.4810    -2.5968 C.3     
  42 H42            2.5739    -1.4501    -1.4597 H       
  43 H43            0.9891    -2.0062    -1.5000 H       
  44 H44            0.9882     4.0063     0.2389 H       
  45 H45            2.8146     5.6050    -0.4256 H       
  46 H46            3.4817     1.5401     0.7217 H       
  47 H47            5.8993     1.9770     0.8635 H       
  48 H48            5.2326     6.0408    -0.2874 H       
  49 H49           -1.9829    -3.5827    -1.7486 H       
  50 H50            9.6267     3.4202     0.7303 H       
  51 H51            9.9064     2.9470    -0.9631 H       
  52 H52            7.6146     2.3326    -0.2034 H       
  53 H53            7.5712     3.5252    -1.5246 H       
  54 H54           -4.1722    -2.1277     1.3310 H       
  55 H55           -5.8227    -2.5821     1.8003 H       
  56 H56           -4.5541    -4.2248     0.2906 H       
  57 H57           -6.1916    -3.7659    -0.2239 H       
  58 H58           -5.3745    -2.3044    -1.9053 H       
  59 H59           -4.3618    -3.7586    -2.0285 H       
  60 H60           -4.6776     1.5766    -1.5698 H       
  61 H61           -6.9540     2.3543    -1.0411 H       
  62 H62           -8.4304     0.9819     0.3672 H       
  63 H63           -7.6353    -1.1601     1.2820 H       
  64 H64            7.1158     5.8725    -1.0001 H       
  65 H65            6.8360     6.3458     0.6933 H       
  66 H66            9.1279     6.9601    -0.0665 H       
  67 H67            9.1713     5.7675     1.2547 H       
  68 H68           11.4446     5.1246     0.4610 H       
  69 H69           12.5983     3.7521    -0.9887 H       
  70 H70           11.1743     3.7018    -2.0732 H       
  71 H71           12.9100     4.8916    -3.4605 H       
  72 H72           10.7276     7.4938    -0.7152 H       
  73 H73           13.2003     7.9670    -0.8375 H       
  74 H74           13.0995     6.6301     0.3496 H       
  75 H75           14.2518     5.2561    -1.0999 H       
  76 H76           14.3526     6.5930    -2.2870 H       
  77 H77           11.9127     7.3562    -3.1161 H       
  78 H78           10.5793     6.1433    -3.0264 H       
@<TRIPOS>BOND
   1    1    2 1
   2    1    3 2
   3    2    7 1
   4    2    5 1
   5    3    4 1
   6    3    8 1
   7    4    5 2
   8    5    6 1
   9    6   42 1
  10    6   43 1
  11    7   15 ar
  12    7   19 ar
  13    8    9 1
  14    8   44 1
  15    9   10 ar
  16    9   11 ar
  17   10   14 ar
  18   10   45 1
  19   11   12 ar
  20   11   46 1
  21   12   13 ar
  22   12   47 1
  23   13   14 ar
  24   13   20 1
  25   14   48 1
  26   15   16 ar
  27   16   17 ar
  28   16   23 1
  29   17   18 ar
  30   17   27 1
  31   18   19 ar
  32   18   49 1
  33   20   32 1
  34   20   22 1
  35   21   22 1
  36   21   34 1
  37   21   50 1
  38   21   51 1
  39   22   52 1
  40   22   53 1
  41   23   24 ar
  42   23   28 ar
  43   24   25 1
  44   24   31 ar
  45   25   26 1
  46   25   54 1
  47   25   55 1
  48   26   27 1
  49   26   56 1
  50   26   57 1
  51   27   58 1
  52   27   59 1
  53   28   29 ar
  54   28   60 1
  55   29   30 ar
  56   29   61 1
  57   30   31 ar
  58   30   62 1
  59   31   63 1
  60   32   33 1
  61   32   64 1
  62   32   65 1
  63   33   34 1
  64   33   66 1
  65   33   67 1
  66   34   35 1
  67   35   36 1
  68   35   38 1
  69   35   68 1
  70   36   37 1
  71   36   69 1
  72   36   70 1
  73   37   40 1
  74   37   41 1
  75   37   71 1
  76   38   39 1
  77   38   41 1
  78   38   72 1
  79   39   40 1
  80   39   73 1
  81   39   74 1
  82   40   75 1
  83   40   76 1
  84   41   77 1
  85   41   78 1

#	End of record

