#	Name: ASD01200019
#	Creating user name:	WinNT
#	Creation time:	15. 06. 2019 19:08

#	Modifying user name:	WinNT
#	Modification time:	15. 06. 2019 19:08

#	Program:	/corina/corina34_cracker 3.40 0067  02.08.2006

@<TRIPOS>MOLECULE
ASD01200019
  54   57    0    0    0
SMALL
NO_CHARGES


@<TRIPOS>ATOM
   1 C1            -0.6794     1.5546    -0.3238 C.3     
   2 C2            -0.2386     0.1655     0.1420 C.3     
   3 C3            -1.0038     1.0851     1.0958 C.3     
   4 C4            -0.9755    -1.0230    -0.4195 C.2     
   5 N5            -0.6131    -2.2710    -0.0623 N.am    
   6 C6            -1.2257    -3.3691    -0.6547 C.2     
   7 S7            -0.8655    -5.0020    -0.2984 S.3     
   8 C8            -2.0705    -5.5341    -1.4682 C.2     
   9 C9            -2.6259    -4.4497    -2.0124 C.2     
  10 N10           -2.1573    -3.3042    -1.5537 N.2     
  11 O11           -1.8948    -0.8565    -1.1929 O.2     
  12 C12            1.2297    -0.0459     0.4077 C.ar    
  13 C13            0.4042     2.6228    -0.4842 C.3     
  14 C14            1.3376     2.2340    -1.6325 C.3     
  15 C15            2.4212     3.3021    -1.7929 C.3     
  16 C16            1.7667     4.6502    -2.1017 C.3     
  17 C17            0.8334     5.0390    -0.9534 C.3     
  18 C18           -0.2502     3.9708    -0.7930 C.3     
  19 C19            1.9370    -0.9800    -0.3253 C.ar    
  20 C20            3.2841    -1.1740    -0.0815 C.ar    
  21 C21            3.9234    -0.4335     0.8948 C.ar    
  22 C22            3.2159     0.5016     1.6274 C.ar    
  23 C23            1.8703     0.6986     1.3807 C.ar    
  24 S24            5.6398    -0.6816     1.2062 S.o2    
  25 O25            5.8768     0.0037     2.4283 O.2     
  26 O26            5.8137    -2.0886     1.1097 O.2     
  27 C27            6.4751     0.1588    -0.1673 C.3     
  28 C28            3.9129     1.3087     2.6922 C.3     
  29 F29            3.0366     2.2789     3.1903 F       
  30 F30            4.3118     0.4625     3.7324 F       
  31 F31            5.0372     1.9339     2.1425 F       
  32 H32           -1.5021     1.6088    -1.0367 H       
  33 H33           -0.4453     1.5371     1.9154 H       
  34 H34           -2.0403     0.8304     1.3171 H       
  35 H35            0.0754    -2.4029     0.6081 H       
  36 H36           -2.3162    -6.5589    -1.7042 H       
  37 H37           -3.3993    -4.5048    -2.7643 H       
  38 H38            0.9775     2.7004     0.4396 H       
  39 H39            1.8038     1.2736    -1.4125 H       
  40 H40            0.7643     2.1564    -2.5563 H       
  41 H41            2.9945     3.3797    -0.8691 H       
  42 H42            3.0861     3.0251    -2.6110 H       
  43 H43            2.5387     5.4111    -2.2160 H       
  44 H44            1.1934     4.5726    -3.0255 H       
  45 H45            1.4067     5.1166    -0.0296 H       
  46 H46            0.3672     5.9994    -1.1734 H       
  47 H47           -0.8235     3.8933    -1.7168 H       
  48 H48           -0.9151     4.2478     0.0251 H       
  49 H49            1.4375    -1.5587    -1.0882 H       
  50 H50            3.8367    -1.9045    -0.6538 H       
  51 H51            1.3177     1.4290     1.9530 H       
  52 H52            6.2805     1.2298    -0.1102 H       
  53 H53            7.5485    -0.0193    -0.1033 H       
  54 H54            6.0982    -0.2290    -1.1136 H       
@<TRIPOS>BOND
   1    1    2 1
   2    1   13 1
   3    1    3 1
   4    1   32 1
   5    2    3 1
   6    2    4 1
   7    2   12 1
   8    3   33 1
   9    3   34 1
  10    4    5 am
  11    4   11 2
  12    5    6 1
  13    5   35 1
  14    6    7 1
  15    6   10 2
  16    7    8 1
  17    8    9 2
  18    8   36 1
  19    9   10 1
  20    9   37 1
  21   12   19 ar
  22   12   23 ar
  23   13   14 1
  24   13   18 1
  25   13   38 1
  26   14   15 1
  27   14   39 1
  28   14   40 1
  29   15   16 1
  30   15   41 1
  31   15   42 1
  32   16   17 1
  33   16   43 1
  34   16   44 1
  35   17   18 1
  36   17   45 1
  37   17   46 1
  38   18   47 1
  39   18   48 1
  40   19   20 ar
  41   19   49 1
  42   20   21 ar
  43   20   50 1
  44   21   22 ar
  45   21   24 1
  46   22   23 ar
  47   22   28 1
  48   23   51 1
  49   24   25 2
  50   24   26 2
  51   24   27 1
  52   27   52 1
  53   27   53 1
  54   27   54 1
  55   28   29 1
  56   28   30 1
  57   28   31 1

#	End of record

