#	Name: ASD00170062
#	Creating user name:	WinNT
#	Creation time:	15. 06. 2019 18:31

#	Modifying user name:	WinNT
#	Modification time:	15. 06. 2019 18:31

#	Program:	/corina/corina34_cracker 3.40 0067  02.08.2006

@<TRIPOS>MOLECULE
ASD00170062
  33   35    0    0    0
SMALL
NO_CHARGES


@<TRIPOS>ATOM
   1 C1             0.0144     1.3185    -0.0552 C.2     
   2 C2             0.0204    -0.0181    -0.0735 C.2     
   3 C3            -1.3168    -0.5799     0.0124 C.2     
   4 C4            -2.2999     0.3731     0.0941 C.2     
   5 S5            -1.6253     1.9358     0.0615 S.3     
   6 N6            -3.6502     0.1026     0.1841 N.pl3   
   7 C7            -1.5875    -2.0173     0.0110 C.2     
   8 C8            -1.8372    -2.7216    -1.2654 C.ar    
   9 O9            -1.6073    -2.6341     1.0607 O.2     
  10 C10           -1.9783    -4.1102    -1.2837 C.ar    
  11 C11           -2.2110    -4.7611    -2.4772 C.ar    
  12 C12           -2.3046    -4.0402    -3.6554 C.ar    
  13 C13           -2.1656    -2.6629    -3.6438 C.ar    
  14 C14           -1.9384    -1.9998    -2.4560 C.ar    
  15 C15            1.2607     2.1799    -0.1319 C.3     
  16 C16            2.4803     1.3110     0.1869 C.3     
  17 C17            2.4273     0.0424    -0.6696 C.3     
  18 C18            1.2884    -0.8512    -0.1727 C.3     
  19 I19           -2.6576    -5.0379    -5.4635 I       
  20 H20           -3.9671    -0.8118     0.1173 H       
  21 H21           -4.2823     0.8267     0.3142 H       
  22 H22           -1.9051    -4.6737    -0.3653 H       
  23 H23           -2.3200    -5.8355    -2.4928 H       
  24 H24           -2.2397    -2.1060    -4.5662 H       
  25 H25           -1.8305    -0.9252    -2.4481 H       
  26 H26            1.3584     2.5926    -1.1360 H       
  27 H27            1.1898     2.9905     0.5933 H       
  28 H28            3.3916     1.8651    -0.0381 H       
  29 H29            2.4685     1.0392     1.2424 H       
  30 H30            2.2511     0.3128    -1.7107 H       
  31 H31            3.3731    -0.4931    -0.5864 H       
  32 H32            1.5406    -1.2526     0.8088 H       
  33 H33            1.1330    -1.6697    -0.8755 H       
@<TRIPOS>BOND
   1    1    2 2
   2    1   15 1
   3    1    5 1
   4    2    3 1
   5    2   18 1
   6    3    4 2
   7    3    7 1
   8    4    5 1
   9    4    6 1
  10    6   20 1
  11    6   21 1
  12    7    8 1
  13    7    9 2
  14    8   10 ar
  15    8   14 ar
  16   10   11 ar
  17   10   22 1
  18   11   12 ar
  19   11   23 1
  20   12   13 ar
  21   12   19 1
  22   13   14 ar
  23   13   24 1
  24   14   25 1
  25   15   16 1
  26   15   26 1
  27   15   27 1
  28   16   17 1
  29   16   28 1
  30   16   29 1
  31   17   18 1
  32   17   30 1
  33   17   31 1
  34   18   32 1
  35   18   33 1

#	End of record

