#	Name: ASD03910116
#	Creating user name:	WinNT
#	Creation time:	15. 06. 2019 20:47

#	Modifying user name:	WinNT
#	Modification time:	15. 06. 2019 20:47

#	Program:	/corina/corina34_cracker 3.40 0067  02.08.2006

@<TRIPOS>MOLECULE
ASD03910116
  42   43    0    0    0
SMALL
NO_CHARGES


@<TRIPOS>ATOM
   1 O1             0.2884     1.3640    -0.0332 O.3     
   2 C2             0.2981     0.0122    -0.1254 C.ar    
   3 C3             0.6599    -0.7646     0.9876 C.ar    
   4 C4             0.6685    -2.1533     0.8882 C.ar    
   5 C5             0.3173    -2.7633    -0.3175 C.ar    
   6 C6            -0.0419    -1.9770    -1.4213 C.ar    
   7 C7            -0.0553    -0.6048    -1.3193 C.ar    
   8 C8             0.3247    -4.2285    -0.4297 C.2     
   9 O9             0.0195    -4.7580    -1.4773 O.2     
  10 C10            1.0299    -0.1113     2.2571 C.2     
  11 O11            1.0221     1.1007     2.3415 O.2     
  12 O12            1.3766    -0.8586     3.3233 O.3     
  13 O13            3.9031     6.2142    -0.6277 O.3     
  14 C14            1.4633     1.9987    -0.2186 C.2     
  15 C15            2.7281     5.5795    -0.4423 C.2     
  16 O16            1.7083     6.2216    -0.2913 O.2     
  17 O17            2.4831     1.3566    -0.3696 O.2     
  18 C18            2.6812     4.1053    -0.4229 C.2     
  19 C19            1.5103     3.4728    -0.2381 C.2     
  20 C20            3.8621     7.5638    -0.7407 C.ar    
  21 C21            3.8828     8.3656     0.4124 C.ar    
  22 C22            3.8406     9.7520     0.2914 C.ar    
  23 C23            3.7779    10.3348    -0.9757 C.ar    
  24 C24            3.7578     9.5236    -2.1191 C.ar    
  25 C25            3.8054     8.1539    -1.9975 C.ar    
  26 C26            3.7325    11.7974    -1.1108 C.2     
  27 O27            3.6781    12.3033    -2.2118 O.2     
  28 C28            3.9486     7.7410     1.7469 C.2     
  29 O29            3.9851     6.5309     1.8501 O.2     
  30 O30            3.9684     8.5123     2.8515 O.3     
  31 H31            0.9461    -2.7561     1.7402 H       
  32 H32           -0.3134    -2.4500    -2.3535 H       
  33 H33           -0.3372    -0.0049    -2.1719 H       
  34 H34            0.6018    -4.8339     0.4207 H       
  35 H35            1.6111    -0.3856     4.1334 H       
  36 H36            3.5881     3.5344    -0.5571 H       
  37 H37            0.6034     4.0438    -0.1038 H       
  38 H38            3.8558    10.3740     1.1741 H       
  39 H39            3.7093     9.9756    -3.0988 H       
  40 H40            3.7896     7.5346    -2.8822 H       
  41 H41            3.7477    12.4218    -0.2298 H       
  42 H42            4.0119     8.0575     3.7037 H       
@<TRIPOS>BOND
   1    1    2 1
   2    1   14 1
   3    2    3 ar
   4    2    7 ar
   5    3    4 ar
   6    3   10 1
   7    4    5 ar
   8    4   31 1
   9    5    6 ar
  10    5    8 1
  11    6    7 ar
  12    6   32 1
  13    7   33 1
  14    8    9 2
  15    8   34 1
  16   10   11 2
  17   10   12 1
  18   12   35 1
  19   13   15 1
  20   13   20 1
  21   14   17 2
  22   14   19 1
  23   15   16 2
  24   15   18 1
  25   18   19 2
  26   18   36 1
  27   19   37 1
  28   20   21 ar
  29   20   25 ar
  30   21   22 ar
  31   21   28 1
  32   22   23 ar
  33   22   38 1
  34   23   24 ar
  35   23   26 1
  36   24   25 ar
  37   24   39 1
  38   25   40 1
  39   26   27 2
  40   26   41 1
  41   28   29 2
  42   28   30 1
  43   30   42 1

#	End of record

