#	Name: ASD01913044
#	Creating user name:	WinNT
#	Creation time:	15. 06. 2019 20:00

#	Modifying user name:	WinNT
#	Modification time:	15. 06. 2019 20:00

#	Program:	/corina/corina34_cracker 3.40 0067  02.08.2006

@<TRIPOS>MOLECULE
ASD01913044
  28   28    0    0    0
SMALL
NO_CHARGES


@<TRIPOS>ATOM
   1 C1            -0.0169     1.3945     0.0097 C.ar    
   2 C2             0.0021    -0.0041     0.0020 C.ar    
   3 C3            -1.2600    -0.7609     0.0095 C.2     
   4 C4            -2.5774    -0.0292     0.0255 C.3     
   5 O5            -1.2400    -1.9733     0.0028 O.2     
   6 C6            -3.7064    -1.0274     0.0305 C.2     
   7 C7            -5.1353    -0.5487     0.0462 C.3     
   8 O8            -3.4661    -2.2108     0.0219 O.2     
   9 C9            -6.0771    -1.7545     0.0483 C.3     
  10 C10            1.2264    -0.6794    -0.0133 C.ar    
  11 C11            2.4048     0.0370    -0.0207 C.ar    
  12 C12            2.3777     1.4206    -0.0130 C.ar    
  13 C13            1.1697     2.0964     0.0021 C.ar    
  14 C14            3.7255    -0.6887    -0.0367 C.3     
  15 H15           -0.9586     1.9232     0.0171 H       
  16 H16           -2.6373     0.5916     0.9194 H       
  17 H17           -2.6536     0.6012    -0.8604 H       
  18 H18           -5.3084     0.0492     0.9410 H       
  19 H19           -5.3247     0.0587    -0.8389 H       
  20 H20           -7.1106    -1.4082     0.0597 H       
  21 H21           -5.9040    -2.3523    -0.8465 H       
  22 H22           -5.8876    -2.3619     0.9334 H       
  23 H23            1.2492    -1.7591    -0.0190 H       
  24 H24            3.3039     1.9760    -0.0189 H       
  25 H25            1.1567     3.1763     0.0077 H       
  26 H26            4.0343    -0.8585    -1.0682 H       
  27 H27            4.4773    -0.0863     0.4732 H       
  28 H28            3.6201    -1.6462     0.4733 H       
@<TRIPOS>BOND
   1    1    2 ar
   2    1   13 ar
   3    1   15 1
   4    2    3 1
   5    2   10 ar
   6    3    4 1
   7    3    5 2
   8    4    6 1
   9    4   16 1
  10    4   17 1
  11    6    7 1
  12    6    8 2
  13    7    9 1
  14    7   18 1
  15    7   19 1
  16    9   20 1
  17    9   21 1
  18    9   22 1
  19   10   11 ar
  20   10   23 1
  21   11   12 ar
  22   11   14 1
  23   12   13 ar
  24   12   24 1
  25   13   25 1
  26   14   26 1
  27   14   27 1
  28   14   28 1

#	End of record

