#	Name: ASD03240213
#	Creating user name:	WinNT
#	Creation time:	15. 06. 2019 20:34

#	Modifying user name:	WinNT
#	Modification time:	15. 06. 2019 20:34

#	Program:	/corina/corina34_cracker 3.40 0067  02.08.2006

@<TRIPOS>MOLECULE
ASD03240213
  71   78    0    0    0
SMALL
NO_CHARGES


@<TRIPOS>ATOM
   1 C1            -0.5229     1.0482     0.2884 C.2     
   2 N2            -0.5235    -0.2970     0.3457 N.am    
   3 C3             0.7942    -0.7404     0.2602 C.ar    
   4 C4             1.5963     0.3970     0.1483 C.ar    
   5 N5             0.7411     1.4962     0.1692 N.am    
   6 C6             1.3772    -1.9985     0.2676 C.ar    
   7 C7             2.7489    -2.1211     0.1642 C.ar    
   8 C8             3.5442    -0.9933     0.0533 C.ar    
   9 C9             2.9726     0.2639     0.0450 C.ar    
  10 O10           -1.5147     1.7519     0.3323 O.2     
  11 C11            0.8793     5.0220    -1.2128 C.3     
  12 C12            0.5001     3.5404    -1.1549 C.3     
  13 C13            1.1477     2.9006     0.0763 C.3     
  14 C14            0.6907     3.6498     1.3310 C.3     
  15 C15            1.0643     5.1281     1.2011 C.3     
  16 C16            0.6432     7.1439    -0.0717 C.3     
  17 C17           -0.0547     7.8246     1.0775 C.ar    
  18 C18            0.6154     8.0207     2.2718 C.ar    
  19 C19           -0.0181     8.6437     3.3274 C.ar    
  20 C20           -1.3368     9.0762     3.1885 C.ar    
  21 C21           -2.0071     8.8757     1.9820 C.ar    
  22 C22           -1.3611     8.2561     0.9319 C.ar    
  23 N23           -3.4227    11.5595     5.0752 N.ar    
  24 C24           -2.8074    10.9533     4.0776 C.ar    
  25 C25           -2.0228     9.7453     4.3181 C.ar    
  26 N26           -1.9216     9.2457     5.5356 N.ar    
  27 C27           -2.5413     9.8502     6.5559 C.ar    
  28 C28           -2.4491     9.3401     7.8583 C.ar    
  29 C29           -3.0962     9.9814     8.8912 C.ar    
  30 C30           -3.8569    11.1514     8.6647 C.ar    
  31 C31           -3.9721    11.6864     7.3895 C.ar    
  32 C32           -3.3283    11.0627     6.3151 C.ar    
  33 C33           -3.9697    10.7022    10.7915 C.2     
  34 N34           -3.1906     9.7268    10.2496 N.pl3   
  35 N35           -4.3591    11.5331     9.8708 N.2     
  36 C36           -2.9119    11.5022     2.7056 C.ar    
  37 C37           -4.1475    11.9179     2.2102 C.ar    
  38 C38           -4.2385    12.4283     0.9314 C.ar    
  39 C39           -3.1074    12.5278     0.1412 C.ar    
  40 C40           -1.8789    12.1171     0.6271 C.ar    
  41 C41           -1.7742    11.6108     1.9064 C.ar    
  42 N42            0.4198     5.6942     0.0092 N.3     
  43 H43           -1.3078    -0.8612     0.4321 H       
  44 H44            0.7600    -2.8805     0.3544 H       
  45 H45            3.2032    -3.1009     0.1703 H       
  46 H46            4.6162    -1.0971    -0.0268 H       
  47 H47            3.5962     1.1414    -0.0414 H       
  48 H48            1.9621     5.1168    -1.2943 H       
  49 H49            0.4081     5.4838    -2.0805 H       
  50 H50           -0.5835     3.4445    -1.0873 H       
  51 H51            0.8551     3.0385    -2.0550 H       
  52 H52            2.2326     2.9608    -0.0101 H       
  53 H53           -0.3900     3.5555     1.4377 H       
  54 H54            1.1817     3.2260     2.2070 H       
  55 H55            0.7275     5.6670     2.0866 H       
  56 H56            2.1462     5.2225     1.1083 H       
  57 H57            0.2447     7.5209    -1.0135 H       
  58 H58            1.7123     7.3501    -0.0210 H       
  59 H59            1.6364     7.6850     2.3782 H       
  60 H60            0.5059     8.7959     4.2594 H       
  61 H61           -3.0284     9.2081     1.8686 H       
  62 H62           -1.8777     8.1039    -0.0042 H       
  63 H63           -1.8730     8.4472     8.0511 H       
  64 H64           -4.5558    12.5805     7.2270 H       
  65 H65           -4.2281    10.7752    11.8376 H       
  66 H66           -2.7777     8.9898    10.7264 H       
  67 H67           -5.0314    11.8401     2.8259 H       
  68 H68           -5.1948    12.7506     0.5466 H       
  69 H69           -3.1837    12.9273    -0.8593 H       
  70 H70           -0.9995    12.1969     0.0054 H       
  71 H71           -0.8138    11.2950     2.2864 H       
@<TRIPOS>BOND
   1    1    2 am
   2    1    5 am
   3    1   10 2
   4    2    3 1
   5    2   43 1
   6    3    4 ar
   7    3    6 ar
   8    4    5 1
   9    4    9 ar
  10    5   13 1
  11    6    7 ar
  12    6   44 1
  13    7    8 ar
  14    7   45 1
  15    8    9 ar
  16    8   46 1
  17    9   47 1
  18   11   12 1
  19   11   42 1
  20   11   48 1
  21   11   49 1
  22   12   13 1
  23   12   50 1
  24   12   51 1
  25   13   14 1
  26   13   52 1
  27   14   15 1
  28   14   53 1
  29   14   54 1
  30   15   42 1
  31   15   55 1
  32   15   56 1
  33   16   17 1
  34   16   42 1
  35   16   57 1
  36   16   58 1
  37   17   18 ar
  38   17   22 ar
  39   18   19 ar
  40   18   59 1
  41   19   20 ar
  42   19   60 1
  43   20   21 ar
  44   20   25 1
  45   21   22 ar
  46   21   61 1
  47   22   62 1
  48   23   24 ar
  49   23   32 ar
  50   24   25 ar
  51   24   36 1
  52   25   26 ar
  53   26   27 ar
  54   27   28 ar
  55   27   32 ar
  56   28   29 ar
  57   28   63 1
  58   29   30 ar
  59   29   34 1
  60   30   31 ar
  61   30   35 1
  62   31   32 ar
  63   31   64 1
  64   33   34 1
  65   33   35 2
  66   33   65 1
  67   34   66 1
  68   36   37 ar
  69   36   41 ar
  70   37   38 ar
  71   37   67 1
  72   38   39 ar
  73   38   68 1
  74   39   40 ar
  75   39   69 1
  76   40   41 ar
  77   40   70 1
  78   41   71 1

#	End of record

