#	Name: ASD00960225
#	Creating user name:	WinNT
#	Creation time:	15. 06. 2019 18:53

#	Modifying user name:	WinNT
#	Modification time:	15. 06. 2019 18:53

#	Program:	/corina/corina34_cracker 3.40 0067  02.08.2006

@<TRIPOS>MOLECULE
ASD00960225
  39   41    0    0    0
SMALL
NO_CHARGES


@<TRIPOS>ATOM
   1 C1            -0.1956     1.3529    -0.2947 C.2     
   2 C2            -0.2152    -0.0302    -0.3141 C.2     
   3 N3             1.0702     1.7797    -0.6025 N.pl3   
   4 C4             1.8623     0.6906    -0.8189 C.2     
   5 C5             1.0767    -0.4628    -0.6434 C.2     
   6 N6             1.6406     3.0555    -0.7223 N.2     
   7 C7             2.9049     3.1812    -1.0349 C.2     
   8 N8             3.6853     2.1285    -1.2482 N.2     
   9 C9             3.2201     0.8948    -1.1530 C.2     
  10 N10            4.0528    -0.1843    -1.3794 N.pl3   
  11 C11            1.5248    -1.8555    -0.7794 C.2     
  12 O12            2.3123    -2.1583    -1.6561 O.2     
  13 N13            1.0635    -2.7975     0.0669 N.am    
  14 C14            1.5102    -4.1861    -0.0687 C.3     
  15 C15           -1.3390     2.2178    -0.0005 C.2     
  16 O16           -2.4223     1.7276     0.2559 O.2     
  17 O17           -1.1915     3.5587    -0.0136 O.3     
  18 C18           -2.3496     4.3417     0.2828 C.3     
  19 C19           -1.9956     5.8053     0.2213 C.ar    
  20 C20           -2.1175     6.4964    -0.9696 C.ar    
  21 C21           -1.7928     7.8389    -1.0260 C.ar    
  22 C22           -1.3467     8.4904     0.1086 C.ar    
  23 C23           -1.2256     7.7994     1.2998 C.ar    
  24 C24           -1.5545     6.4580     1.3572 C.ar    
  25 H25           -1.0687    -0.6605    -0.1126 H       
  26 H26            3.3265     4.1717    -1.1226 H       
  27 H27            4.8754    -0.0655    -1.8794 H       
  28 H28            3.8147    -1.0605    -1.0382 H       
  29 H29            0.4357    -2.5561     0.7658 H       
  30 H30            1.0340    -4.7975     0.6977 H       
  31 H31            1.2364    -4.5612    -1.0548 H       
  32 H32            2.5928    -4.2327     0.0501 H       
  33 H33           -3.1305     4.1258    -0.4463 H       
  34 H34           -2.7080     4.0963     1.2825 H       
  35 H35           -2.4661     5.9874    -1.8561 H       
  36 H36           -1.8873     8.3787    -1.9567 H       
  37 H37           -1.0923     9.5390     0.0644 H       
  38 H38           -0.8768     8.3083     2.1862 H       
  39 H39           -1.4635     5.9191     2.2887 H       
@<TRIPOS>BOND
   1    1    2 2
   2    1    3 1
   3    1   15 1
   4    2    5 1
   5    2   25 1
   6    3    4 1
   7    3    6 1
   8    4    5 2
   9    4    9 1
  10    5   11 1
  11    6    7 2
  12    7    8 1
  13    7   26 1
  14    8    9 2
  15    9   10 1
  16   10   27 1
  17   10   28 1
  18   11   12 2
  19   11   13 am
  20   13   14 1
  21   13   29 1
  22   14   30 1
  23   14   31 1
  24   14   32 1
  25   15   16 2
  26   15   17 1
  27   17   18 1
  28   18   19 1
  29   18   33 1
  30   18   34 1
  31   19   20 ar
  32   19   24 ar
  33   20   21 ar
  34   20   35 1
  35   21   22 ar
  36   21   36 1
  37   22   23 ar
  38   22   37 1
  39   23   24 ar
  40   23   38 1
  41   24   39 1

#	End of record

