#	Name: ASD01908381
#	Creating user name:	WinNT
#	Creation time:	15. 06. 2019 19:55

#	Modifying user name:	WinNT
#	Modification time:	15. 06. 2019 19:55

#	Program:	/corina/corina34_cracker 3.40 0067  02.08.2006

@<TRIPOS>MOLECULE
ASD01908381
  42   45    0    0    0
SMALL
NO_CHARGES


@<TRIPOS>ATOM
   1 C1             0.0814     1.2926    -1.2938 C.ar    
   2 C2             0.0951    -0.0835    -1.1662 C.ar    
   3 C3             1.2853    -0.7377    -0.9237 C.ar    
   4 C4             2.4719    -0.0236    -0.8066 C.ar    
   5 C5             2.4584     1.3468    -0.9337 C.ar    
   6 C6             1.2580     2.0035    -1.1779 C.ar    
   7 S7             4.1069    -0.6113    -0.5024 S.o2    
   8 N8             5.0915     0.7244    -0.4734 N.am    
   9 S9             4.0809     2.0124    -0.7458 S.o2    
  10 C10            6.4721     0.7575    -0.2642 C.ar    
  11 C11            7.1470     1.9703    -0.2715 C.ar    
  12 C12            7.1705    -0.4231    -0.0427 C.ar    
  13 C13            8.5362    -0.3911     0.1648 C.ar    
  14 C14            9.2116     0.8138     0.1529 C.ar    
  15 C15            8.5183     1.9988    -0.0628 C.ar    
  16 O16            4.4449     2.5506    -2.0095 O.2     
  17 O17            4.0676     2.7753     0.4530 O.2     
  18 O18            4.1064    -1.1408     0.8163 O.2     
  19 O19            4.4838    -1.3655    -1.6463 O.2     
  20 N20            9.2030     3.2181    -0.0752 N.am    
  21 C21           10.4489     3.2862    -0.5847 C.2     
  22 C22           11.1324     4.5915    -0.6928 C.ar    
  23 O23           11.0102     2.2735    -0.9555 O.2     
  24 C24           12.4239     4.6659    -1.2205 C.ar    
  25 C25           13.0564     5.8901    -1.3183 C.ar    
  26 C26           12.4140     7.0391    -0.8952 C.ar    
  27 C27           11.1346     6.9717    -0.3711 C.ar    
  28 C28           10.4886     5.7574    -0.2733 C.ar    
  29 Cl29          13.2316     3.2239    -1.7514 Cl      
  30 H30           -0.8468     1.8093    -1.4881 H       
  31 H31           -0.8232    -0.6450    -1.2556 H       
  32 H32            1.2949    -1.8130    -0.8237 H       
  33 H33            1.2463     3.0788    -1.2782 H       
  34 H34            6.6060     2.8897    -0.4397 H       
  35 H35            6.6453    -1.3668    -0.0325 H       
  36 H36            9.0767    -1.3101     0.3370 H       
  37 H37           10.2791     0.8355     0.3158 H       
  38 H38            8.7813     4.0148     0.2830 H       
  39 H39           14.0549     5.9498    -1.7256 H       
  40 H40           12.9129     7.9937    -0.9738 H       
  41 H41           10.6393     7.8732    -0.0420 H       
  42 H42            9.4902     5.7070     0.1356 H       
@<TRIPOS>BOND
   1    1    2 ar
   2    1    6 ar
   3    1   30 1
   4    2    3 ar
   5    2   31 1
   6    3    4 ar
   7    3   32 1
   8    4    5 ar
   9    4    7 1
  10    5    6 ar
  11    5    9 1
  12    6   33 1
  13    7    8 am
  14    7   18 2
  15    7   19 2
  16    8    9 am
  17    8   10 1
  18    9   16 2
  19    9   17 2
  20   10   11 ar
  21   10   12 ar
  22   11   15 ar
  23   11   34 1
  24   12   13 ar
  25   12   35 1
  26   13   14 ar
  27   13   36 1
  28   14   15 ar
  29   14   37 1
  30   15   20 1
  31   20   21 am
  32   20   38 1
  33   21   22 1
  34   21   23 2
  35   22   24 ar
  36   22   28 ar
  37   24   25 ar
  38   24   29 1
  39   25   26 ar
  40   25   39 1
  41   26   27 ar
  42   26   40 1
  43   27   28 ar
  44   27   41 1
  45   28   42 1

#	End of record

