#	Name: ASD09116428
#	Creating user name:	WinNT
#	Creation time:	15. 06. 2019 21:21

#	Modifying user name:	WinNT
#	Modification time:	15. 06. 2019 21:21

#	Program:	/corina/corina34_cracker 3.40 0067  02.08.2006

@<TRIPOS>MOLECULE
ASD09116428
  47   51    0    0    0
SMALL
NO_CHARGES


@<TRIPOS>ATOM
   1 N1            -0.0297     1.4183     0.1452 N.2     
   2 N2            -0.0210     0.0194     0.2664 N.pl3   
   3 C3             1.2223     1.8078     0.1159 C.2     
   4 N4             2.0154     0.7343     0.2117 N.2     
   5 C5             1.2800    -0.3531     0.3032 C.2     
   6 N6             1.7524    -1.6467     0.4174 N.pl3   
   7 C7            -1.1337    -0.8209     0.3359 C.ar    
   8 N8             1.6572     3.1285     0.0023 N.pl3   
   9 C9             3.0195     3.4262     0.0965 C.ar    
  10 C10            3.5411     4.5214    -0.5805 C.ar    
  11 C11            3.8538     2.6308     0.8719 C.ar    
  12 C12            5.1993     2.9278     0.9633 C.ar    
  13 C13            5.7166     4.0161     0.2837 C.ar    
  14 C14            4.8875     4.8131    -0.4851 C.ar    
  15 N15           -1.0321    -2.0869    -0.0403 N.ar    
  16 N16           -2.0277    -2.8994    -0.0050 N.ar    
  17 C17           -3.2231    -2.5140     0.4119 C.ar    
  18 C18           -3.4196    -1.2009     0.8489 C.ar    
  19 C19           -2.3529    -0.3281     0.8077 C.ar    
  20 C20           -4.3849    -3.4329     0.4026 C.ar    
  21 C21           -5.5818    -3.0013    -0.1712 C.ar    
  22 C22           -5.6447    -1.6420    -0.8121 C.3     
  23 C23           -5.7428    -0.5364     0.2355 C.3     
  24 C24           -4.7614    -0.7849     1.3777 C.3     
  25 C25           -4.2981    -4.7052     0.9568 C.ar    
  26 C26           -5.4066    -5.5298     0.9528 C.ar    
  27 C27           -6.5967    -5.0905     0.4018 C.ar    
  28 C28           -6.6848    -3.8278    -0.1585 C.ar    
  29 I29            7.7586     4.4627     0.4255 I       
  30 H30            2.7076    -1.8145     0.4352 H       
  31 H31            1.1287    -2.3870     0.4796 H       
  32 H32            1.0141     3.8402    -0.1420 H       
  33 H33            2.8943     5.1438    -1.1811 H       
  34 H34            3.4504     1.7813     1.4030 H       
  35 H35            5.8483     2.3101     1.5663 H       
  36 H36            5.2944     5.6618    -1.0148 H       
  37 H37           -2.4580     0.7002     1.1210 H       
  38 H38           -4.7465    -1.4878    -1.4101 H       
  39 H39           -6.5176    -1.5948    -1.4632 H       
  40 H40           -5.5148     0.4217    -0.2314 H       
  41 H41           -6.7571    -0.5084     0.6337 H       
  42 H42           -5.1527    -1.5726     2.0216 H       
  43 H43           -4.6494     0.1300     1.9596 H       
  44 H44           -3.3688    -5.0472     1.3879 H       
  45 H45           -5.3436    -6.5195     1.3804 H       
  46 H46           -7.4624    -5.7362     0.4092 H       
  47 H47           -7.6175    -3.4904    -0.5856 H       
@<TRIPOS>BOND
   1    1    2 1
   2    1    3 2
   3    2    7 1
   4    2    5 1
   5    3    4 1
   6    3    8 1
   7    4    5 2
   8    5    6 1
   9    6   30 1
  10    6   31 1
  11    7   15 ar
  12    7   19 ar
  13    8    9 1
  14    8   32 1
  15    9   10 ar
  16    9   11 ar
  17   10   14 ar
  18   10   33 1
  19   11   12 ar
  20   11   34 1
  21   12   13 ar
  22   12   35 1
  23   13   14 ar
  24   13   29 1
  25   14   36 1
  26   15   16 ar
  27   16   17 ar
  28   17   18 ar
  29   17   20 1
  30   18   19 ar
  31   18   24 1
  32   19   37 1
  33   20   21 ar
  34   20   25 ar
  35   21   22 1
  36   21   28 ar
  37   22   23 1
  38   22   38 1
  39   22   39 1
  40   23   24 1
  41   23   40 1
  42   23   41 1
  43   24   42 1
  44   24   43 1
  45   25   26 ar
  46   25   44 1
  47   26   27 ar
  48   26   45 1
  49   27   28 ar
  50   27   46 1
  51   28   47 1

#	End of record

