#	Name: ASD00431281
#	Creating user name:	WinNT
#	Creation time:	15. 06. 2019 18:35

#	Modifying user name:	WinNT
#	Modification time:	15. 06. 2019 18:35

#	Program:	/corina/corina34_cracker 3.40 0067  02.08.2006

@<TRIPOS>MOLECULE
ASD00431281
  47   49    0    0    0
SMALL
NO_CHARGES


@<TRIPOS>ATOM
   1 C1             0.5322     1.2838    -0.8966 C.3     
   2 C2             0.2690    -0.1582    -0.4582 C.3     
   3 O3             2.9605     1.2381    -1.6599 O.3     
   4 N4             4.0532     1.6138    -1.3041 N.2     
   5 C5             3.9911     2.2514    -0.1611 C.2     
   6 C6             2.6197     2.2483     0.2190 C.2     
   7 C7             2.0052     1.5820    -0.7843 C.2     
   8 C8             5.1220     2.8548     0.5859 C.ar    
   9 C9             6.4173     2.7735     0.0773 C.ar    
  10 C10            7.4665     3.3350     0.7736 C.ar    
  11 C11            7.2337     3.9812     1.9808 C.ar    
  12 C12            5.9441     4.0633     2.4901 C.ar    
  13 C13            4.8905     3.5089     1.7949 C.ar    
  14 O14            8.2690     4.5335     2.6647 O.3     
  15 C15            8.7532     3.8609     3.7425 C.ar    
  16 C16            8.2154     2.6306     4.0913 C.ar    
  17 C17            8.7073     1.9474     5.1863 C.ar    
  18 C18            9.7390     2.4914     5.9371 C.ar    
  19 C19           10.2767     3.7216     5.5884 C.ar    
  20 C20            9.7888     4.4023     4.4901 C.ar    
  21 O21           10.2229     1.8190     7.0154 O.3     
  22 C22            9.5644     0.6012     7.3696 C.3     
  23 C23           10.1288    -0.5466     6.5301 C.3     
  24 C24            9.7956     0.3093     8.8536 C.3     
  25 N25            0.1022     1.4581    -2.2904 N.3     
  26 H26           -0.0265     1.9661    -0.2560 H       
  27 H27            0.8277    -0.8405    -1.0988 H       
  28 H28            0.5880    -0.2875     0.5760 H       
  29 H29           -0.7964    -0.3739    -0.5394 H       
  30 H30            2.1734     2.6781     1.1036 H       
  31 H31            6.5990     2.2708    -0.8612 H       
  32 H32            8.4703     3.2721     0.3802 H       
  33 H33            5.7660     4.5660     3.4292 H       
  34 H34            3.8873     3.5772     2.1890 H       
  35 H35            7.4119     2.2072     3.5070 H       
  36 H36            8.2884     0.9898     5.4581 H       
  37 H37           11.0797     4.1452     6.1733 H       
  38 H38           10.2105     5.3580     4.2160 H       
  39 H39            8.4953     0.6980     7.1806 H       
  40 H40           11.1980    -0.6434     6.7191 H       
  41 H41            9.6266    -1.4755     6.8002 H       
  42 H42            9.9641    -0.3387     5.4728 H       
  43 H43            9.3934     1.1271     9.4516 H       
  44 H44            9.2933    -0.6195     9.1237 H       
  45 H45           10.8647     0.2126     9.0426 H       
  46 H46            0.6503     0.8831    -2.9125 H       
  47 H47           -0.8827     1.2638    -2.3919 H       
@<TRIPOS>BOND
   1    1    2 1
   2    1    7 1
   3    1   25 1
   4    1   26 1
   5    2   27 1
   6    2   28 1
   7    2   29 1
   8    3    4 1
   9    3    7 1
  10    4    5 2
  11    5    6 1
  12    5    8 1
  13    6    7 2
  14    6   30 1
  15    8    9 ar
  16    8   13 ar
  17    9   10 ar
  18    9   31 1
  19   10   11 ar
  20   10   32 1
  21   11   12 ar
  22   11   14 1
  23   12   13 ar
  24   12   33 1
  25   13   34 1
  26   14   15 1
  27   15   16 ar
  28   15   20 ar
  29   16   17 ar
  30   16   35 1
  31   17   18 ar
  32   17   36 1
  33   18   19 ar
  34   18   21 1
  35   19   20 ar
  36   19   37 1
  37   20   38 1
  38   21   22 1
  39   22   23 1
  40   22   24 1
  41   22   39 1
  42   23   40 1
  43   23   41 1
  44   23   42 1
  45   24   43 1
  46   24   44 1
  47   24   45 1
  48   25   46 1
  49   25   47 1

#	End of record

