#	Name: ASD01412027
#	Creating user name:	WinNT
#	Creation time:	15. 06. 2019 19:19

#	Modifying user name:	WinNT
#	Modification time:	15. 06. 2019 19:19

#	Program:	/corina/corina34_cracker 3.40 0067  02.08.2006

@<TRIPOS>MOLECULE
ASD01412027
  81   85    0    0    0
SMALL
NO_CHARGES


@<TRIPOS>ATOM
   1 C1            -1.5087     2.4284     2.6842 C.ar    
   2 C2            -1.2950     1.0937     2.2845 C.ar    
   3 C3            -2.3841     0.2907     1.9159 C.ar    
   4 C4            -3.6460     0.7999     1.9437 C.ar    
   5 C5            -3.8683     2.1268     2.3400 C.ar    
   6 C6            -2.7986     2.9369     2.7139 C.ar    
   7 N7            -0.2758     2.9678     2.9854 N.pl3   
   8 C8             0.6887     2.0083     2.7839 C.2     
   9 C9             0.0997     0.8620     2.3589 C.2     
  10 C10            0.8045    -0.4276     2.0255 C.3     
  11 C11            0.2842    -1.5430     2.9344 C.3     
  12 C12            0.9998    -2.8523     2.5959 C.3     
  13 C13            0.7304    -3.2177     1.1349 C.3     
  14 C14            1.2507    -2.1024     0.2259 C.3     
  15 C15            0.5351    -0.7931     0.5644 C.3     
  16 C16           -5.2420     2.6657     2.3653 C.2     
  17 O17           -5.4378     3.8156     2.7085 O.2     
  18 N18           -6.2796     1.8832     2.0081 N.am    
  19 C19           -7.6432     2.4181     2.0333 C.3     
  20 C20           -8.6102     1.3494     1.5930 C.2     
  21 C21           -7.9896     2.8650     3.4550 C.3     
  22 C22           -7.7392     3.6148     1.0849 C.3     
  23 C23           -9.1223    -0.5605     0.2772 C.ar    
  24 O24           -9.7139     1.2875     2.0919 O.2     
  25 C25          -10.4913    -0.3167     0.2208 C.ar    
  26 C26          -11.3568    -1.3215    -0.1465 C.ar    
  27 C27          -10.8581    -2.5907    -0.4641 C.ar    
  28 C28           -9.4800    -2.8313    -0.4064 C.ar    
  29 C29           -8.6221    -1.8205    -0.0375 C.ar    
  30 C30          -11.7782    -3.6671    -0.8564 C.2     
  31 C31          -12.8263    -3.3984    -1.6656 C.2     
  32 N32           -8.2485     0.4624     0.6449 N.am    
  33 C33           -0.0332     4.3378     3.4441 C.3     
  34 C34            2.1396     2.1964     2.9962 C.ar    
  35 C35            2.5866     3.1061     3.9547 C.ar    
  36 C36            3.9480     3.2709     4.1416 C.ar    
  37 C37            4.8192     2.5209     3.3643 C.ar    
  38 C38            4.3075     1.6365     2.4317 C.ar    
  39 N39            3.0076     1.4939     2.2766 N.ar    
  40 C40            4.4726     4.2436     5.1661 C.3     
  41 C41          -12.8444    -2.2039    -2.4291 C.2     
  42 O42          -11.8534    -1.5003    -2.4814 O.2     
  43 O43          -13.9609    -1.8475    -3.0977 O.3     
  44 H44           -2.2213    -0.7321     1.6095 H       
  45 H45           -4.4817     0.1782     1.6583 H       
  46 H46           -2.9723     3.9582     3.0190 H       
  47 H47            1.8769    -0.3055     2.1776 H       
  48 H48            0.4762    -1.2826     3.9753 H       
  49 H49           -0.7882    -1.6651     2.7823 H       
  50 H50            2.0722    -2.7301     2.7481 H       
  51 H51            0.6291    -3.6468     3.2435 H       
  52 H52            1.2402    -4.1505     0.8937 H       
  53 H53           -0.3420    -3.3399     0.9827 H       
  54 H54            2.3231    -1.9802     0.3781 H       
  55 H55            1.0588    -2.3628    -0.8150 H       
  56 H56           -0.5373    -0.9153     0.4122 H       
  57 H57            0.9058     0.0015    -0.0832 H       
  58 H58           -6.1234     0.9658     1.7344 H       
  59 H59           -7.2901     3.6379     3.7734 H       
  60 H60           -9.0041     3.2630     3.4737 H       
  61 H61           -7.9212     2.0124     4.1307 H       
  62 H62           -7.4924     3.2964     0.0720 H       
  63 H63           -8.7537     4.0128     1.1036 H       
  64 H64           -7.0397     4.3878     1.4033 H       
  65 H65          -10.8751     0.6626     0.4659 H       
  66 H66          -12.4191    -1.1316    -0.1894 H       
  67 H67           -9.0909    -3.8088    -0.6501 H       
  68 H68           -7.5589    -2.0051     0.0070 H       
  69 H69          -11.6168    -4.6729    -0.4979 H       
  70 H70          -13.6502    -4.0935    -1.7308 H       
  71 H71           -7.3805     0.5355     0.2182 H       
  72 H72           -0.0635     4.3670     4.5332 H       
  73 H73            0.9463     4.6685     3.0988 H       
  74 H74           -0.8020     4.9973     3.0414 H       
  75 H75            1.8804     3.6740     4.5422 H       
  76 H76            5.8871     2.6270     3.4861 H       
  77 H77            4.9835     1.0519     1.8253 H       
  78 H78            4.5916     3.7347     6.1227 H       
  79 H79            5.4371     4.6315     4.8384 H       
  80 H80            3.7685     5.0681     5.2783 H       
  81 H81          -13.8774    -1.0189    -3.5893 H       
@<TRIPOS>BOND
   1    1    2 ar
   2    1    7 1
   3    1    6 ar
   4    2    3 ar
   5    2    9 1
   6    3    4 ar
   7    3   44 1
   8    4    5 ar
   9    4   45 1
  10    5    6 ar
  11    5   16 1
  12    6   46 1
  13    7    8 1
  14    7   33 1
  15    8    9 2
  16    8   34 1
  17    9   10 1
  18   10   11 1
  19   10   15 1
  20   10   47 1
  21   11   12 1
  22   11   48 1
  23   11   49 1
  24   12   13 1
  25   12   50 1
  26   12   51 1
  27   13   14 1
  28   13   52 1
  29   13   53 1
  30   14   15 1
  31   14   54 1
  32   14   55 1
  33   15   56 1
  34   15   57 1
  35   16   17 2
  36   16   18 am
  37   18   19 1
  38   18   58 1
  39   19   20 1
  40   19   21 1
  41   19   22 1
  42   20   24 2
  43   20   32 am
  44   21   59 1
  45   21   60 1
  46   21   61 1
  47   22   62 1
  48   22   63 1
  49   22   64 1
  50   23   25 ar
  51   23   29 ar
  52   23   32 1
  53   25   26 ar
  54   25   65 1
  55   26   27 ar
  56   26   66 1
  57   27   28 ar
  58   27   30 1
  59   28   29 ar
  60   28   67 1
  61   29   68 1
  62   30   31 2
  63   30   69 1
  64   31   41 1
  65   31   70 1
  66   32   71 1
  67   33   72 1
  68   33   73 1
  69   33   74 1
  70   34   35 ar
  71   34   39 ar
  72   35   36 ar
  73   35   75 1
  74   36   37 ar
  75   36   40 1
  76   37   38 ar
  77   37   76 1
  78   38   39 ar
  79   38   77 1
  80   40   78 1
  81   40   79 1
  82   40   80 1
  83   41   42 2
  84   41   43 1
  85   43   81 1

#	End of record

