#	Name: ASD01840480
#	Creating user name:	WinNT
#	Creation time:	15. 06. 2019 19:37

#	Modifying user name:	WinNT
#	Modification time:	15. 06. 2019 19:37

#	Program:	/corina/corina34_cracker 3.40 0067  02.08.2006

@<TRIPOS>MOLECULE
ASD01840480
  50   53    0    0    0
SMALL
NO_CHARGES


@<TRIPOS>ATOM
   1 C1            -0.2563     2.7977    -1.0598 C.ar    
   2 C2            -0.2766     1.6235    -1.7799 C.ar    
   3 N3             0.7756     0.8232    -1.7776 N.ar    
   4 N4             1.8439     1.0888    -1.1230 N.ar    
   5 C5             0.9136     3.1097    -0.3302 C.ar    
   6 C6             1.2188     4.2562     0.5054 C.2     
   7 C7             1.9758     2.1976    -0.3914 C.ar    
   8 S8             3.3224     2.7758     0.5797 S.3     
   9 C9             2.4568     4.2230     1.0579 C.2     
  10 C10           -1.4439     3.7253    -1.0549 C.3     
  11 C11           -1.5025     1.2499    -2.5727 C.3     
  12 N12            0.3230     5.2950     0.7198 N.pl3   
  13 C13            2.9989     5.2590     1.9358 C.2     
  14 O14            2.3254     6.2342     2.2147 O.2     
  15 N15            4.2440     5.1345     2.4363 N.am    
  16 C16            5.1149     5.9260     3.3183 C.3     
  17 C17            5.3274     4.1440     2.3461 C.3     
  18 C18            6.3191     5.2887     2.6114 C.3     
  19 C19            6.7685     6.0221     1.3740 C.ar    
  20 O20            7.3938     4.9384     3.4857 O.3     
  21 C21            7.8607     6.0196     4.2950 C.3     
  22 C22            8.1164     6.2294     1.1459 C.ar    
  23 C23            8.5309     6.9014     0.0124 C.ar    
  24 C24            7.5935     7.3685    -0.8975 C.ar    
  25 C25            6.2417     7.1592    -0.6663 C.ar    
  26 C26            5.8326     6.4817     0.4659 C.ar    
  27 O27            7.9988     8.0303    -2.0131 O.3     
  28 C28            6.9786     8.4827    -2.9056 C.3     
  29 H29           -2.0736     3.5049    -0.1929 H       
  30 H30           -1.0985     4.7576    -0.9982 H       
  31 H31           -2.0188     3.5844    -1.9702 H       
  32 H32           -1.4203     1.6547    -3.5814 H       
  33 H33           -1.5860     0.1642    -2.6226 H       
  34 H34           -2.3880     1.6605    -2.0875 H       
  35 H35           -0.6245     5.1585     0.5631 H       
  36 H36            0.6446     6.1572     1.0263 H       
  37 H37            5.0352     7.0009     3.1560 H       
  38 H38            5.0332     5.6508     4.3698 H       
  39 H39            5.3017     3.3990     3.1413 H       
  40 H40            5.4288     3.7006     1.3555 H       
  41 H41            8.7392     5.7006     4.8559 H       
  42 H42            8.1235     6.8636     3.6573 H       
  43 H43            7.0755     6.3193     4.9891 H       
  44 H44            8.8457     5.8659     1.8547 H       
  45 H45            9.5838     7.0634    -0.1652 H       
  46 H46            5.5100     7.5219    -1.3731 H       
  47 H47            4.7806     6.3143     0.6440 H       
  48 H48            6.4045     7.6283    -3.2642 H       
  49 H49            6.3161     9.1712    -2.3811 H       
  50 H50            7.4370     8.9936    -3.7524 H       
@<TRIPOS>BOND
   1    1    2 ar
   2    1    5 ar
   3    1   10 1
   4    2   11 1
   5    2    3 ar
   6    3    4 ar
   7    4    7 ar
   8    5    7 ar
   9    5    6 1
  10    6    9 2
  11    6   12 1
  12    7    8 1
  13    8    9 1
  14    9   13 1
  15   10   29 1
  16   10   30 1
  17   10   31 1
  18   11   32 1
  19   11   33 1
  20   11   34 1
  21   12   35 1
  22   12   36 1
  23   13   14 2
  24   13   15 am
  25   15   16 1
  26   15   17 1
  27   16   18 1
  28   16   37 1
  29   16   38 1
  30   17   18 1
  31   17   39 1
  32   17   40 1
  33   18   19 1
  34   18   20 1
  35   19   22 ar
  36   19   26 ar
  37   20   21 1
  38   21   41 1
  39   21   42 1
  40   21   43 1
  41   22   23 ar
  42   22   44 1
  43   23   24 ar
  44   23   45 1
  45   24   25 ar
  46   24   27 1
  47   25   26 ar
  48   25   46 1
  49   26   47 1
  50   27   28 1
  51   28   48 1
  52   28   49 1
  53   28   50 1

#	End of record

