#	Name: ASD01478074
#	Creating user name:	WinNT
#	Creation time:	15. 06. 2019 19:21

#	Modifying user name:	WinNT
#	Modification time:	15. 06. 2019 19:21

#	Program:	/corina/corina34_cracker 3.40 0067  02.08.2006

@<TRIPOS>MOLECULE
ASD01478074
  33   34    0    0    0
SMALL
NO_CHARGES


@<TRIPOS>ATOM
   1 C1             0.0502     1.8524    -0.0355 C.3     
   2 C2            -0.0904     0.3809    -0.4860 C.3     
   3 O3             0.3491     0.2227    -1.7735 O.3     
   4 C4             1.7234     0.5222    -2.0514 C.3     
   5 O5             1.8321     1.9146    -2.2399 O.3     
   6 C6             2.2133     2.6678    -1.0811 C.3     
   7 C7             1.5101     2.1714     0.1937 C.3     
   8 O8            -0.6887     2.0537     1.1981 O.3     
   9 C9            -1.9769     2.4253     1.0849 C.2     
  10 O10           -2.4706     2.5773    -0.0141 O.2     
  11 O11           -2.7182     2.6285     2.1895 O.3     
  12 C12           -4.0384     2.8955     2.0063 C.ar    
  13 C13           -4.9162     1.8711     1.6829 C.ar    
  14 C14           -6.2575     2.1450     1.4976 C.ar    
  15 C15           -6.7252     3.4390     1.6338 C.ar    
  16 C16           -5.8524     4.4617     1.9560 C.ar    
  17 C17           -4.5112     4.1920     2.1479 C.ar    
  18 N18           -8.1627     3.7299     1.4338 N.pl3   
  19 O19           -8.9324     2.8297     1.1495 O.2     
  20 O20           -8.5759     4.8694     1.5535 O.2     
  21 H21           -0.3482     2.5089    -0.8090 H       
  22 H22            0.4992    -0.2545     0.1749 H       
  23 H23           -1.1380     0.0858    -0.4257 H       
  24 H24            2.3455     0.2139    -1.2111 H       
  25 H25            2.0390     0.0016    -2.9556 H       
  26 H26            3.2916     2.5854    -0.9450 H       
  27 H27            1.9579     3.7153    -1.2406 H       
  28 H28            1.5863     2.9419     0.9609 H       
  29 H29            2.0157     1.2730     0.5479 H       
  30 H30           -4.5511     0.8603     1.5757 H       
  31 H31           -6.9412     1.3478     1.2459 H       
  32 H32           -6.2201     5.4717     2.0615 H       
  33 H33           -3.8305     4.9906     2.4036 H       
@<TRIPOS>BOND
   1    1    2 1
   2    1    7 1
   3    1    8 1
   4    1   21 1
   5    2    3 1
   6    2   22 1
   7    2   23 1
   8    3    4 1
   9    4    5 1
  10    4   24 1
  11    4   25 1
  12    5    6 1
  13    6    7 1
  14    6   26 1
  15    6   27 1
  16    7   28 1
  17    7   29 1
  18    8    9 1
  19    9   10 2
  20    9   11 1
  21   11   12 1
  22   12   13 ar
  23   12   17 ar
  24   13   14 ar
  25   13   30 1
  26   14   15 ar
  27   14   31 1
  28   15   16 ar
  29   15   18 1
  30   16   17 ar
  31   16   32 1
  32   17   33 1
  33   18   19 2
  34   18   20 2

#	End of record

