#	Name: ASD05420004
#	Creating user name:	WinNT
#	Creation time:	15. 06. 2019 20:59

#	Modifying user name:	WinNT
#	Modification time:	15. 06. 2019 20:59

#	Program:	/corina/corina34_cracker 3.40 0067  02.08.2006

@<TRIPOS>MOLECULE
ASD05420004
  33   34    0    0    0
SMALL
NO_CHARGES


@<TRIPOS>ATOM
   1 C1            -0.1035     1.2027    -0.5888 C.2     
   2 N2             0.0021    -0.0041     0.0020 N.am    
   3 O3             0.8635     1.6932    -1.1552 O.co2   
   4 O4            -1.1678     1.8054    -0.5629 O.co2   
   5 C5             1.1963    -0.7356    -0.1037 C.ar    
   6 C6             1.1745    -2.1256     0.0030 C.ar    
   7 C7             2.3559    -2.8453    -0.1024 C.ar    
   8 C8             3.5568    -2.1786    -0.3139 C.ar    
   9 C9             3.5737    -0.7945    -0.4194 C.ar    
  10 C10            2.3964    -0.0765    -0.3199 C.ar    
  11 N11            4.7505    -2.9034    -0.4200 N.pl3   
  12 C12            6.0166    -2.2009    -0.6430 C.3     
  13 C13            7.1402    -3.2023    -0.7190 C.ar    
  14 C14            7.4959    -3.7501    -1.9374 C.ar    
  15 C15            8.5264    -4.6682    -2.0084 C.ar    
  16 C16            9.2026    -5.0395    -0.8585 C.ar    
  17 C17            8.8453    -4.4902     0.3612 C.ar    
  18 C18            7.8180    -3.5683     0.4290 C.ar    
  19 F19           10.2098    -5.9373    -0.9267 F       
  20 F20            2.3390    -4.1923     0.0009 F       
  21 N21           -0.0378    -2.7941     0.2166 N.pl3   
  22 H22           -0.7467    -0.3674     0.5002 H       
  23 H23            4.5078    -0.2780    -0.5838 H       
  24 H24            2.4124     0.9999    -0.4069 H       
  25 H25            4.7390    -3.8705    -0.3460 H       
  26 H26            5.9630    -1.6433    -1.5780 H       
  27 H27            6.1996    -1.5114     0.1812 H       
  28 H28            6.9682    -3.4606    -2.8341 H       
  29 H29            8.8039    -5.0962    -2.9603 H       
  30 H30            9.3720    -4.7791     1.2587 H       
  31 H31            7.5419    -3.1367     1.3797 H       
  32 H32           -0.8632    -2.2900     0.2904 H       
  33 H33           -0.0519    -3.7612     0.2906 H       
@<TRIPOS>BOND
   1    1    2 am
   2    1    3 ar
   3    1    4 ar
   4    2    5 1
   5    2   22 1
   6    5    6 ar
   7    5   10 ar
   8    6    7 ar
   9    6   21 1
  10    7    8 ar
  11    7   20 1
  12    8    9 ar
  13    8   11 1
  14    9   10 ar
  15    9   23 1
  16   10   24 1
  17   11   12 1
  18   11   25 1
  19   12   13 1
  20   12   26 1
  21   12   27 1
  22   13   14 ar
  23   13   18 ar
  24   14   15 ar
  25   14   28 1
  26   15   16 ar
  27   15   29 1
  28   16   17 ar
  29   16   19 1
  30   17   18 ar
  31   17   30 1
  32   18   31 1
  33   21   32 1
  34   21   33 1

#	End of record

