#	Name: ASD03330482
#	Creating user name:	WinNT
#	Creation time:	15. 06. 2019 20:37

#	Modifying user name:	WinNT
#	Modification time:	15. 06. 2019 20:37

#	Program:	/corina/corina34_cracker 3.40 0067  02.08.2006

@<TRIPOS>MOLECULE
ASD03330482
  64   66    0    0    0
SMALL
NO_CHARGES


@<TRIPOS>ATOM
   1 C1            -0.6498     0.5551     0.4319 C.3     
   2 N2            -0.6590    -0.9039     0.2556 N.3     
   3 C3            -0.0465    -1.2895    -1.0287 C.3     
   4 C4             1.2821    -0.5872    -1.1397 C.2     
   5 N5             1.6474     0.4673    -0.3549 N.pl3   
   6 C6             0.7841     1.0400     0.6817 C.3     
   7 C7             2.3163    -0.8383    -1.9810 C.2     
   8 N8             3.2962     0.0518    -1.7060 N.2     
   9 C9             2.9011     0.8394    -0.7285 C.2     
  10 C10            3.6842     1.9386    -0.1390 C.2     
  11 C11            2.3634    -1.8927    -3.0096 C.2     
  12 O12            1.4134    -2.6365    -3.1620 O.2     
  13 C13            3.5063    -3.0807    -4.8039 C.3     
  14 N14            3.4594    -2.0326    -3.7814 N.am    
  15 C15           -2.0220    -1.4395     0.3707 C.3     
  16 C16            2.8473    -2.5711    -6.0873 C.3     
  17 C17            3.5862    -1.3252    -6.5800 C.3     
  18 C18            2.9113    -3.6597    -7.1604 C.3     
  19 C19            1.3855    -2.2187    -5.8047 C.3     
  20 C20            4.9416    -3.4434    -5.0861 C.2     
  21 O21            5.8278    -2.6568    -4.8277 O.2     
  22 N22            5.2403    -4.6418    -5.6255 N.am    
  23 C23            6.6397    -5.0325    -5.8128 C.3     
  24 C24            3.1231     2.6407     1.0631 C.3     
  25 C25            4.8359     2.2442    -0.6928 C.2     
  26 C26            5.7404     3.3327    -0.1928 C.3     
  27 C27            4.9683     4.2757     0.7322 C.3     
  28 C28            4.2247     3.4290     1.7746 C.3     
  29 C29            5.9459     5.2167     1.4392 C.3     
  30 H30           -1.0419     1.0311    -0.4668 H       
  31 H31           -1.2757     0.8209     1.2838 H       
  32 H32            0.1036    -2.3687    -1.0561 H       
  33 H33           -0.6937    -0.9858    -1.8515 H       
  34 H34            0.8188     2.1282     0.6293 H       
  35 H35            1.1190     0.7076     1.6643 H       
  36 H36            2.9726    -3.9613    -4.4464 H       
  37 H37            4.2172    -1.4393    -3.6599 H       
  38 H38           -2.6707    -0.9399    -0.3488 H       
  39 H39           -2.0100    -2.5102     0.1668 H       
  40 H40           -2.3966    -1.2659     1.3795 H       
  41 H41            4.6276    -1.5763    -6.7813 H       
  42 H42            3.1167    -0.9621    -7.4942 H       
  43 H43            3.5407    -0.5496    -5.8154 H       
  44 H44            2.2973    -4.5071    -6.8554 H       
  45 H45            2.5383    -3.2619    -8.1042 H       
  46 H46            3.9437    -3.9857    -7.2862 H       
  47 H47            1.3400    -1.4431    -5.0401 H       
  48 H48            0.9160    -1.8556    -6.7190 H       
  49 H49            0.8591    -3.1063    -5.4537 H       
  50 H50            4.5286    -5.2457    -5.8898 H       
  51 H51            6.6830    -6.0263    -6.2584 H       
  52 H52            7.1316    -4.3171    -6.4719 H       
  53 H53            7.1459    -5.0447    -4.8475 H       
  54 H54            2.3356     3.3249     0.7471 H       
  55 H55            2.7051     1.9041     1.7493 H       
  56 H56            5.1502     1.6791    -1.5578 H       
  57 H57            6.5712     2.8887     0.3555 H       
  58 H58            6.1298     3.8967    -1.0404 H       
  59 H59            4.2533     4.8563     0.1493 H       
  60 H60            3.7788     4.0812     2.5256 H       
  61 H61            4.9216     2.7397     2.2513 H       
  62 H62            6.4882     5.8020     0.6966 H       
  63 H63            5.3933     5.8871     2.0973 H       
  64 H64            6.6527     4.6313     2.0272 H       
@<TRIPOS>BOND
   1    1    2 1
   2    1    6 1
   3    1   30 1
   4    1   31 1
   5    2    3 1
   6    2   15 1
   7    3    4 1
   8    3   32 1
   9    3   33 1
  10    4    5 1
  11    4    7 2
  12    5    6 1
  13    5    9 1
  14    6   34 1
  15    6   35 1
  16    7    8 1
  17    7   11 1
  18    8    9 2
  19    9   10 1
  20   10   24 1
  21   10   25 2
  22   11   12 2
  23   11   14 am
  24   13   14 1
  25   13   16 1
  26   13   20 1
  27   13   36 1
  28   14   37 1
  29   15   38 1
  30   15   39 1
  31   15   40 1
  32   16   17 1
  33   16   18 1
  34   16   19 1
  35   17   41 1
  36   17   42 1
  37   17   43 1
  38   18   44 1
  39   18   45 1
  40   18   46 1
  41   19   47 1
  42   19   48 1
  43   19   49 1
  44   20   21 2
  45   20   22 am
  46   22   23 1
  47   22   50 1
  48   23   51 1
  49   23   52 1
  50   23   53 1
  51   24   28 1
  52   24   54 1
  53   24   55 1
  54   25   26 1
  55   25   56 1
  56   26   27 1
  57   26   57 1
  58   26   58 1
  59   27   28 1
  60   27   29 1
  61   27   59 1
  62   28   60 1
  63   28   61 1
  64   29   62 1
  65   29   63 1
  66   29   64 1

#	End of record

