#	Name: ASD03092187
#	Creating user name:	WinNT
#	Creation time:	15. 06. 2019 20:32

#	Modifying user name:	WinNT
#	Modification time:	15. 06. 2019 20:32

#	Program:	/corina/corina34_cracker 3.40 0067  02.08.2006

@<TRIPOS>MOLECULE
ASD03092187
  48   50    0    0    0
SMALL
NO_CHARGES


@<TRIPOS>ATOM
   1 C1            -1.4416     1.3111    -0.5634 C.3     
   2 C2            -1.1805    -0.1935    -0.4696 C.3     
   3 O3            -0.5292    -0.6391    -1.6609 O.3     
   4 C4            -0.2238    -1.9617    -1.7397 C.ar    
   5 C5            -0.5504    -2.8121    -0.6933 C.ar    
   6 C6            -0.2407    -4.1553    -0.7725 C.ar    
   7 C7             0.3977    -4.6551    -1.9003 C.ar    
   8 N8             0.7115    -6.0162    -1.9815 N.pl3   
   9 C9             1.3374    -6.5058    -3.0873 C.2     
  10 C10            1.6437    -7.8342    -3.1666 C.2     
  11 C11            2.3179    -8.3616    -4.3578 C.2     
  12 O12            2.6043    -7.6151    -5.2755 O.2     
  13 N13            2.6202    -9.6726    -4.4360 N.am    
  14 C14            3.1738   -10.1940    -5.6104 C.ar    
  15 C15            2.8322   -11.4721    -6.0327 C.ar    
  16 C16            3.3797   -11.9842    -7.1926 C.ar    
  17 C17            4.2681   -11.2249    -7.9338 C.ar    
  18 Cl18           4.9541   -11.8714    -9.3916 Cl      
  19 C19            4.6102    -9.9510    -7.5152 C.ar    
  20 C20            4.0615    -9.4321    -6.3589 C.ar    
  21 C21            1.2968    -8.7383    -2.0551 C.2     
  22 C22            0.4077    -9.7819    -2.0880 C.2     
  23 C23            0.4528   -10.3053    -0.7819 C.2     
  24 C24           -0.3345   -11.4768    -0.2538 C.3     
  25 N25            1.3090    -9.5797    -0.1183 N.2     
  26 O26            1.7928    -8.7101    -0.8047 O.3     
  27 C27            0.7240    -3.8030    -2.9476 C.ar    
  28 C28            0.4091    -2.4610    -2.8688 C.ar    
  29 H29           -0.4942     1.8378    -0.6782 H       
  30 H30           -2.0781     1.5165    -1.4240 H       
  31 H31           -1.9384     1.6510     0.3453 H       
  32 H32           -0.5439    -0.3989     0.3911 H       
  33 H33           -2.1279    -0.7202    -0.3547 H       
  34 H34           -1.0468    -2.4233     0.1835 H       
  35 H35           -0.4944    -4.8170     0.0425 H       
  36 H36            0.4833    -6.6110    -1.2501 H       
  37 H37            1.5916    -5.8435    -3.9017 H       
  38 H38            2.4539   -10.2548    -3.6782 H       
  39 H39            2.1392   -12.0653    -5.4545 H       
  40 H40            3.1147   -12.9782    -7.5213 H       
  41 H41            5.3038    -9.3605    -8.0954 H       
  42 H42            4.3257    -8.4363    -6.0348 H       
  43 H43           -0.1886   -10.1225    -2.9216 H       
  44 H44            0.2329   -12.3947    -0.4074 H       
  45 H45           -0.5210   -11.3388     0.8112 H       
  46 H46           -1.2848   -11.5442    -0.7834 H       
  47 H47            1.2203    -4.1908    -3.8249 H       
  48 H48            0.6593    -1.7990    -3.6846 H       
@<TRIPOS>BOND
   1    1    2 1
   2    1   29 1
   3    1   30 1
   4    1   31 1
   5    2    3 1
   6    2   32 1
   7    2   33 1
   8    3    4 1
   9    4   28 ar
  10    4    5 ar
  11    5    6 ar
  12    5   34 1
  13    6    7 ar
  14    6   35 1
  15    7    8 1
  16    7   27 ar
  17    8    9 1
  18    8   36 1
  19    9   10 2
  20    9   37 1
  21   10   11 1
  22   10   21 1
  23   11   12 2
  24   11   13 am
  25   13   14 1
  26   13   38 1
  27   14   20 ar
  28   14   15 ar
  29   15   16 ar
  30   15   39 1
  31   16   17 ar
  32   16   40 1
  33   17   18 1
  34   17   19 ar
  35   19   20 ar
  36   19   41 1
  37   20   42 1
  38   21   26 1
  39   21   22 2
  40   22   23 1
  41   22   43 1
  42   23   24 1
  43   23   25 2
  44   24   44 1
  45   24   45 1
  46   24   46 1
  47   25   26 1
  48   27   28 ar
  49   27   47 1
  50   28   48 1

#	End of record

