#	Name: ASD03331348
#	Creating user name:	WinNT
#	Creation time:	15. 06. 2019 20:39

#	Modifying user name:	WinNT
#	Modification time:	15. 06. 2019 20:39

#	Program:	/corina/corina34_cracker 3.40 0067  02.08.2006

@<TRIPOS>MOLECULE
ASD03331348
  49   51    0    0    0
SMALL
NO_CHARGES


@<TRIPOS>ATOM
   1 C1            -0.5474     0.6710     1.9798 C.2     
   2 C2            -0.3267    -0.7412     1.6209 C.2     
   3 N3            -1.2728    -1.7178     1.6177 N.pl3   
   4 C4            -0.6685    -2.8725     1.2315 C.2     
   5 C5             0.6372    -2.5872     1.0020 C.2     
   6 N6             0.8187    -1.2694     1.2437 N.2     
   7 C7             1.6713    -3.5409     0.5622 C.2     
   8 N8             2.9376    -3.1211     0.3709 N.am    
   9 N9             0.3644     1.6028     1.9808 N.2     
  10 O10            1.3818    -4.7067     0.3718 O.2     
  11 C11            3.9655    -4.0691    -0.0663 C.3     
  12 C12            3.9312    -4.1912    -1.5910 C.3     
  13 C13            5.3215    -3.5752     0.3677 C.2     
  14 C14            4.0667    -2.8018    -2.2172 C.3     
  15 C15           -2.6973    -1.6304     1.9517 C.3     
  16 C16           -3.3933    -2.8820     1.4000 C.3     
  17 O17           -2.6593    -4.0505     1.7761 O.3     
  18 C18           -1.3957    -4.1871     1.1089 C.3     
  19 C19            5.0887    -5.0761    -2.0579 C.3     
  20 C20            2.6039    -4.8180    -2.0227 C.3     
  21 O21            5.5046    -2.3908     0.5535 O.2     
  22 N22            6.3307    -4.4498     0.5494 N.am    
  23 C23            7.6152    -3.9862     1.0798 C.3     
  24 C24           -0.0152     2.8084     2.3298 C.2     
  25 C25           -1.3088     2.9439     2.6480 C.2     
  26 S26           -2.0875     1.3729     2.4691 S.3     
  27 H27            3.1685    -2.1913     0.5227 H       
  28 H28            3.7738    -5.0445     0.3808 H       
  29 H29            5.0123    -2.3553    -1.9096 H       
  30 H30            4.0423    -2.8889    -3.3034 H       
  31 H31            3.2420    -2.1714    -1.8846 H       
  32 H32           -2.8198    -1.5880     3.0340 H       
  33 H33           -3.1282    -0.7387     1.4965 H       
  34 H34           -4.4036    -2.9429     1.8047 H       
  35 H35           -3.4428    -2.8195     0.3129 H       
  36 H36           -1.5568    -4.4241     0.0573 H       
  37 H37           -0.8120    -4.9772     1.5813 H       
  38 H38            4.9722    -6.0766    -1.6413 H       
  39 H39            5.0863    -5.1332    -3.1464 H       
  40 H40            6.0324    -4.6490    -1.7186 H       
  41 H41            1.7792    -4.1876    -1.6901 H       
  42 H42            2.5794    -4.9050    -3.1090 H       
  43 H43            2.5073    -5.8078    -1.5766 H       
  44 H44            6.2066    -5.3862     0.3290 H       
  45 H45            8.0349    -3.2351     0.4106 H       
  46 H46            7.4643    -3.5494     2.0671 H       
  47 H47            8.3022    -4.8290     1.1565 H       
  48 H48            0.6728     3.6403     2.3592 H       
  49 H49           -1.7924     3.8589     2.9565 H       
@<TRIPOS>BOND
   1    1    2 1
   2    1    9 2
   3    1   26 1
   4    2    3 1
   5    2    6 2
   6    3    4 1
   7    3   15 1
   8    4    5 2
   9    4   18 1
  10    5    6 1
  11    5    7 1
  12    7    8 am
  13    7   10 2
  14    8   11 1
  15    8   27 1
  16    9   24 1
  17   11   12 1
  18   11   13 1
  19   11   28 1
  20   12   14 1
  21   12   19 1
  22   12   20 1
  23   13   21 2
  24   13   22 am
  25   14   29 1
  26   14   30 1
  27   14   31 1
  28   15   16 1
  29   15   32 1
  30   15   33 1
  31   16   17 1
  32   16   34 1
  33   16   35 1
  34   17   18 1
  35   18   36 1
  36   18   37 1
  37   19   38 1
  38   19   39 1
  39   19   40 1
  40   20   41 1
  41   20   42 1
  42   20   43 1
  43   22   23 1
  44   22   44 1
  45   23   45 1
  46   23   46 1
  47   23   47 1
  48   24   25 2
  49   24   48 1
  50   25   26 1
  51   25   49 1

#	End of record

