#	Name: ASD01912877
#	Creating user name:	WinNT
#	Creation time:	15. 06. 2019 20:00

#	Modifying user name:	WinNT
#	Modification time:	15. 06. 2019 20:00

#	Program:	/corina/corina34_cracker 3.40 0067  02.08.2006

@<TRIPOS>MOLECULE
ASD01912877
  39   42    0    0    0
SMALL
NO_CHARGES


@<TRIPOS>ATOM
   1 C1            -0.0165     1.3669     0.0096 C.2     
   2 N2             0.0021    -0.0041     0.0020 N.pl3   
   3 C3            -1.2019    -0.6917     0.0098 C.2     
   4 C4            -2.3629    -0.0489     0.0239 C.2     
   5 N5            -2.4356     1.3307     0.0316 N.am    
   6 C6            -1.3017     2.0667     0.0309 C.2     
   7 C7             1.3018     1.7837    -0.0008 C.2     
   8 C8             2.0551     0.6111    -0.0143 C.2     
   9 N9             1.2243    -0.4045    -0.0118 N.2     
  10 O10           -1.3486     3.2839     0.0376 O.2     
  11 C11           -3.6796     1.9645     0.0455 C.2     
  12 C12            3.5596     0.5249    -0.0291 C.3     
  13 O13            4.1122     1.8427    -0.0273 O.3     
  14 C14            5.4674     1.9434    -0.0397 C.ar    
  15 C15            6.0714     3.1923    -0.0388 C.ar    
  16 C16            7.4492     3.2920    -0.0514 C.ar    
  17 C17            8.2262     2.1484    -0.0650 C.ar    
  18 C18            7.6266     0.9025    -0.0664 C.ar    
  19 C19            6.2493     0.7974    -0.0476 C.ar    
  20 C20           -4.8668     1.3395     0.0525 C.2     
  21 C21           -5.9649     2.1817     0.0671 C.2     
  22 C22           -5.6763     3.4837     0.0719 C.2     
  23 S23           -3.9317     3.7050     0.0642 S.3     
  24 C24           -6.6918     4.5971     0.0864 C.3     
  25 H25           -1.1948    -1.7716     0.0039 H       
  26 H26           -3.2785    -0.6217     0.0292 H       
  27 H27            1.6688     2.7994     0.0008 H       
  28 H28            3.9013    -0.0136     0.8548 H       
  29 H29            3.8844    -0.0041    -0.9251 H       
  30 H30            5.4650     4.0859    -0.0285 H       
  31 H31            7.9199     4.2641    -0.0511 H       
  32 H32            9.3031     2.2284    -0.0749 H       
  33 H33            8.2357     0.0106    -0.0778 H       
  34 H34            5.7814    -0.1760    -0.0487 H       
  35 H35           -4.9583     0.2634     0.0469 H       
  36 H36           -6.9796     1.8121     0.0737 H       
  37 H37           -6.9282     4.8599     1.1175 H       
  38 H38           -6.2833     5.4681    -0.4260 H       
  39 H39           -7.5984     4.2686    -0.4218 H       
@<TRIPOS>BOND
   1    1    2 1
   2    1    7 2
   3    1    6 1
   4    2    3 1
   5    2    9 1
   6    3    4 2
   7    3   25 1
   8    4    5 1
   9    4   26 1
  10    5    6 am
  11    5   11 1
  12    6   10 2
  13    7    8 1
  14    7   27 1
  15    8    9 2
  16    8   12 1
  17   11   20 2
  18   11   23 1
  19   12   13 1
  20   12   28 1
  21   12   29 1
  22   13   14 1
  23   14   15 ar
  24   14   19 ar
  25   15   16 ar
  26   15   30 1
  27   16   17 ar
  28   16   31 1
  29   17   18 ar
  30   17   32 1
  31   18   19 ar
  32   18   33 1
  33   19   34 1
  34   20   21 1
  35   20   35 1
  36   21   22 2
  37   21   36 1
  38   22   23 1
  39   22   24 1
  40   24   37 1
  41   24   38 1
  42   24   39 1

#	End of record

