#	Name: ASD01880059
#	Creating user name:	WinNT
#	Creation time:	15. 06. 2019 19:39

#	Modifying user name:	WinNT
#	Modification time:	15. 06. 2019 19:39

#	Program:	/corina/corina34_cracker 3.40 0067  02.08.2006

@<TRIPOS>MOLECULE
ASD01880059
  47   49    0    0    0
SMALL
NO_CHARGES


@<TRIPOS>ATOM
   1 C1             0.8872     0.8159    -0.3799 C.ar    
   2 C2             1.3161    -0.4969    -0.3362 C.ar    
   3 N3             2.5789    -0.7861    -0.0888 N.ar    
   4 C4             3.4769     0.1554     0.1248 C.ar    
   5 C5             3.1215     1.4909     0.0963 C.ar    
   6 C6             1.8030     1.8338    -0.1602 C.ar    
   7 C7             4.1541     2.5607     0.3420 C.3     
   8 N8             4.7645     2.9519    -0.9310 N.am    
   9 C9             4.1533     3.9119    -1.7286 C.ar    
  10 S10            6.1825     2.2500    -1.4197 S.o2    
  11 C11            5.6633     0.7981    -2.3752 C.3     
  12 C12            6.8874    -0.0565    -2.7099 C.3     
  13 O13            6.7786     3.2197    -2.2704 O.2     
  14 O14            6.8116     1.8516    -0.2094 O.2     
  15 C15            3.3072     4.8569    -1.1534 C.ar    
  16 C16            2.7045     5.8017    -1.9344 C.ar    
  17 C17            2.9384     5.8197    -3.3138 C.ar    
  18 C18            3.7895     4.8692    -3.8883 C.ar    
  19 C19            4.3930     3.9304    -3.1005 C.ar    
  20 C20            2.2895     6.8374    -4.1599 C.2     
  21 C21            2.8779     7.1958    -5.4674 C.ar    
  22 C22            2.0810     7.7658    -6.4626 C.ar    
  23 C23            2.6366     8.0978    -7.6806 C.ar    
  24 C24            3.9803     7.8673    -7.9176 C.ar    
  25 C25            4.7758     7.3027    -6.9360 C.ar    
  26 C26            4.2345     6.9712    -5.7114 C.ar    
  27 O27            1.2701     7.3821    -3.7821 O.2     
  28 H28           -0.1474     1.0466    -0.5870 H       
  29 H29            0.6091    -1.2953    -0.5062 H       
  30 H30            4.5018    -0.1200     0.3246 H       
  31 H31            1.4965     2.8690    -0.1885 H       
  32 H32            3.6772     3.4282     0.7981 H       
  33 H33            4.9239     2.1758     1.0109 H       
  34 H34            4.9588     0.2094    -1.7876 H       
  35 H35            5.1837     1.1233    -3.2984 H       
  36 H36            6.5754    -0.9289    -3.2841 H       
  37 H37            7.5919     0.5322    -3.2975 H       
  38 H38            7.3670    -0.3817    -1.7867 H       
  39 H39            3.1270     4.8424    -0.0886 H       
  40 H40            2.0479     6.5337    -1.4878 H       
  41 H41            3.9720     4.8800    -4.9527 H       
  42 H42            5.0500     3.1964    -3.5432 H       
  43 H43            1.0321     7.9459    -6.2790 H       
  44 H44            2.0214     8.5384    -8.4513 H       
  45 H45            4.4102     8.1288    -8.8733 H       
  46 H46            5.8237     7.1252    -7.1277 H       
  47 H47            4.8564     6.5310    -4.9460 H       
@<TRIPOS>BOND
   1    1    2 ar
   2    1    6 ar
   3    1   28 1
   4    2    3 ar
   5    2   29 1
   6    3    4 ar
   7    4    5 ar
   8    4   30 1
   9    5    6 ar
  10    5    7 1
  11    6   31 1
  12    7    8 1
  13    7   32 1
  14    7   33 1
  15    8    9 1
  16    8   10 am
  17    9   15 ar
  18    9   19 ar
  19   10   11 1
  20   10   13 2
  21   10   14 2
  22   11   12 1
  23   11   34 1
  24   11   35 1
  25   12   36 1
  26   12   37 1
  27   12   38 1
  28   15   16 ar
  29   15   39 1
  30   16   17 ar
  31   16   40 1
  32   17   18 ar
  33   17   20 1
  34   18   19 ar
  35   18   41 1
  36   19   42 1
  37   20   21 1
  38   20   27 2
  39   21   22 ar
  40   21   26 ar
  41   22   23 ar
  42   22   43 1
  43   23   24 ar
  44   23   44 1
  45   24   25 ar
  46   24   45 1
  47   25   26 ar
  48   25   46 1
  49   26   47 1

#	End of record

