#	Name: ASD01148648
#	Creating user name:	WinNT
#	Creation time:	15. 06. 2019 19:02

#	Modifying user name:	WinNT
#	Modification time:	15. 06. 2019 19:02

#	Program:	/corina/corina34_cracker 3.40 0067  02.08.2006

@<TRIPOS>MOLECULE
ASD01148648
  56   59    0    0    0
SMALL
NO_CHARGES


@<TRIPOS>ATOM
   1 C1            -0.0169     1.4367    -0.0252 C.ar    
   2 C2             0.0192     0.0537    -0.0359 C.ar    
   3 C3            -1.1606    -0.6687    -0.0208 C.ar    
   4 C4            -2.3746    -0.0085     0.0050 C.ar    
   5 C5            -2.4101     1.3734     0.0156 C.ar    
   6 C6            -1.2314     2.0957     0.0064 C.ar    
   7 C7            -3.7341     2.0927     0.0432 C.3     
   8 O8            -4.7239     1.3245     0.7571 O.3     
   9 C9            -3.6494     3.3758     0.9039 C.3     
  10 C10           -4.1233     2.8939     2.2619 C.2     
  11 N11           -4.7055     1.7508     2.1051 N.2     
  12 C12           -3.9496     3.6060     3.5394 C.ar    
  13 C13           -4.4574     3.0251     4.7799 C.ar    
  14 C14           -3.2972     4.8308     3.5733 C.ar    
  15 C15           -3.1196     5.5211     4.7590 C.ar    
  16 C16           -3.5858     5.0185     5.9662 C.ar    
  17 C17           -4.2759     3.7310     5.9927 C.ar    
  18 C18           -3.3814     5.7762     7.2135 C.2     
  19 O19           -3.8826     5.3865     8.2507 O.2     
  20 N20           -2.6392     6.9011     7.2047 N.am    
  21 C21           -4.7625     3.1855     7.1872 C.ar    
  22 C22           -5.1167     1.7893     4.7936 C.ar    
  23 C23           -4.2089     2.4142    -1.3752 C.3     
  24 F24           -4.3419     1.2268    -2.1029 F       
  25 F25           -5.4454     3.0661    -1.3165 F       
  26 F26           -3.2737     3.2438    -2.0032 F       
  27 Cl27           1.5444    -0.7749    -0.0688 Cl      
  28 C28           -2.4476     7.6114     8.3739 C.2     
  29 N29           -2.9796     7.1976     9.4750 N.2     
  30 O30           -2.7833     7.9257    10.6735 O.3     
  31 C31           -3.4284     7.3539    11.8133 C.3     
  32 C32           -5.5744     1.2835     5.9740 C.ar    
  33 C33           -5.4004     1.9807     7.1666 C.ar    
  34 C34            1.2678     2.2243    -0.0417 C.3     
  35 F35            0.9762     3.5925    -0.0267 F       
  36 F36            2.0296     1.8975     1.0852 F       
  37 F37            1.9901     1.9141    -1.1989 F       
  38 C38           -1.1221    -2.1752    -0.0329 C.3     
  39 F39           -2.4286    -2.6752    -0.0139 F       
  40 F40           -0.4710    -2.6158    -1.1901 F       
  41 F41           -0.4311    -2.6331     1.0941 F       
  42 H42           -3.2957    -0.5723     0.0164 H       
  43 H43           -1.2597     3.1753     0.0147 H       
  44 H44           -2.6227     3.7379     0.9585 H       
  45 H45           -4.3129     4.1477     0.5140 H       
  46 H46           -2.9197     5.2538     2.6541 H       
  47 H47           -2.6068     6.4715     4.7452 H       
  48 H48           -2.2395     7.2120     6.3774 H       
  49 H49           -4.6328     3.7157     8.1191 H       
  50 H50           -5.2619     1.2407     3.8748 H       
  51 H51           -1.8528     8.5128     8.3668 H       
  52 H52           -4.5031     7.3078    11.6374 H       
  53 H53           -3.0442     6.3478    11.9815 H       
  54 H54           -3.2299     7.9700    12.6903 H       
  55 H55           -6.0829     0.3308     5.9836 H       
  56 H56           -5.7753     1.5609     8.0883 H       
@<TRIPOS>BOND
   1    1    2 ar
   2    1   34 1
   3    1    6 ar
   4    2    3 ar
   5    2   27 1
   6    3    4 ar
   7    3   38 1
   8    4    5 ar
   9    4   42 1
  10    5    6 ar
  11    5    7 1
  12    6   43 1
  13    7    8 1
  14    7    9 1
  15    7   23 1
  16    8   11 1
  17    9   10 1
  18    9   44 1
  19    9   45 1
  20   10   11 2
  21   10   12 1
  22   12   13 ar
  23   12   14 ar
  24   13   22 ar
  25   13   17 ar
  26   14   15 ar
  27   14   46 1
  28   15   16 ar
  29   15   47 1
  30   16   17 ar
  31   16   18 1
  32   17   21 ar
  33   18   19 2
  34   18   20 am
  35   20   28 1
  36   20   48 1
  37   21   33 ar
  38   21   49 1
  39   22   32 ar
  40   22   50 1
  41   23   24 1
  42   23   25 1
  43   23   26 1
  44   28   29 2
  45   28   51 1
  46   29   30 1
  47   30   31 1
  48   31   52 1
  49   31   53 1
  50   31   54 1
  51   32   33 ar
  52   32   55 1
  53   33   56 1
  54   34   35 1
  55   34   36 1
  56   34   37 1
  57   38   39 1
  58   38   40 1
  59   38   41 1

#	End of record

