#	Name: ASD02030091
#	Creating user name:	WinNT
#	Creation time:	15. 06. 2019 20:14

#	Modifying user name:	WinNT
#	Modification time:	15. 06. 2019 20:14

#	Program:	/corina/corina34_cracker 3.40 0067  02.08.2006

@<TRIPOS>MOLECULE
ASD02030091
  58   61    0    0    0
SMALL
NO_CHARGES


@<TRIPOS>ATOM
   1 C1             4.5446     5.6467     1.9498 C.ar    
   2 C2             3.2716     6.1516     2.1377 C.ar    
   3 C3             2.1755     5.4588     1.6585 C.ar    
   4 C4             2.3525     4.2613     0.9910 C.ar    
   5 C5             3.6256     3.7569     0.8023 C.ar    
   6 C6             4.7216     4.4490     1.2827 C.ar    
   7 S7             3.8512     2.2299    -0.0475 S.o2    
   8 N8             4.1643     2.5927    -1.6327 N.am    
   9 C9             3.2167     3.2706    -2.3908 C.ar    
  10 O10            5.0400     1.6521     0.4742 O.2     
  11 O11            2.5928     1.5701    -0.0279 O.2     
  12 C12            3.6034     4.3457    -3.1867 C.ar    
  13 C13            2.6712     5.0168    -3.9353 C.ar    
  14 C14            1.3306     4.6200    -3.8994 C.ar    
  15 C15            0.9456     3.5394    -3.0993 C.ar    
  16 C16            1.8838     2.8694    -2.3571 C.ar    
  17 C17            0.3257     5.3393    -4.7024 C.2     
  18 O18           -0.9657     4.9557    -4.6667 O.3     
  19 O19            0.6616     6.2783    -5.3968 O.2     
  20 C20           -1.9002     5.7098    -5.4830 C.3     
  21 C21           -2.5147     6.8747    -4.6678 C.3     
  22 C22           -3.8429     7.1514    -5.4149 C.3     
  23 C23           -4.3471     5.7512    -5.8214 C.3     
  24 C24           -3.1119     4.8347    -5.8647 C.3     
  25 N25           -2.9352     4.2941    -7.2148 N.am    
  26 C26           -3.5802     3.1684    -7.5797 C.2     
  27 O27           -4.3083     2.6018    -6.7889 O.2     
  28 C28           -3.4015     2.6218    -8.9450 C.ar    
  29 C29           -4.0612     1.4554    -9.3440 C.ar    
  30 C30           -3.8662     0.9810   -10.6268 C.ar    
  31 N31           -3.0716     1.6119   -11.4682 N.ar    
  32 C32           -2.4311     2.7140   -11.1328 C.ar    
  33 C33           -2.5730     3.2612    -9.8722 C.ar    
  34 N34            3.0820     7.4339     2.8525 N.pl3   
  35 O35            4.0477     8.0441     3.2750 O.2     
  36 O36            1.9603     7.8787     3.0181 O.2     
  37 H37            5.4012     6.1902     2.3202 H       
  38 H38            1.1809     5.8529     1.8060 H       
  39 H39            1.4962     3.7197     0.6173 H       
  40 H40            5.7163     4.0550     1.1349 H       
  41 H41            5.0090     2.3323    -2.0321 H       
  42 H42            4.6388     4.6516    -3.2140 H       
  43 H43            2.9717     5.8510    -4.5518 H       
  44 H44           -0.0889     3.2307    -3.0690 H       
  45 H45            1.5872     2.0347    -1.7394 H       
  46 H46           -1.4046     6.0893    -6.3766 H       
  47 H47           -2.7065     6.5676    -3.6397 H       
  48 H48           -1.8660     7.7502    -4.6960 H       
  49 H49           -4.5592     7.6373    -4.7524 H       
  50 H50           -3.6631     7.7635    -6.2987 H       
  51 H51           -5.0600     5.3825    -5.0839 H       
  52 H52           -4.8151     5.7938    -6.8049 H       
  53 H53           -3.2253     4.0211    -5.1482 H       
  54 H54           -2.3539     4.7464    -7.8460 H       
  55 H55           -4.7131     0.9329    -8.6596 H       
  56 H56           -4.3713     0.0808   -10.9443 H       
  57 H57           -1.7899     3.1981   -11.8545 H       
  58 H58           -2.0454     4.1646    -9.6043 H       
@<TRIPOS>BOND
   1    1    2 ar
   2    1    6 ar
   3    1   37 1
   4    2    3 ar
   5    2   34 1
   6    3    4 ar
   7    3   38 1
   8    4    5 ar
   9    4   39 1
  10    5    6 ar
  11    5    7 1
  12    6   40 1
  13    7    8 am
  14    7   10 2
  15    7   11 2
  16    8    9 1
  17    8   41 1
  18    9   12 ar
  19    9   16 ar
  20   12   13 ar
  21   12   42 1
  22   13   14 ar
  23   13   43 1
  24   14   15 ar
  25   14   17 1
  26   15   16 ar
  27   15   44 1
  28   16   45 1
  29   17   18 1
  30   17   19 2
  31   18   20 1
  32   20   21 1
  33   20   24 1
  34   20   46 1
  35   21   22 1
  36   21   47 1
  37   21   48 1
  38   22   23 1
  39   22   49 1
  40   22   50 1
  41   23   24 1
  42   23   51 1
  43   23   52 1
  44   24   25 1
  45   24   53 1
  46   25   26 am
  47   25   54 1
  48   26   27 2
  49   26   28 1
  50   28   29 ar
  51   28   33 ar
  52   29   30 ar
  53   29   55 1
  54   30   31 ar
  55   30   56 1
  56   31   32 ar
  57   32   33 ar
  58   32   57 1
  59   33   58 1
  60   34   35 2
  61   34   36 2

#	End of record

