#	Name: ASD06020171
#	Creating user name:	WinNT
#	Creation time:	15. 06. 2019 21:04

#	Modifying user name:	WinNT
#	Modification time:	15. 06. 2019 21:04

#	Program:	/corina/corina34_cracker 3.40 0067  02.08.2006

@<TRIPOS>MOLECULE
ASD06020171
  25   27    0    0    0
SMALL
NO_CHARGES


@<TRIPOS>ATOM
   1 C1             0.0021    -0.0041     0.0020 C.1     
   2 C2            -0.0173     1.4278     0.0099 C.ar    
   3 C3             1.1903     2.1532     0.0023 C.ar    
   4 C4             1.1548     3.5484     0.0101 C.ar    
   5 C5            -0.0611     4.2081     0.0253 C.ar    
   6 C6            -1.2462     3.4934     0.0333 C.ar    
   7 C7            -1.2316     2.1129     0.0194 C.ar    
   8 N8             0.0175    -1.1399    -0.0042 N.1     
   9 C9             6.1924     0.2828    -0.0549 C.ar    
  10 C10            4.8511     0.6510    -0.0403 C.ar    
  11 C11            3.8589    -0.3405    -0.0362 C.ar    
  12 C12            4.2951    -1.6885    -0.0484 C.ar    
  13 C13            5.6417    -1.9581    -0.0634 C.ar    
  14 N14            6.5409    -0.9870    -0.0652 N.ar    
  15 S15            4.0602     2.2236    -0.0243 S.3     
  16 C16            2.4842     1.4425    -0.0135 C.2     
  17 N17            2.6213     0.1572    -0.0217 N.2     
  18 O18            7.9164    -1.3230    -0.0804 O.3     
  19 F19            3.3965    -2.6973    -0.0448 F       
  20 F20            2.3068     4.2541     0.0034 F       
  21 H21           -0.0856     5.2878     0.0314 H       
  22 H22           -2.1894     4.0194     0.0459 H       
  23 H23           -2.1613     1.5633     0.0204 H       
  24 H24            6.9561     1.0465    -0.0626 H       
  25 H25            5.9743    -2.9856    -0.0723 H       
@<TRIPOS>BOND
   1    1    2 1
   2    1    8 3
   3    2    3 ar
   4    2    7 ar
   5    3    4 ar
   6    3   16 1
   7    4    5 ar
   8    4   20 1
   9    5    6 ar
  10    5   21 1
  11    6    7 ar
  12    6   22 1
  13    7   23 1
  14    9   10 ar
  15    9   14 ar
  16    9   24 1
  17   10   11 ar
  18   10   15 1
  19   11   12 ar
  20   11   17 1
  21   12   13 ar
  22   12   19 1
  23   13   14 ar
  24   13   25 1
  25   14   18 1
  26   15   16 1
  27   16   17 2

#	End of record

