#	Name: ASD01816696
#	Creating user name:	WinNT
#	Creation time:	15. 06. 2019 19:35

#	Modifying user name:	WinNT
#	Modification time:	15. 06. 2019 19:35

#	Program:	/corina/corina34_cracker 3.40 0067  02.08.2006

@<TRIPOS>MOLECULE
ASD01816696
  69   73    0    0    0
SMALL
NO_CHARGES


@<TRIPOS>ATOM
   1 C1            -0.0167     1.3961     0.0121 C.2     
   2 C2             0.0025    -0.0052    -0.0045 C.2     
   3 C3             1.1989    -0.6602    -0.0252 C.2     
   4 C4             2.3922     0.0815    -0.0295 C.2     
   5 N5             2.3439     1.4491    -0.0126 N.am    
   6 C6             1.1420     2.0927     0.0076 C.2     
   7 C7             3.6230    -0.5887    -0.0506 C.2     
   8 C8             4.7879     0.1231    -0.0549 C.2     
   9 C9             4.7340     1.5284    -0.0381 C.2     
  10 C10            3.4813     2.1731    -0.0167 C.2     
  11 C11            3.6605    -2.0951    -0.0679 C.3     
  12 O12            3.4256     3.3914    -0.0020 O.2     
  13 C13            5.9710     2.3159    -0.0418 C.2     
  14 N14            7.1647     1.6963     0.0459 N.am    
  15 O15            5.9198     3.5292    -0.1240 O.2     
  16 N16            3.7781    -2.5660    -1.4544 N.3     
  17 C17            4.0549    -4.0075    -1.4989 C.3     
  18 C18            4.3147    -4.4340    -2.9455 C.3     
  19 C19            3.0861    -4.1047    -3.7980 C.3     
  20 C20            2.7906    -2.6058    -3.6958 C.3     
  21 C21            2.5750    -2.2323    -2.2274 C.3     
  22 C22            3.3585    -4.4675    -5.2351 C.ar    
  23 N23            4.5965    -4.6990    -5.6254 N.ar    
  24 C24            1.9278    -4.8691    -3.3074 C.1     
  25 N25            1.0338    -5.4590    -2.9288 N.1     
  26 C26            4.8820    -5.0194    -6.8724 C.ar    
  27 C27            3.8834    -5.1240    -7.8218 C.ar    
  28 C28            2.5689    -4.8877    -7.4486 C.ar    
  29 C29            2.3069    -4.5592    -6.1275 C.ar    
  30 C30            8.4025     2.4710    -0.0711 C.3     
  31 C31            9.5343     1.7360     0.6498 C.3     
  32 C32           10.8271     2.5451     0.5276 C.3     
  33 C33           11.1869     2.7113    -0.9501 C.3     
  34 C34           10.0552     3.4464    -1.6711 C.3     
  35 C35            8.7624     2.6373    -1.5489 C.3     
  36 C36            9.1745     1.5698     2.1276 C.3     
  37 H37           -0.9604     1.9212     0.0240 H       
  38 H38           -0.9228    -0.5622    -0.0006 H       
  39 H39            1.2286    -1.7397    -0.0377 H       
  40 H40            1.1153     3.1723     0.0207 H       
  41 H41            5.7398    -0.3870    -0.0708 H       
  42 H42            4.5175    -2.4439     0.5082 H       
  43 H43            2.7433    -2.4864     0.3722 H       
  44 H44            7.2041     0.7373     0.1865 H       
  45 H45            4.9333    -4.2275    -0.8921 H       
  46 H46            3.1971    -4.5543    -1.1075 H       
  47 H47            5.1809    -3.8977    -3.3330 H       
  48 H48            4.5047    -5.5068    -2.9800 H       
  49 H49            3.6328    -2.0408    -4.0951 H       
  50 H50            1.8917    -2.3724    -4.2664 H       
  51 H51            1.7241    -2.7874    -1.8326 H       
  52 H52            2.3785    -1.1630    -2.1498 H       
  53 H53            5.9083    -5.2018    -7.1550 H       
  54 H54            4.1237    -5.3860    -8.8416 H       
  55 H55            1.7678    -4.9618    -8.1692 H       
  56 H56            1.2950    -4.3690    -5.8017 H       
  57 H57            8.2609     3.4527     0.3810 H       
  58 H58            9.6759     0.7543     0.1977 H       
  59 H59           10.6854     3.5268     0.9797 H       
  60 H60           11.6334     2.0215     1.0412 H       
  61 H61           12.1079     3.2878    -1.0372 H       
  62 H62           11.3286     1.7297    -1.4022 H       
  63 H63            9.9135     4.4280    -1.2190 H       
  64 H64           10.3115     3.5648    -2.7238 H       
  65 H65            8.9040     1.6556    -2.0010 H       
  66 H66            7.9561     3.1609    -2.0625 H       
  67 H67            8.2534     0.9933     2.2147 H       
  68 H68            9.9807     1.0461     2.6412 H       
  69 H69            9.0328     2.5514     2.5797 H       
@<TRIPOS>BOND
   1    1    2 1
   2    1    6 2
   3    1   37 1
   4    2    3 2
   5    2   38 1
   6    3    4 1
   7    3   39 1
   8    4    5 1
   9    4    7 2
  10    5    6 1
  11    5   10 am
  12    6   40 1
  13    7    8 1
  14    7   11 1
  15    8    9 2
  16    8   41 1
  17    9   10 1
  18    9   13 1
  19   10   12 2
  20   11   16 1
  21   11   42 1
  22   11   43 1
  23   13   14 am
  24   13   15 2
  25   14   30 1
  26   14   44 1
  27   16   17 1
  28   16   21 1
  29   17   18 1
  30   17   45 1
  31   17   46 1
  32   18   19 1
  33   18   47 1
  34   18   48 1
  35   19   20 1
  36   19   22 1
  37   19   24 1
  38   20   21 1
  39   20   49 1
  40   20   50 1
  41   21   51 1
  42   21   52 1
  43   22   23 ar
  44   22   29 ar
  45   23   26 ar
  46   24   25 3
  47   26   27 ar
  48   26   53 1
  49   27   28 ar
  50   27   54 1
  51   28   29 ar
  52   28   55 1
  53   29   56 1
  54   30   31 1
  55   30   35 1
  56   30   57 1
  57   31   32 1
  58   31   36 1
  59   31   58 1
  60   32   33 1
  61   32   59 1
  62   32   60 1
  63   33   34 1
  64   33   61 1
  65   33   62 1
  66   34   35 1
  67   34   63 1
  68   34   64 1
  69   35   65 1
  70   35   66 1
  71   36   67 1
  72   36   68 1
  73   36   69 1

#	End of record

