#	Name: ASD05430104
#	Creating user name:	WinNT
#	Creation time:	15. 06. 2019 20:59

#	Modifying user name:	WinNT
#	Modification time:	15. 06. 2019 20:59

#	Program:	/corina/corina34_cracker 3.40 0067  02.08.2006

@<TRIPOS>MOLECULE
ASD05430104
  64   69    0    0    0
SMALL
NO_CHARGES


@<TRIPOS>ATOM
   1 C1             0.4073     0.5579     1.8354 C.ar    
   2 C2             0.4760    -0.7857     1.4684 C.ar    
   3 C3             1.6283    -1.2902     0.8792 C.ar    
   4 C4             2.7089    -0.4654     0.6546 C.ar    
   5 C5             2.6471     0.8833     1.0196 C.ar    
   6 C6             1.4872     1.3911     1.6126 C.ar    
   7 C7             5.3437    -0.1449     1.3114 C.3     
   8 C8             5.0506     1.2704     0.8390 C.2     
   9 C9             3.8008     1.7660     0.7808 C.2     
  10 C10            6.5737    -0.1004     2.2263 C.3     
  11 C11            7.8292     0.4178     1.5150 C.3     
  12 N12            7.5174     1.6829     0.8555 N.pl3   
  13 C13            6.2367     2.0646     0.4483 C.2     
  14 N14           -0.6200    -1.6292     1.6950 N.pl3   
  15 C15           -1.2042    -2.4692     0.7827 C.2     
  16 C16           -2.2179    -3.0891     1.4164 C.2     
  17 N17           -2.2561    -2.6436     2.6809 N.2     
  18 C18           -1.3003    -1.7732     2.8618 C.2     
  19 C19            6.3048     0.6047     3.5570 C.3     
  20 S20            7.4976    -0.4910     4.3746 S.o2    
  21 C21            6.8096    -1.4150     2.9730 C.3     
  22 O22            8.8450    -0.0927     4.1620 O.2     
  23 C23           -3.1486    -4.1073     0.8097 C.3     
  24 C24           -0.7245     2.4347     2.7576 C.3     
  25 O25           -0.7240     1.0494     2.4071 O.3     
  26 N26            6.2904     3.1270    -0.2828 N.2     
  27 O27            7.0335    -0.9698     5.6294 O.2     
  28 C28            8.4069     2.7916     0.5041 C.3     
  29 O29            7.6393     3.5358    -0.4650 O.3     
  30 C30            8.7071     3.6534     1.7322 C.3     
  31 F31           13.1679     0.8677    -1.7884 F       
  32 C32            9.6826     2.2759    -0.1104 C.ar    
  33 C33           10.1500     2.8212    -1.2916 C.ar    
  34 C34           11.3201     2.3494    -1.8558 C.ar    
  35 C35           12.0242     1.3301    -1.2375 C.ar    
  36 C36           11.5551     0.7847    -0.0545 C.ar    
  37 C37           10.3877     1.2617     0.5106 C.ar    
  38 H38            1.6775    -2.3314     0.5969 H       
  39 H39            3.6039    -0.8605     0.1969 H       
  40 H40            1.4352     2.4321     1.8956 H       
  41 H41            4.4881    -0.5324     1.8644 H       
  42 H42            5.5474    -0.7843     0.4525 H       
  43 H43            3.6442     2.8113     0.5588 H       
  44 H44            8.6235     0.5734     2.2450 H       
  45 H45            8.1535    -0.3104     0.7716 H       
  46 H46           -0.9085    -2.6071    -0.2469 H       
  47 H47           -1.0906    -1.2494     3.7827 H       
  48 H48            6.6128     1.6503     3.5578 H       
  49 H49            5.2840     0.4700     3.9147 H       
  50 H50            5.8865    -1.9405     3.2178 H       
  51 H51            7.5403    -2.0599     2.4848 H       
  52 H52           -2.7345    -5.1060     0.9480 H       
  53 H53           -4.1214    -4.0466     1.2976 H       
  54 H54           -3.2631    -3.9058    -0.2554 H       
  55 H55            0.0737     2.6285     3.4741 H       
  56 H56           -0.5635     3.0360     1.8628 H       
  57 H57           -1.6842     2.6963     3.2033 H       
  58 H58            9.1895     3.0427     2.4954 H       
  59 H59            9.3695     4.4713     1.4490 H       
  60 H60            7.7761     4.0600     2.1271 H       
  61 H61            9.6004     3.6160    -1.7739 H       
  62 H62           11.6848     2.7753    -2.7788 H       
  63 H63           12.1036    -0.0104     0.4287 H       
  64 H64           10.0216     0.8365     1.4334 H       
@<TRIPOS>BOND
   1    1    2 ar
   2    1    6 ar
   3    1   25 1
   4    2    3 ar
   5    2   14 1
   6    3    4 ar
   7    3   38 1
   8    4    5 ar
   9    4   39 1
  10    5    6 ar
  11    5    9 1
  12    6   40 1
  13    7    8 1
  14    7   10 1
  15    7   41 1
  16    7   42 1
  17    8    9 2
  18    8   13 1
  19    9   43 1
  20   10   11 1
  21   10   19 1
  22   10   21 1
  23   11   12 1
  24   11   44 1
  25   11   45 1
  26   12   13 1
  27   12   28 1
  28   13   26 2
  29   14   15 1
  30   14   18 1
  31   15   16 2
  32   15   46 1
  33   16   17 1
  34   16   23 1
  35   17   18 2
  36   18   47 1
  37   19   20 1
  38   19   48 1
  39   19   49 1
  40   20   21 1
  41   20   22 2
  42   20   27 2
  43   21   50 1
  44   21   51 1
  45   23   52 1
  46   23   53 1
  47   23   54 1
  48   24   25 1
  49   24   55 1
  50   24   56 1
  51   24   57 1
  52   26   29 1
  53   28   29 1
  54   28   30 1
  55   28   32 1
  56   30   58 1
  57   30   59 1
  58   30   60 1
  59   31   35 1
  60   32   33 ar
  61   32   37 ar
  62   33   34 ar
  63   33   61 1
  64   34   35 ar
  65   34   62 1
  66   35   36 ar
  67   36   37 ar
  68   36   63 1
  69   37   64 1

#	End of record

