#	Name: ASD02198351
#	Creating user name:	WinNT
#	Creation time:	15. 06. 2019 20:19

#	Modifying user name:	WinNT
#	Modification time:	15. 06. 2019 20:19

#	Program:	/corina/corina34_cracker 3.40 0067  02.08.2006

@<TRIPOS>MOLECULE
ASD02198351
  35   37    0    0    0
SMALL
NO_CHARGES


@<TRIPOS>ATOM
   1 C1            -0.0307     1.3681     0.1467 C.2     
   2 C2            -0.0275    -0.0135     0.1830 C.2     
   3 S3             1.6399     1.9112     0.2801 S.3     
   4 C4             2.1768     0.2917     0.3698 C.2     
   5 N5             1.1721    -0.5335     0.3026 N.2     
   6 N6            -1.1809    -0.7774     0.1015 N.pl3   
   7 C7            -1.1648     2.1931     0.0197 C.2     
   8 C8            -1.0286     3.6604     0.1386 C.ar    
   9 O9            -2.2594     1.6972    -0.1884 O.2     
  10 N10            3.4934    -0.0891     0.4960 N.pl3   
  11 C11           -1.9172     4.5027    -0.5333 C.ar    
  12 C12           -0.0144     4.2076     0.9277 C.ar    
  13 C13            0.1094     5.5752     1.0360 C.ar    
  14 C14           -0.7732     6.4101     0.3613 C.ar    
  15 C15           -1.7870     5.8693    -0.4202 C.ar    
  16 C16            3.8416    -1.5105     0.5639 C.3     
  17 O17           -0.6483     7.7575     0.4708 O.3     
  18 C18           -1.5890     8.5568    -0.2491 C.3     
  19 C19            5.2498    -1.9148     0.1228 C.3     
  20 C20            4.8775    -1.9351     1.6067 C.3     
  21 H21           -2.0444    -0.3442     0.0143 H       
  22 H22           -1.1247    -1.7453     0.1318 H       
  23 H23            4.1908     0.5837     0.5401 H       
  24 H24           -2.7051     4.0830    -1.1411 H       
  25 H25            0.6716     3.5594     1.4525 H       
  26 H26            0.8931     5.9991     1.6462 H       
  27 H27           -2.4711     6.5213    -0.9430 H       
  28 H28            3.0286    -2.2044     0.3501 H       
  29 H29           -2.5980     8.3274     0.0934 H       
  30 H30           -1.3774     9.6119    -0.0753 H       
  31 H31           -1.5090     8.3409    -1.3145 H       
  32 H32            5.3633    -2.8748    -0.3808 H       
  33 H33            5.9172    -1.1231    -0.2178 H       
  34 H34            5.3000    -1.1569     2.2423 H       
  35 H35            4.7461    -2.9085     2.0793 H       
@<TRIPOS>BOND
   1    1    2 2
   2    1    3 1
   3    1    7 1
   4    2    6 1
   5    2    5 1
   6    3    4 1
   7    4    5 2
   8    4   10 1
   9    6   21 1
  10    6   22 1
  11    7    8 1
  12    7    9 2
  13    8   11 ar
  14    8   12 ar
  15   10   16 1
  16   10   23 1
  17   11   15 ar
  18   11   24 1
  19   12   13 ar
  20   12   25 1
  21   13   14 ar
  22   13   26 1
  23   14   15 ar
  24   14   17 1
  25   15   27 1
  26   16   19 1
  27   16   20 1
  28   16   28 1
  29   17   18 1
  30   18   29 1
  31   18   30 1
  32   18   31 1
  33   19   20 1
  34   19   32 1
  35   19   33 1
  36   20   34 1
  37   20   35 1

#	End of record

