#	Name: ASD01100032
#	Creating user name:	WinNT
#	Creation time:	15. 06. 2019 18:58

#	Modifying user name:	WinNT
#	Modification time:	15. 06. 2019 18:58

#	Program:	/corina/corina34_cracker 3.40 0067  02.08.2006

@<TRIPOS>MOLECULE
ASD01100032
  35   36    0    0    0
SMALL
NO_CHARGES


@<TRIPOS>ATOM
   1 C1             0.1619     1.2958    -0.9233 C.ar    
   2 C2             0.2397    -0.0838    -0.9929 C.ar    
   3 C3             1.4405    -0.7221    -0.7385 C.ar    
   4 C4             2.5616     0.0187    -0.4149 C.ar    
   5 C5             2.4833     1.3971    -0.3456 C.ar    
   6 C6             1.2837     2.0355    -0.5997 C.ar    
   7 C7             3.7060     2.2041     0.0077 C.3     
   8 C8             3.4365     3.0068     1.2821 C.3     
   9 C9             3.2200     2.0466     2.4534 C.3     
  10 C10            4.6348     3.9107     1.5784 C.3     
  11 Cl11          -1.1691    -1.0135    -1.3988 Cl      
  12 C12            4.0284     3.1482    -1.1218 C.2     
  13 N13            5.1806     3.8473    -1.1077 N.am    
  14 O14            3.2509     3.2789    -2.0436 O.2     
  15 C15            5.4429     4.7862    -2.1147 C.2     
  16 N16            6.5209     5.5275    -2.2155 N.2     
  17 N17            6.3944     6.3295    -3.3569 N.pl3   
  18 C18            5.2090     6.0471    -3.9371 C.2     
  19 C19            4.6009     5.0935    -3.1955 C.2     
  20 H20           -0.7741     1.7950    -1.1262 H       
  21 H21            1.5017    -1.7990    -0.7923 H       
  22 H22            3.4989    -0.4796    -0.2160 H       
  23 H23            1.2232     3.1124    -0.5453 H       
  24 H24            4.5491     1.5332     0.1724 H       
  25 H25            2.5451     3.6188     1.1444 H       
  26 H26            3.0281     2.6184     3.3613 H       
  27 H27            2.3663     1.4026     2.2423 H       
  28 H28            4.1115     1.4347     2.5911 H       
  29 H29            4.8521     4.5243     0.7041 H       
  30 H30            4.4028     4.5555     2.4261 H       
  31 H31            5.5033     3.2965     1.8162 H       
  32 H32            5.8282     3.7006    -0.4007 H       
  33 H33            7.0448     6.9753    -3.6746 H       
  34 H34            4.8174     6.4992    -4.8363 H       
  35 H35            3.6359     4.6516    -3.3954 H       
@<TRIPOS>BOND
   1    1    2 ar
   2    1    6 ar
   3    1   20 1
   4    2    3 ar
   5    2   11 1
   6    3    4 ar
   7    3   21 1
   8    4    5 ar
   9    4   22 1
  10    5    6 ar
  11    5    7 1
  12    6   23 1
  13    7    8 1
  14    7   12 1
  15    7   24 1
  16    8    9 1
  17    8   10 1
  18    8   25 1
  19    9   26 1
  20    9   27 1
  21    9   28 1
  22   10   29 1
  23   10   30 1
  24   10   31 1
  25   12   13 am
  26   12   14 2
  27   13   15 1
  28   13   32 1
  29   15   16 2
  30   15   19 1
  31   16   17 1
  32   17   18 1
  33   17   33 1
  34   18   19 2
  35   18   34 1
  36   19   35 1

#	End of record

