#	Name: ASD01811282
#	Creating user name:	WinNT
#	Creation time:	15. 06. 2019 19:26

#	Modifying user name:	WinNT
#	Modification time:	15. 06. 2019 19:26

#	Program:	/corina/corina34_cracker 3.40 0067  02.08.2006

@<TRIPOS>MOLECULE
ASD01811282
  62   66    0    0    0
SMALL
NO_CHARGES


@<TRIPOS>ATOM
   1 C1             5.7324     6.2031    -4.1093 C.ar    
   2 C2             6.8085     5.6915    -4.8373 C.ar    
   3 C3             7.4288     4.5315    -4.4219 C.ar    
   4 C4             6.9870     3.8753    -3.2867 C.ar    
   5 C5             5.9212     4.3767    -2.5607 C.ar    
   6 C6             5.2917     5.5357    -2.9647 C.ar    
   7 N7             8.0339     0.3938    -1.1179 N.am    
   8 C8             8.9608     1.5271    -0.9947 C.3     
   9 C9             8.2381     2.8050    -1.4322 C.3     
  10 C10            7.6694     2.6083    -2.8394 C.3     
  11 C11            6.6567     1.4610    -2.8263 C.3     
  12 C12            7.3615     0.1678    -2.4045 C.3     
  13 C13            7.8091    -0.4263    -0.0722 C.2     
  14 C14            8.5928    -0.2698     1.1719 C.ar    
  15 C15            7.9628    -0.3764     2.4141 C.ar    
  16 C16            8.6931    -0.2311     3.5765 C.ar    
  17 C17           10.0498     0.0209     3.5202 C.ar    
  18 C18           10.6921     0.1299     2.2851 C.ar    
  19 C19            9.9620    -0.0214     1.1079 C.ar    
  20 O20            6.9622    -1.2945    -0.1519 O.2     
  21 C21           12.1447     0.4002     2.2266 C.2     
  22 N22           12.9506     0.5589     3.2503 N.2     
  23 C23           10.8386     0.1791     4.7944 C.3     
  24 C24            5.0874     7.4099    -4.5314 C.1     
  25 N25            4.5757     8.3673    -4.8662 N.1     
  26 N26           14.1472     0.7780     2.8362 N.2     
  27 C27           14.1780     0.7726     1.5228 C.2     
  28 N28           12.9076     0.5269     1.0891 N.pl3   
  29 N29           15.2925     0.9739     0.7271 N.pl3   
  30 C30           15.1668     0.9385    -0.7321 C.3     
  31 C31           16.2926     1.7652    -1.3927 C.3     
  32 C32           15.3943    -0.4952    -1.2604 C.3     
  33 O33           16.1149    -0.3216    -2.4999 O.3     
  34 C34           17.0672     0.7332    -2.2420 C.3     
  35 H35            7.1541     6.2025    -5.7237 H       
  36 H36            8.2610     4.1345    -4.9842 H       
  37 H37            5.5815     3.8594    -1.6755 H       
  38 H38            4.4602     5.9262    -2.3969 H       
  39 H39            9.2817     1.6256     0.0424 H       
  40 H40            9.8282     1.3609    -1.6335 H       
  41 H41            7.4255     3.0192    -0.7381 H       
  42 H42            8.9419     3.6374    -1.4374 H       
  43 H43            8.4796     2.3694    -3.5284 H       
  44 H44            5.8590     1.6879    -2.1190 H       
  45 H45            6.2348     1.3367    -3.8237 H       
  46 H46            8.0984    -0.1092    -3.1583 H       
  47 H47            6.6271    -0.6305    -2.2978 H       
  48 H48            6.9020    -0.5727     2.4652 H       
  49 H49            8.2012    -0.3144     4.5344 H       
  50 H50           10.4547     0.0578     0.1501 H       
  51 H51           11.2169    -0.7930     5.1106 H       
  52 H52           11.6754     0.8560     4.6220 H       
  53 H53           10.1942     0.5888     5.5722 H       
  54 H54           12.6047     0.4610     0.1700 H       
  55 H55           16.1568     1.1383     1.1356 H       
  56 H56           14.1893     1.3104    -1.0393 H       
  57 H57           15.8718     2.5442    -2.0284 H       
  58 H58           16.9428     2.2002    -0.6336 H       
  59 H59           15.9906    -1.0704    -0.5521 H       
  60 H60           14.4395    -0.9885    -1.4424 H       
  61 H61           17.3975     1.1834    -3.1780 H       
  62 H62           17.9201     0.3463    -1.6842 H       
@<TRIPOS>BOND
   1    1    2 ar
   2    1    6 ar
   3    1   24 1
   4    2    3 ar
   5    2   35 1
   6    3    4 ar
   7    3   36 1
   8    4    5 ar
   9    4   10 1
  10    5    6 ar
  11    5   37 1
  12    6   38 1
  13    7    8 1
  14    7   12 1
  15    7   13 am
  16    8    9 1
  17    8   39 1
  18    8   40 1
  19    9   10 1
  20    9   41 1
  21    9   42 1
  22   10   11 1
  23   10   43 1
  24   11   12 1
  25   11   44 1
  26   11   45 1
  27   12   46 1
  28   12   47 1
  29   13   14 1
  30   13   20 2
  31   14   15 ar
  32   14   19 ar
  33   15   16 ar
  34   15   48 1
  35   16   17 ar
  36   16   49 1
  37   17   18 ar
  38   17   23 1
  39   18   19 ar
  40   18   21 1
  41   19   50 1
  42   21   22 2
  43   21   28 1
  44   22   26 1
  45   23   51 1
  46   23   52 1
  47   23   53 1
  48   24   25 3
  49   26   27 2
  50   27   28 1
  51   27   29 1
  52   28   54 1
  53   29   30 1
  54   29   55 1
  55   30   31 1
  56   30   32 1
  57   30   56 1
  58   31   34 1
  59   31   57 1
  60   31   58 1
  61   32   33 1
  62   32   59 1
  63   32   60 1
  64   33   34 1
  65   34   61 1
  66   34   62 1

#	End of record

