#	Name: ASD03240614
#	Creating user name:	WinNT
#	Creation time:	15. 06. 2019 20:35

#	Modifying user name:	WinNT
#	Modification time:	15. 06. 2019 20:35

#	Program:	/corina/corina34_cracker 3.40 0067  02.08.2006

@<TRIPOS>MOLECULE
ASD03240614
  68   74    0    0    0
SMALL
NO_CHARGES


@<TRIPOS>ATOM
   1 C1             0.5661     1.2106     2.5118 C.ar    
   2 C2             0.6802    -0.1242     2.8413 C.ar    
   3 N3             1.8592    -0.7154     2.8835 N.ar    
   4 C4             2.9811    -0.0613     2.6149 C.ar    
   5 C5             2.9388     1.2859     2.2612 C.ar    
   6 C6             1.7124     1.9360     2.2145 C.ar    
   7 N7             4.1968    -0.7327     2.7117 N.pl3   
   8 C8             5.1538    -0.3379     3.6426 C.ar    
   9 C9             5.7274     0.9363     3.5761 C.ar    
  10 C10            5.3428     1.8693     2.4942 C.2     
  11 N11            4.1042     1.9938     1.9346 N.pl3   
  12 C12            5.5427    -1.2126     4.6484 C.ar    
  13 C13            6.4825    -0.8196     5.5820 C.ar    
  14 C14            7.0419     0.4453     5.5243 C.ar    
  15 C15            6.6703     1.3247     4.5274 C.ar    
  16 N16            6.1617     2.7227     1.9131 N.2     
  17 C17            5.5018     3.4139     0.9711 C.2     
  18 C18            4.1914     2.9695     0.9620 C.2     
  19 C19            3.1029     3.4443     0.0860 C.ar    
  20 C20            2.9181     4.8129    -0.1249 C.ar    
  21 C21            2.2558     2.5271    -0.5409 C.ar    
  22 C22            1.2406     2.9780    -1.3583 C.ar    
  23 C23            1.0602     4.3354    -1.5585 C.ar    
  24 C24            1.8987     5.2495    -0.9450 C.ar    
  25 C25            6.0737     4.4647     0.0973 C.ar    
  26 C26           -0.0511     4.8202    -2.4535 C.3     
  27 C27            7.0572     5.3217     0.5870 C.ar    
  28 C28            7.5885     6.3028    -0.2367 C.ar    
  29 C29            7.1395     6.4285    -1.5461 C.ar    
  30 C30            6.1634     5.5782    -2.0311 C.ar    
  31 C31            5.6332     4.5953    -1.2202 C.ar    
  32 N32           -1.0909     3.8058    -2.6724 N.3     
  33 C33           -0.6079     6.1968    -2.0537 C.3     
  34 C34           -0.6768     6.5178    -3.5560 C.3     
  35 C35            0.4461     5.4847    -3.7481 C.3     
  36 N36            8.5744     7.1647     0.2496 N.am    
  37 S37            9.9269     7.4705    -0.6558 S.o2    
  38 C38           10.7244     5.8516    -0.8391 C.3     
  39 F39            9.8987     5.0072    -1.5891 F       
  40 O40            9.4185     7.9202    -1.9043 O.2     
  41 O41           10.7128     8.3234     0.1653 O.2     
  42 F42           11.9505     6.0073    -1.4946 F       
  43 F43           10.9391     5.2917     0.4248 F       
  44 H44           -0.4038     1.6848     2.4812 H       
  45 H45           -0.2088    -0.6939     3.0683 H       
  46 H46            1.6516     2.9819     1.9525 H       
  47 H47            4.3788    -1.4833     2.1248 H       
  48 H48            5.1101    -2.2008     4.7012 H       
  49 H49            6.7823    -1.5036     6.3621 H       
  50 H50            7.7718     0.7450     6.2617 H       
  51 H51            7.1086     2.3109     4.4842 H       
  52 H52            3.5717     5.5274     0.3533 H       
  53 H53            2.3959     1.4675    -0.3861 H       
  54 H54            0.5850     2.2701    -1.8436 H       
  55 H55            1.7518     6.3073    -1.1054 H       
  56 H56            7.4043     5.2224     1.6048 H       
  57 H57            7.5542     7.1930    -2.1864 H       
  58 H58            5.8176     5.6807    -3.0491 H       
  59 H59            4.8711     3.9327    -1.6028 H       
  60 H60           -0.6846     2.9270    -2.9563 H       
  61 H61           -1.6627     3.6906    -1.8490 H       
  62 H62           -1.5845     6.1496    -1.5720 H       
  63 H63            0.1052     6.8143    -1.5075 H       
  64 H64           -1.6195     6.2296    -4.0213 H       
  65 H65           -0.3781     7.5375    -3.7988 H       
  66 H66            1.4473     5.9076    -3.6652 H       
  67 H67            0.3203     4.8628    -4.6343 H       
  68 H68            8.4668     7.5841     1.1175 H       
@<TRIPOS>BOND
   1    1    2 ar
   2    1    6 ar
   3    1   44 1
   4    2    3 ar
   5    2   45 1
   6    3    4 ar
   7    4    5 ar
   8    4    7 1
   9    5    6 ar
  10    5   11 1
  11    6   46 1
  12    7    8 1
  13    7   47 1
  14    8    9 ar
  15    8   12 ar
  16    9   10 1
  17    9   15 ar
  18   10   11 1
  19   10   16 2
  20   11   18 1
  21   12   13 ar
  22   12   48 1
  23   13   14 ar
  24   13   49 1
  25   14   15 ar
  26   14   50 1
  27   15   51 1
  28   16   17 1
  29   17   18 2
  30   17   25 1
  31   18   19 1
  32   19   20 ar
  33   19   21 ar
  34   20   24 ar
  35   20   52 1
  36   21   22 ar
  37   21   53 1
  38   22   23 ar
  39   22   54 1
  40   23   24 ar
  41   23   26 1
  42   24   55 1
  43   25   27 ar
  44   25   31 ar
  45   26   33 1
  46   26   32 1
  47   26   35 1
  48   27   28 ar
  49   27   56 1
  50   28   29 ar
  51   28   36 1
  52   29   30 ar
  53   29   57 1
  54   30   31 ar
  55   30   58 1
  56   31   59 1
  57   32   60 1
  58   32   61 1
  59   33   34 1
  60   33   62 1
  61   33   63 1
  62   34   35 1
  63   34   64 1
  64   34   65 1
  65   35   66 1
  66   35   67 1
  67   36   37 am
  68   36   68 1
  69   37   38 1
  70   37   40 2
  71   37   41 2
  72   38   39 1
  73   38   42 1
  74   38   43 1

#	End of record

