#	Name: ASD01900776
#	Creating user name:	WinNT
#	Creation time:	15. 06. 2019 19:52

#	Modifying user name:	WinNT
#	Modification time:	15. 06. 2019 19:52

#	Program:	/corina/corina34_cracker 3.40 0067  02.08.2006

@<TRIPOS>MOLECULE
ASD01900776
  55   59    0    0    0
SMALL
NO_CHARGES


@<TRIPOS>ATOM
   1 C1             0.0411     1.2794    -0.5280 C.ar    
   2 C2             0.0962    -0.1027    -0.5167 C.ar    
   3 C3             1.2990    -0.7606    -0.3487 C.ar    
   4 C4             2.4728    -0.0367    -0.1887 C.ar    
   5 C5             2.4176     1.3635    -0.1962 C.ar    
   6 O6             3.6550    -0.6709    -0.0349 O.3     
   7 C7             4.7488    -0.0291     0.4123 C.2     
   8 C8             4.8420     1.3243     0.4473 C.2     
   9 C9             3.6842     2.1135    -0.0098 C.2     
  10 C10            5.8926    -0.8277     0.8828 C.2     
  11 N11            7.0096    -0.2098     1.3395 N.2     
  12 C12            8.0403    -0.8766     1.7633 C.2     
  13 N13            8.0530    -2.2443     1.7707 N.pl3   
  14 C14            6.9440    -2.9369     1.3174 C.2     
  15 C15            5.8267    -2.2107     0.8646 C.2     
  16 C16            1.2016     2.0222    -0.3681 C.ar    
  17 C17            8.9917    -3.1522     2.1572 C.2     
  18 C18            8.5053    -4.4019     1.9602 C.2     
  19 C19            7.2161    -4.2874     1.4315 C.2     
  20 O20            1.1533     3.3792    -0.3793 O.3     
  21 C21           -0.1300     3.9812    -0.5604 C.3     
  22 C22            0.0144     5.5043    -0.5452 C.3     
  23 C23           -1.3596     6.1488    -0.7391 C.3     
  24 N24           -1.2209     7.6112    -0.7246 N.3     
  25 C25           -2.4707     8.2631    -1.1418 C.3     
  26 C26           -0.1001     8.0426    -1.5726 C.3     
  27 C27            0.0456     9.5639    -1.4815 C.3     
  28 O28           -1.1883    10.1795    -1.8607 O.3     
  29 C29           -2.3013     9.7822    -1.0551 C.3     
  30 N30            3.7688     3.4028    -0.2396 N.2     
  31 O31            2.8879     4.0167    -1.1628 O.3     
  32 H32           -0.9056     1.7806    -0.6660 H       
  33 H33           -0.8119    -0.6741    -0.6403 H       
  34 H34            1.3264    -1.8402    -0.3414 H       
  35 H35            5.7398     1.8097     0.8005 H       
  36 H36            8.9073    -0.3389     2.1177 H       
  37 H37            4.9445    -2.7188     0.5041 H       
  38 H38            9.9668    -2.9146     2.5559 H       
  39 H39            9.0234    -5.3251     2.1737 H       
  40 H40            6.5576    -5.1001     1.1630 H       
  41 H41           -0.5479     3.6654    -1.5163 H       
  42 H42           -0.7939     3.6712     0.2466 H       
  43 H43            0.4323     5.8201     0.4107 H       
  44 H44            0.6783     5.8143    -1.3522 H       
  45 H45           -1.7774     5.8330    -1.6950 H       
  46 H46           -2.0235     5.8388     0.0678 H       
  47 H47           -2.7033     7.9809    -2.1686 H       
  48 H48           -3.2819     7.9493    -0.4848 H       
  49 H49            0.8193     7.5677    -1.2299 H       
  50 H50           -0.2947     7.7568    -2.6063 H       
  51 H51            0.2933     9.8452    -0.4580 H       
  52 H52            0.8385     9.8944    -2.1525 H       
  53 H53           -3.2058    10.2707    -1.4177 H       
  54 H54           -2.1218    10.0699    -0.0192 H       
  55 H55            3.0263     4.9682    -1.2653 H       
@<TRIPOS>BOND
   1    1    2 ar
   2    1   16 ar
   3    1   32 1
   4    2    3 ar
   5    2   33 1
   6    3    4 ar
   7    3   34 1
   8    4    5 ar
   9    4    6 1
  10    5   16 ar
  11    5    9 1
  12    6    7 1
  13    7    8 2
  14    7   10 1
  15    8    9 1
  16    8   35 1
  17    9   30 2
  18   10   11 1
  19   10   15 2
  20   11   12 2
  21   12   13 1
  22   12   36 1
  23   13   14 1
  24   13   17 1
  25   14   15 1
  26   14   19 2
  27   15   37 1
  28   16   20 1
  29   17   18 2
  30   17   38 1
  31   18   19 1
  32   18   39 1
  33   19   40 1
  34   20   21 1
  35   21   22 1
  36   21   41 1
  37   21   42 1
  38   22   23 1
  39   22   43 1
  40   22   44 1
  41   23   24 1
  42   23   45 1
  43   23   46 1
  44   24   25 1
  45   24   26 1
  46   25   29 1
  47   25   47 1
  48   25   48 1
  49   26   27 1
  50   26   49 1
  51   26   50 1
  52   27   28 1
  53   27   51 1
  54   27   52 1
  55   28   29 1
  56   29   53 1
  57   29   54 1
  58   30   31 1
  59   31   55 1

#	End of record

