#	Name: ASD02198346
#	Creating user name:	WinNT
#	Creation time:	15. 06. 2019 20:19

#	Modifying user name:	WinNT
#	Modification time:	15. 06. 2019 20:19

#	Program:	/corina/corina34_cracker 3.40 0067  02.08.2006

@<TRIPOS>MOLECULE
ASD02198346
  46   49    0    0    0
SMALL
NO_CHARGES


@<TRIPOS>ATOM
   1 C1             5.2438     2.8284     1.2160 C.2     
   2 C2             5.7980     1.5621     1.2653 C.2     
   3 S3             3.8299     2.7534     0.1678 S.3     
   4 C4             4.0978     1.0877    -0.1024 C.2     
   5 N5             5.1490     0.6764     0.5465 N.2     
   6 N6             6.9305     1.2576     2.0031 N.pl3   
   7 C7             5.7201     3.9698     1.8873 C.2     
   8 C8             5.1047     5.2910     1.6291 C.ar    
   9 O9             6.6398     3.8705     2.6817 O.2     
  10 N10            3.3086     0.2882    -0.8990 N.pl3   
  11 C11            5.1050     6.2703     2.6230 C.ar    
  12 C12            4.5268     5.5642     0.3887 C.ar    
  13 C13            3.9552     6.7978     0.1541 C.ar    
  14 C14            3.9545     7.7630     1.1454 C.ar    
  15 C15            4.5301     7.4999     2.3758 C.ar    
  16 C16            3.6844    -1.0344    -1.1524 C.ar    
  17 C17            2.7260    -1.9944    -1.4522 C.ar    
  18 N18            3.0766    -3.2419    -1.6921 N.ar    
  19 C19            4.3371    -3.6283    -1.6583 C.ar    
  20 C20            5.3477    -2.7311    -1.3673 C.ar    
  21 C21            5.0256    -1.4078    -1.1137 C.ar    
  22 C22            4.6806    -5.0683    -1.9404 C.3     
  23 C23            3.8989    -5.9622    -1.0124 C.ar    
  24 C24            2.6524    -6.4271    -1.3878 C.ar    
  25 C25            4.4309    -6.3219     0.2117 C.ar    
  26 C26            3.7139    -7.1418     1.0629 C.ar    
  27 C27            2.4648    -7.6018     0.6901 C.ar    
  28 C28            1.9354    -7.2470    -0.5366 C.ar    
  29 H29            7.3740     1.9494     2.5185 H       
  30 H30            7.2798     0.3527     2.0044 H       
  31 H31            2.4920     0.6428    -1.2843 H       
  32 H32            5.5539     6.0662     3.5838 H       
  33 H33            4.5274     4.8119    -0.3861 H       
  34 H34            3.5077     7.0106    -0.8055 H       
  35 H35            3.5064     8.7273     0.9566 H       
  36 H36            4.5260     8.2574     3.1456 H       
  37 H37            1.6832    -1.7157    -1.4887 H       
  38 H38            6.3770    -3.0572    -1.3421 H       
  39 H39            5.7947    -0.6854    -0.8838 H       
  40 H40            4.4272    -5.3066    -2.9734 H       
  41 H41            5.7476    -5.2250    -1.7825 H       
  42 H42            2.2385    -6.1494    -2.3459 H       
  43 H43            5.4068    -5.9625     0.5029 H       
  44 H44            4.1298    -7.4234     2.0190 H       
  45 H45            1.9047    -8.2427     1.3549 H       
  46 H46            0.9594    -7.6064    -0.8279 H       
@<TRIPOS>BOND
   1    1    2 2
   2    1    3 1
   3    1    7 1
   4    2    6 1
   5    2    5 1
   6    3    4 1
   7    4    5 2
   8    4   10 1
   9    6   29 1
  10    6   30 1
  11    7    8 1
  12    7    9 2
  13    8   11 ar
  14    8   12 ar
  15   10   16 1
  16   10   31 1
  17   11   15 ar
  18   11   32 1
  19   12   13 ar
  20   12   33 1
  21   13   14 ar
  22   13   34 1
  23   14   15 ar
  24   14   35 1
  25   15   36 1
  26   16   17 ar
  27   16   21 ar
  28   17   18 ar
  29   17   37 1
  30   18   19 ar
  31   19   20 ar
  32   19   22 1
  33   20   21 ar
  34   20   38 1
  35   21   39 1
  36   22   23 1
  37   22   40 1
  38   22   41 1
  39   23   24 ar
  40   23   25 ar
  41   24   28 ar
  42   24   42 1
  43   25   26 ar
  44   25   43 1
  45   26   27 ar
  46   26   44 1
  47   27   28 ar
  48   27   45 1
  49   28   46 1

#	End of record

