#	Name: ASD01150728
#	Creating user name:	WinNT
#	Creation time:	15. 06. 2019 19:04

#	Modifying user name:	WinNT
#	Modification time:	15. 06. 2019 19:04

#	Program:	/corina/corina34_cracker 3.40 0067  02.08.2006

@<TRIPOS>MOLECULE
ASD01150728
  32   33    0    0    0
SMALL
NO_CHARGES


@<TRIPOS>ATOM
   1 C1            -0.0208     1.2292     0.0371 C.2     
   2 O2            -0.0110     0.0181    -0.0723 O.2     
   3 C3             1.2521     1.9708     0.1571 C.ar    
   4 C4             2.4604     1.2781     0.2598 C.ar    
   5 C5             3.6446     1.9765     0.3709 C.ar    
   6 C6             3.6373     3.3602     0.3813 C.ar    
   7 C7             2.4436     4.0529     0.2799 C.ar    
   8 C8             1.2525     3.3672     0.1624 C.ar    
   9 S9             5.1547     4.2442     0.5249 S.o2    
  10 O10            4.7834     5.4852     1.1091 O.2     
  11 O11            6.0211     3.3452     1.2033 O.2     
  12 C12            5.7019     4.4853    -1.1878 C.3     
  13 C13           -1.3012     1.9578     0.0440 C.ar    
  14 C14           -1.8190     2.4663     1.2472 C.ar    
  15 C15           -3.0273     3.1515     1.2401 C.ar    
  16 C16           -3.7138     3.3305     0.0565 C.ar    
  17 C17           -3.2062     2.8298    -1.1328 C.ar    
  18 C18           -2.0062     2.1528    -1.1475 C.ar    
  19 I19           -4.2650     3.1122    -2.9184 I       
  20 N20           -1.1268     2.2846     2.4370 N.pl3   
  21 H21            2.4674     0.1982     0.2525 H       
  22 H22            4.5798     1.4421     0.4504 H       
  23 H23            2.4449     5.1329     0.2890 H       
  24 H24            0.3220     3.9091     0.0792 H       
  25 H25            4.9492     5.0548    -1.7329 H       
  26 H26            6.6455     5.0308    -1.1943 H       
  27 H27            5.8397     3.5151    -1.6651 H       
  28 H28           -3.4301     3.5441     2.1620 H       
  29 H29           -4.6529     3.8640     0.0565 H       
  30 H30           -1.6130     1.7694    -2.0774 H       
  31 H31           -0.3225     1.7425     2.4522 H       
  32 H32           -1.4474     2.6997     3.2529 H       
@<TRIPOS>BOND
   1    1    2 2
   2    1    3 1
   3    1   13 1
   4    3    4 ar
   5    3    8 ar
   6    4    5 ar
   7    4   21 1
   8    5    6 ar
   9    5   22 1
  10    6    7 ar
  11    6    9 1
  12    7    8 ar
  13    7   23 1
  14    8   24 1
  15    9   10 2
  16    9   11 2
  17    9   12 1
  18   12   25 1
  19   12   26 1
  20   12   27 1
  21   13   14 ar
  22   13   18 ar
  23   14   15 ar
  24   14   20 1
  25   15   16 ar
  26   15   28 1
  27   16   17 ar
  28   16   29 1
  29   17   18 ar
  30   17   19 1
  31   18   30 1
  32   20   31 1
  33   20   32 1

#	End of record

