#	Name: ASD01815838
#	Creating user name:	WinNT
#	Creation time:	15. 06. 2019 19:34

#	Modifying user name:	WinNT
#	Modification time:	15. 06. 2019 19:34

#	Program:	/corina/corina34_cracker 3.40 0067  02.08.2006

@<TRIPOS>MOLECULE
ASD01815838
  54   59    0    0    0
SMALL
NO_CHARGES


@<TRIPOS>ATOM
   1 C1             0.3185     1.7007     0.0551 C.ar    
   2 C2             0.2123     0.3137     0.0397 C.ar    
   3 C3             1.3238    -0.4748     0.0127 C.ar    
   4 C4             2.5966     0.1159     0.0001 C.ar    
   5 C5             2.7009     1.5282     0.0158 C.ar    
   6 C6             1.5402     2.3080     0.0435 C.ar    
   7 C7             3.7648    -0.6743    -0.0282 C.ar    
   8 C8             4.9944    -0.1067    -0.0409 C.ar    
   9 C9             5.1532     1.2878    -0.0263 C.ar    
  10 C10            4.0294     2.1336     0.0026 C.ar    
  11 C11            6.4813     1.9142    -0.0408 C.2     
  12 N12            6.5333     3.2664    -0.0259 N.am    
  13 C13            5.3920     3.9989     0.0019 C.2     
  14 N14            4.2053     3.4655     0.0148 N.2     
  15 C15            7.8320     3.9442    -0.0393 C.3     
  16 C16            7.9319     4.8357    -1.2809 C.3     
  17 C17            7.9685     4.8151     1.2134 C.3     
  18 C18            9.2935     5.5795     1.1521 C.3     
  19 O19            9.3342     6.3645    -0.0414 O.3     
  20 C20            9.2583     5.5993    -1.2459 C.3     
  21 O21            7.4970     1.2426    -0.0649 O.2     
  22 C22            3.6424    -2.1763    -0.0442 C.3     
  23 C23            3.5367    -2.6867     1.3698 C.2     
  24 C24            2.4064    -2.7900     2.1027 C.2     
  25 O25            7.9494     3.9851     2.3765 O.3     
  26 N26            2.7201    -3.2838     3.3029 N.2     
  27 C27            4.0268    -3.4998     3.3565 C.2     
  28 N28            4.5667    -3.1379     2.1495 N.pl3   
  29 C29            4.8647    -4.0027     4.3720 C.2     
  30 C30            6.2001    -4.1156     4.1389 C.2     
  31 C31            6.7241    -3.7307     2.8938 C.2     
  32 C32            5.9081    -3.2578     1.9284 C.2     
  33 H33           -0.5771     2.3041     0.0719 H       
  34 H34           -0.7654    -0.1452     0.0496 H       
  35 H35            1.2253    -1.5503     0.0014 H       
  36 H36            1.6106     3.3856     0.0553 H       
  37 H37            5.8696    -0.7392    -0.0622 H       
  38 H38            5.4721     5.0759     0.0139 H       
  39 H39            8.6303     3.2023    -0.0579 H       
  40 H40            7.8912     4.2172    -2.1776 H       
  41 H41            7.1037     5.5443    -1.2882 H       
  42 H42            7.1410     5.5233     1.2565 H       
  43 H43            9.3764     6.2334     2.0202 H       
  44 H44           10.1220     4.8713     1.1498 H       
  45 H45           10.0864     4.8913    -1.2795 H       
  46 H46            9.3159     6.2674    -2.1052 H       
  47 H47            2.7503    -2.4622    -0.6014 H       
  48 H48            4.5225    -2.6075    -0.5213 H       
  49 H49            1.4146    -2.5181     1.7728 H       
  50 H50            8.0318     4.4715     3.2082 H       
  51 H51            4.4508    -4.2953     5.3256 H       
  52 H52            6.8545    -4.4990     4.9078 H       
  53 H53            7.7840    -3.8192     2.7060 H       
  54 H54            6.3214    -2.9647     0.9746 H       
@<TRIPOS>BOND
   1    1    2 ar
   2    1    6 ar
   3    1   33 1
   4    2    3 ar
   5    2   34 1
   6    3    4 ar
   7    3   35 1
   8    4    5 ar
   9    4    7 ar
  10    5    6 ar
  11    5   10 ar
  12    6   36 1
  13    7    8 ar
  14    7   22 1
  15    8    9 ar
  16    8   37 1
  17    9   10 ar
  18    9   11 1
  19   10   14 1
  20   11   12 am
  21   11   21 2
  22   12   13 1
  23   12   15 1
  24   13   14 2
  25   13   38 1
  26   15   16 1
  27   15   17 1
  28   15   39 1
  29   16   20 1
  30   16   40 1
  31   16   41 1
  32   17   18 1
  33   17   25 1
  34   17   42 1
  35   18   19 1
  36   18   43 1
  37   18   44 1
  38   19   20 1
  39   20   45 1
  40   20   46 1
  41   22   23 1
  42   22   47 1
  43   22   48 1
  44   23   24 2
  45   23   28 1
  46   24   26 1
  47   24   49 1
  48   25   50 1
  49   26   27 2
  50   27   28 1
  51   27   29 1
  52   28   32 1
  53   29   30 2
  54   29   51 1
  55   30   31 1
  56   30   52 1
  57   31   32 2
  58   31   53 1
  59   32   54 1

#	End of record

