#	Name: ASD08150555
#	Creating user name:	WinNT
#	Creation time:	15. 06. 2019 21:16

#	Modifying user name:	WinNT
#	Modification time:	15. 06. 2019 21:16

#	Program:	/corina/corina34_cracker 3.40 0067  02.08.2006

@<TRIPOS>MOLECULE
ASD08150555
  70   76    0    0    0
SMALL
NO_CHARGES


@<TRIPOS>ATOM
   1 N1             0.0242     1.4230    -0.7712 N.am    
   2 C2             0.0505     0.0937    -0.9883 C.2     
   3 C3             1.2689    -0.6152    -0.9905 C.2     
   4 C4             2.4391     0.0371    -0.7723 C.2     
   5 C5             2.4151     1.4356    -0.5440 C.ar    
   6 C6             3.6000     2.1602    -0.3126 C.ar    
   7 N7             3.5749     3.4503    -0.1018 N.ar    
   8 C8             2.4327     4.1541    -0.0938 C.ar    
   9 C9             1.1924     3.5072    -0.3181 C.ar    
  10 C10            1.1849     2.1113    -0.5485 C.ar    
  11 C11            0.0604     5.6149    -0.0762 C.ar    
  12 C12            1.2915     6.2481     0.1450 C.ar    
  13 C13            2.4522     5.5393     0.1374 C.ar    
  14 O14           -0.9936    -0.5043    -1.1852 O.2     
  15 C15           -1.1993     2.1056    -0.7794 C.ar    
  16 C16           -1.8072     2.4265    -1.9861 C.ar    
  17 C17           -3.0137     3.0990    -1.9942 C.ar    
  18 C18           -3.6187     3.4544    -0.7942 C.ar    
  19 C19           -3.0099     3.1330     0.4121 C.ar    
  20 C20           -1.8069     2.4562     0.4195 C.ar    
  21 C21            0.0078     4.2497    -0.3072 C.ar    
  22 C22           -1.1915     6.4100    -0.0624 C.ar    
  23 C23           -2.4382     5.7672    -0.1241 C.ar    
  24 N24           -4.8402     4.1358    -0.8016 N.3     
  25 Cl25          -3.7737     3.5009    -3.5023 Cl      
  26 N26           -3.5588     6.4432    -0.1132 N.ar    
  27 C27           -3.5728     7.7786    -0.0428 C.ar    
  28 C28           -2.3544     8.5006     0.0225 C.ar    
  29 C29           -1.1394     7.7942     0.0175 C.ar    
  30 C30           -4.7868     8.4874    -0.0328 C.ar    
  31 C31           -4.7760     9.8464     0.0390 C.ar    
  32 C32           -3.5773    10.5542     0.1028 C.ar    
  33 C33           -2.3814     9.9037     0.0954 C.ar    
  34 C34           -5.9613     3.2050    -0.9878 C.3     
  35 C35           -4.8482     5.1908    -1.8238 C.3     
  36 C36           -6.1241     6.0272    -1.6798 C.3     
  37 N37           -7.2826     5.1216    -1.7117 N.am    
  38 C38           -7.2828     3.9600    -0.8095 C.3     
  39 C39           -8.3167     5.3503    -2.5452 C.2     
  40 C40           -9.4937     4.4093    -2.5615 C.3     
  41 O41           -8.3001     6.3133    -3.2822 O.2     
  42 C42          -10.5196     4.8935    -3.5881 C.3     
  43 H43            1.2712    -1.6809    -1.1659 H       
  44 H44            3.3750    -0.5019    -0.7723 H       
  45 H45            4.5468     1.6407    -0.3087 H       
  46 H46            1.3186     7.3129     0.3235 H       
  47 H47            3.3917     6.0432     0.3100 H       
  48 H48           -1.3365     2.1505    -2.9182 H       
  49 H49           -3.4799     3.4090     1.3445 H       
  50 H50           -1.3339     2.2061     1.3577 H       
  51 H51           -0.9411     3.7629    -0.4778 H       
  52 H52           -2.4732     4.6893    -0.1823 H       
  53 H53           -0.1937     8.3135     0.0661 H       
  54 H54           -5.7252     7.9550    -0.0824 H       
  55 H55           -5.7120    10.3852     0.0463 H       
  56 H56           -3.5972    11.6325     0.1584 H       
  57 H57           -1.4588    10.4628     0.1456 H       
  58 H58           -5.9179     2.7793    -1.9903 H       
  59 H59           -5.8966     2.4056    -0.2496 H       
  60 H60           -3.9764     5.8317    -1.6920 H       
  61 H61           -4.8204     4.7375    -2.8147 H       
  62 H62           -6.1050     6.5640    -0.7313 H       
  63 H63           -6.1916     6.7371    -2.5042 H       
  64 H64           -8.1162     3.3031    -1.0585 H       
  65 H65           -7.3750     4.2980     0.2226 H       
  66 H66           -9.1552     3.4086    -2.8302 H       
  67 H67           -9.9527     4.3844    -1.5731 H       
  68 H68          -10.8581     5.8941    -3.3194 H       
  69 H69          -10.0607     4.9184    -4.5765 H       
  70 H70          -11.3709     4.2129    -3.5999 H       
@<TRIPOS>BOND
   1    1    2 am
   2    1   10 1
   3    1   15 1
   4    2    3 1
   5    2   14 2
   6    3    4 2
   7    3   43 1
   8    4    5 1
   9    4   44 1
  10    5    6 ar
  11    5   10 ar
  12    6    7 ar
  13    6   45 1
  14    7    8 ar
  15    8    9 ar
  16    8   13 ar
  17    9   10 ar
  18    9   21 ar
  19   11   12 ar
  20   11   22 1
  21   11   21 ar
  22   12   13 ar
  23   12   46 1
  24   13   47 1
  25   15   16 ar
  26   15   20 ar
  27   16   17 ar
  28   16   48 1
  29   17   18 ar
  30   17   25 1
  31   18   19 ar
  32   18   24 1
  33   19   20 ar
  34   19   49 1
  35   20   50 1
  36   21   51 1
  37   22   23 ar
  38   22   29 ar
  39   23   26 ar
  40   23   52 1
  41   24   34 1
  42   24   35 1
  43   26   27 ar
  44   27   28 ar
  45   27   30 ar
  46   28   29 ar
  47   28   33 ar
  48   29   53 1
  49   30   31 ar
  50   30   54 1
  51   31   32 ar
  52   31   55 1
  53   32   33 ar
  54   32   56 1
  55   33   57 1
  56   34   38 1
  57   34   58 1
  58   34   59 1
  59   35   36 1
  60   35   60 1
  61   35   61 1
  62   36   37 1
  63   36   62 1
  64   36   63 1
  65   37   38 1
  66   37   39 am
  67   38   64 1
  68   38   65 1
  69   39   40 1
  70   39   41 2
  71   40   42 1
  72   40   66 1
  73   40   67 1
  74   42   68 1
  75   42   69 1
  76   42   70 1

#	End of record

