#	Name: ASD03330745
#	Creating user name:	WinNT
#	Creation time:	15. 06. 2019 20:37

#	Modifying user name:	WinNT
#	Modification time:	15. 06. 2019 20:37

#	Program:	/corina/corina34_cracker 3.40 0067  02.08.2006

@<TRIPOS>MOLECULE
ASD03330745
  60   62    0    0    0
SMALL
NO_CHARGES


@<TRIPOS>ATOM
   1 C1            -0.0159     1.3550     0.0393 C.2     
   2 N2             0.0042    -0.0047     0.0504 N.pl3   
   3 C3             1.2778     1.7739    -0.0302 C.2     
   4 N4             2.0647     0.6764    -0.0780 N.2     
   5 C5             1.3084    -0.3957    -0.0359 C.2     
   6 C6             1.7895    -1.7933    -0.0759 C.ar    
   7 C7             1.7375     3.1737    -0.0499 C.2     
   8 O8             0.9282     4.0803    -0.0017 O.2     
   9 C9             3.5119     4.8412    -0.1409 C.3     
  10 N10            3.0548     3.4495    -0.1213 N.am    
  11 C11            3.4728     5.3707    -1.5758 C.3     
  12 C12            4.9230     4.9139     0.3831 C.2     
  13 O13            5.4910     3.9027     0.7379 O.2     
  14 C14           -1.1733    -0.8712     0.1521 C.3     
  15 C15           -2.2421    -0.3838    -0.8312 C.3     
  16 C16           -3.1085     0.6804    -0.1656 C.3     
  17 N17           -2.3245     1.4887     0.7703 N.3     
  18 C18           -1.2510     2.2171     0.0780 C.3     
  19 C19            2.7352    -2.1828    -1.0288 C.ar    
  20 C20            1.3056    -2.7270     0.8409 C.ar    
  21 C21            1.7575    -4.0294     0.7995 C.ar    
  22 C22            2.6909    -4.4130    -0.1505 C.ar    
  23 C23            3.1804    -3.4903    -1.0606 C.ar    
  24 C24           -3.1876     2.4109     1.5205 C.3     
  25 N25            5.5539     6.1026     0.4574 N.am    
  26 C26            6.9256     6.1732     0.9668 C.3     
  27 C27            2.0234     5.4138    -2.0641 C.3     
  28 C28            1.2361     6.4310    -1.2357 C.3     
  29 C29            1.9938     5.8240    -3.5378 C.3     
  30 F30            3.2122    -1.2832    -1.9166 F       
  31 F31            3.1293    -5.6904    -0.1856 F       
  32 H32            2.8592     5.4468     0.4879 H       
  33 H33            3.7003     2.7264    -0.1598 H       
  34 H34            3.8957     6.3749    -1.6041 H       
  35 H35            4.0545     4.7131    -2.2217 H       
  36 H36           -0.8938    -1.8960    -0.0921 H       
  37 H37           -1.5677    -0.8322     1.1676 H       
  38 H38           -1.7585     0.0407    -1.7110 H       
  39 H39           -2.8676    -1.2241    -1.1325 H       
  40 H40           -3.5300     1.3298    -0.9329 H       
  41 H41           -3.9203     0.1938     0.3752 H       
  42 H42           -1.0337     3.1414     0.6133 H       
  43 H43           -1.5655     2.4493    -0.9396 H       
  44 H44            0.5785    -2.4302     1.5822 H       
  45 H45            1.3832    -4.7522     1.5094 H       
  46 H46            3.9074    -3.7946    -1.7991 H       
  47 H47           -3.9253     1.8403     2.0846 H       
  48 H48           -2.5798     2.9990     2.2081 H       
  49 H49           -3.6979     3.0776     0.8253 H       
  50 H50            5.0996     6.9113     0.1736 H       
  51 H51            7.2657     7.2087     0.9522 H       
  52 H52            6.9535     5.7960     1.9890 H       
  53 H53            7.5783     5.5676     0.3380 H       
  54 H54            1.5729     4.4276    -1.9524 H       
  55 H55            1.6866     7.4172    -1.3474 H       
  56 H56            0.2036     6.4617    -1.5836 H       
  57 H57            1.2572     6.1387    -0.1858 H       
  58 H58            2.5547     5.0994    -4.1280 H       
  59 H59            0.9613     5.8547    -3.8858 H       
  60 H60            2.4443     6.8102    -3.6496 H       
@<TRIPOS>BOND
   1    1    2 1
   2    1    3 2
   3    1   18 1
   4    2   14 1
   5    2    5 1
   6    3    4 1
   7    3    7 1
   8    4    5 2
   9    5    6 1
  10    6   20 ar
  11    6   19 ar
  12    7    8 2
  13    7   10 am
  14    9   10 1
  15    9   11 1
  16    9   12 1
  17    9   32 1
  18   10   33 1
  19   11   27 1
  20   11   34 1
  21   11   35 1
  22   12   13 2
  23   12   25 am
  24   14   15 1
  25   14   36 1
  26   14   37 1
  27   15   16 1
  28   15   38 1
  29   15   39 1
  30   16   17 1
  31   16   40 1
  32   16   41 1
  33   17   18 1
  34   17   24 1
  35   18   42 1
  36   18   43 1
  37   19   30 1
  38   19   23 ar
  39   20   21 ar
  40   20   44 1
  41   21   22 ar
  42   21   45 1
  43   22   23 ar
  44   22   31 1
  45   23   46 1
  46   24   47 1
  47   24   48 1
  48   24   49 1
  49   25   26 1
  50   25   50 1
  51   26   51 1
  52   26   52 1
  53   26   53 1
  54   27   28 1
  55   27   29 1
  56   27   54 1
  57   28   55 1
  58   28   56 1
  59   28   57 1
  60   29   58 1
  61   29   59 1
  62   29   60 1

#	End of record

