#	Name: ASD01120035
#	Creating user name:	WinNT
#	Creation time:	15. 06. 2019 18:58

#	Modifying user name:	WinNT
#	Modification time:	15. 06. 2019 18:58

#	Program:	/corina/corina34_cracker 3.40 0067  02.08.2006

@<TRIPOS>MOLECULE
ASD01120035
  51   54    0    0    0
SMALL
NO_CHARGES


@<TRIPOS>ATOM
   1 C1            -0.0156     1.4017    -0.0380 C.ar    
   2 C2             0.0046     0.0002    -0.0599 C.ar    
   3 C3            -1.1692    -0.7204    -0.0511 C.ar    
   4 C4            -2.3942    -0.0433    -0.0199 C.ar    
   5 C5            -2.4067     1.3735     0.0022 C.ar    
   6 C6            -1.1995     2.0823    -0.0018 C.ar    
   7 N7            -3.5656    -0.6986    -0.0106 N.ar    
   8 C8            -4.6978    -0.0367     0.0184 C.ar    
   9 N9            -4.7582     1.2853     0.0398 N.ar    
  10 C10           -3.6602     2.0298     0.0331 C.ar    
  11 N11           -3.7382     3.4079     0.0556 N.pl3   
  12 C12           -4.9822     4.0392    -0.0351 C.ar    
  13 O13            1.1564     2.0913    -0.0473 O.3     
  14 O14            1.1947    -0.6542    -0.0906 O.3     
  15 C15           -5.2110     5.2230     0.6501 C.ar    
  16 C16           -6.4516     5.8482     0.5563 C.ar    
  17 C17           -7.4563     5.2812    -0.2254 C.ar    
  18 C18           -7.2209     4.1020    -0.9044 C.ar    
  19 C19           -5.9885     3.4836    -0.8167 C.ar    
  20 C20           -6.7034     7.1150     1.2872 C.ar    
  21 C21            1.0702     3.5175    -0.0238 C.3     
  22 C22            2.4790     4.1139    -0.0386 C.3     
  23 C23            1.1493    -2.0823    -0.1118 C.3     
  24 C24            2.5747    -2.6374    -0.1450 C.3     
  25 C25           -7.9447     7.7504     1.1998 C.ar    
  26 C26           -8.1295     8.9297     1.9012 C.ar    
  27 C27           -7.0896     9.4363     2.6586 C.ar    
  28 N28           -5.9282     8.8139     2.7216 N.ar    
  29 C29           -5.7077     7.6868     2.0765 C.ar    
  30 H30           -1.1447    -1.8000    -0.0685 H       
  31 H31           -1.2042     3.1622     0.0153 H       
  32 H32           -5.6219    -0.5954     0.0248 H       
  33 H33           -2.9298     3.9382     0.1344 H       
  34 H34           -4.4294     5.6585     1.2550 H       
  35 H35           -8.4194     5.7640    -0.3000 H       
  36 H36           -8.0012     3.6641    -1.5094 H       
  37 H37           -5.8094     2.5616    -1.3499 H       
  38 H38            0.5203     3.8627    -0.8994 H       
  39 H39            0.5505     3.8353     0.8801 H       
  40 H40            3.0289     3.7687     0.8370 H       
  41 H41            2.9987     3.7961    -0.9425 H       
  42 H42            2.4133     5.2018    -0.0207 H       
  43 H43            0.6397    -2.4429     0.7817 H       
  44 H44            0.6089    -2.4156    -0.9977 H       
  45 H45            3.1152    -2.3041     0.7410 H       
  46 H46            2.5401    -3.7267    -0.1612 H       
  47 H47            3.0843    -2.2767    -1.0385 H       
  48 H48           -8.7396     7.3324     0.6000 H       
  49 H49           -9.0757     9.4486     1.8568 H       
  50 H50           -7.2302    10.3560     3.2070 H       
  51 H51           -4.7433     7.2066     2.1526 H       
@<TRIPOS>BOND
   1    1    2 ar
   2    1   13 1
   3    1    6 ar
   4    2    3 ar
   5    2   14 1
   6    3    4 ar
   7    3   30 1
   8    4    5 ar
   9    4    7 ar
  10    5    6 ar
  11    5   10 ar
  12    6   31 1
  13    7    8 ar
  14    8    9 ar
  15    8   32 1
  16    9   10 ar
  17   10   11 1
  18   11   12 1
  19   11   33 1
  20   12   15 ar
  21   12   19 ar
  22   13   21 1
  23   14   23 1
  24   15   16 ar
  25   15   34 1
  26   16   17 ar
  27   16   20 1
  28   17   18 ar
  29   17   35 1
  30   18   19 ar
  31   18   36 1
  32   19   37 1
  33   20   25 ar
  34   20   29 ar
  35   21   22 1
  36   21   38 1
  37   21   39 1
  38   22   40 1
  39   22   41 1
  40   22   42 1
  41   23   24 1
  42   23   43 1
  43   23   44 1
  44   24   45 1
  45   24   46 1
  46   24   47 1
  47   25   26 ar
  48   25   48 1
  49   26   27 ar
  50   26   49 1
  51   27   28 ar
  52   27   50 1
  53   28   29 ar
  54   29   51 1

#	End of record

