#	Name: ASD04170003
#	Creating user name:	WinNT
#	Creation time:	15. 06. 2019 20:48

#	Modifying user name:	WinNT
#	Modification time:	15. 06. 2019 20:48

#	Program:	/corina/corina34_cracker 3.40 0067  02.08.2006

@<TRIPOS>MOLECULE
ASD04170003
  39   41    0    0    0
SMALL
NO_CHARGES


@<TRIPOS>ATOM
   1 C1            -0.0793     0.9293     0.4148 C.3     
   2 N2             0.1730    -0.4766     0.7515 N.3     
   3 C3             1.1084    -0.5967     1.8769 C.3     
   4 C4             0.5017     0.0631     3.1175 C.3     
   5 C5             0.2255     1.5393     2.8190 C.3     
   6 C6             1.5466     2.2423     2.4881 C.3     
   7 N7             2.0927     1.6614     1.2539 N.am    
   8 C8             1.2420     1.6162     0.0570 C.3     
   9 C9            -0.7126     1.6412     1.6124 C.3     
  10 C10            3.3509     1.1795     1.2203 C.2     
  11 O11            4.0450     1.2229     2.2168 O.2     
  12 O12            3.8390     0.6498     0.0823 O.3     
  13 C13            0.6595    -1.2191    -0.4189 C.3     
  14 C14            5.0736     0.0841     0.1447 C.ar    
  15 C15            6.1726     0.7572    -0.3686 C.ar    
  16 C16            7.4263     0.1807    -0.3043 C.ar    
  17 C17            7.5862    -1.0673     0.2712 C.ar    
  18 C18            6.4913    -1.7403     0.7832 C.ar    
  19 C19            5.2370    -1.1644     0.7268 C.ar    
  20 Br20           9.3035    -1.8543     0.3573 Br      
  21 H21           -0.7579     0.9822    -0.4366 H       
  22 H22            1.2972    -1.6505     2.0815 H       
  23 H23            2.0462    -0.1020     1.6243 H       
  24 H24           -0.4316    -0.4370     3.3762 H       
  25 H25            1.2007    -0.0154     3.9502 H       
  26 H26           -0.2315     2.0096     3.6896 H       
  27 H27            1.3676     3.3076     2.3428 H       
  28 H28            2.2533     2.0959     3.3050 H       
  29 H29            1.7459     1.0523    -0.7281 H       
  30 H30            1.0443     2.6307    -0.2891 H       
  31 H31           -0.8762     2.6905     1.3668 H       
  32 H32           -1.6661     1.1708     1.8525 H       
  33 H33            1.5888    -0.7721    -0.7722 H       
  34 H34            0.8385    -2.2579    -0.1415 H       
  35 H35           -0.0877    -1.1782    -1.2115 H       
  36 H36            6.0482     1.7311    -0.8185 H       
  37 H37            8.2822     0.7043    -0.7037 H       
  38 H38            6.6181    -2.7146     1.2317 H       
  39 H39            4.3833    -1.6879     1.1313 H       
@<TRIPOS>BOND
   1    1    2 1
   2    1    8 1
   3    1    9 1
   4    1   21 1
   5    2    3 1
   6    2   13 1
   7    3    4 1
   8    3   22 1
   9    3   23 1
  10    4    5 1
  11    4   24 1
  12    4   25 1
  13    5    6 1
  14    5    9 1
  15    5   26 1
  16    6    7 1
  17    6   27 1
  18    6   28 1
  19    7    8 1
  20    7   10 am
  21    8   29 1
  22    8   30 1
  23    9   31 1
  24    9   32 1
  25   10   11 2
  26   10   12 1
  27   12   14 1
  28   13   33 1
  29   13   34 1
  30   13   35 1
  31   14   15 ar
  32   14   19 ar
  33   15   16 ar
  34   15   36 1
  35   16   17 ar
  36   16   37 1
  37   17   18 ar
  38   17   20 1
  39   18   19 ar
  40   18   38 1
  41   19   39 1

#	End of record

