#	Name: ASD06140015
#	Creating user name:	WinNT
#	Creation time:	15. 06. 2019 21:05

#	Modifying user name:	WinNT
#	Modification time:	15. 06. 2019 21:05

#	Program:	/corina/corina34_cracker 3.40 0067  02.08.2006

@<TRIPOS>MOLECULE
ASD06140015
  35   36    0    0    0
SMALL
NO_CHARGES


@<TRIPOS>ATOM
   1 C1             0.5911     1.3701    -0.2281 C.2     
   2 C2             0.5739     0.0188    -0.2119 C.2     
   3 C3            -0.6637    -0.7215     0.0384 C.2     
   4 C4            -1.8439    -0.1100     0.2646 C.2     
   5 C5            -1.9486     1.2961     0.2724 C.2     
   6 C6            -0.7006     2.1155     0.0259 C.3     
   7 C7            -0.6170    -2.2278     0.0429 C.3     
   8 S8            -0.4834    -2.8323    -1.6580 S.3     
   9 C9            -0.4491    -4.5692    -1.3635 C.2     
  10 N10           -0.3526    -5.4265    -2.3990 N.am    
  11 O11           -0.5126    -4.9945    -0.2258 O.2     
  12 C12           -0.2271    -6.8001    -2.1610 C.ar    
  13 C13           -0.8911    -7.3840    -1.0903 C.ar    
  14 C14            0.5572    -7.5823    -2.9985 C.ar    
  15 C15            0.6793    -8.9374    -2.7613 C.ar    
  16 C16            0.0208    -9.5157    -1.6907 C.ar    
  17 C17           -0.7654    -8.7396    -0.8577 C.ar    
  18 Br18           0.1900   -11.3716    -1.3695 Br      
  19 O19           -3.0163     1.8377     0.4768 O.2     
  20 C20            1.8726     2.1194    -0.4876 C.3     
  21 C21            1.7891    -0.7021    -0.4445 C.1     
  22 N22            2.7531    -1.2741    -0.6290 N.1     
  23 H23           -2.7253    -0.7082     0.4428 H       
  24 H24           -0.5541     2.7668     0.8875 H       
  25 H25           -0.8854     2.7517    -0.8396 H       
  26 H26            0.2472    -2.5628     0.6165 H       
  27 H27           -1.5279    -2.6181     0.4967 H       
  28 H28           -0.3701    -5.0916    -3.3091 H       
  29 H29           -1.5049    -6.7787    -0.4398 H       
  30 H30            1.0708    -7.1315    -3.8348 H       
  31 H31            1.2891    -9.5462    -3.4124 H       
  32 H32           -1.2780    -9.1935    -0.0225 H       
  33 H33            2.6845     1.4085    -0.6409 H       
  34 H34            1.7581     2.7376    -1.3780 H       
  35 H35            2.1022     2.7541     0.3683 H       
@<TRIPOS>BOND
   1    1    2 2
   2    1   20 1
   3    1    6 1
   4    2    3 1
   5    2   21 1
   6    3    4 2
   7    3    7 1
   8    4    5 1
   9    4   23 1
  10    5    6 1
  11    5   19 2
  12    6   24 1
  13    6   25 1
  14    7    8 1
  15    7   26 1
  16    7   27 1
  17    8    9 1
  18    9   10 am
  19    9   11 2
  20   10   12 1
  21   10   28 1
  22   12   13 ar
  23   12   14 ar
  24   13   17 ar
  25   13   29 1
  26   14   15 ar
  27   14   30 1
  28   15   16 ar
  29   15   31 1
  30   16   17 ar
  31   16   18 1
  32   17   32 1
  33   20   33 1
  34   20   34 1
  35   20   35 1
  36   21   22 3

#	End of record

