#	Name: ASD01890029
#	Creating user name:	WinNT
#	Creation time:	15. 06. 2019 19:50

#	Modifying user name:	WinNT
#	Modification time:	15. 06. 2019 19:50

#	Program:	/corina/corina34_cracker 3.40 0067  02.08.2006

@<TRIPOS>MOLECULE
ASD01890029
 122  125    0    0    0
SMALL
NO_CHARGES


@<TRIPOS>ATOM
   1 C1             2.1102     0.3340     2.9321 C.3     
   2 C2             1.7424    -1.0553     2.4788 C.2     
   3 N3             1.4886    -2.0161     3.3892 N.am    
   4 C4             1.1311    -3.3667     2.9486 C.3     
   5 C5             1.4903    -4.3580     4.0253 C.2     
   6 N6             1.2505    -5.6712     3.8396 N.am    
   7 C7             3.5888     0.3680     3.3239 C.3     
   8 N8             1.8715     1.2852     1.8383 N.3     
   9 C9             3.9320     1.7428     3.9009 C.3     
  10 C10            5.4106     1.7768     4.2927 C.3     
  11 N11            5.7392     3.0932     4.8453 N.pl3   
  12 C12            7.0195     3.3607     5.2692 C.2     
  13 N13            7.3279     4.5961     5.7877 N.pl3   
  14 N14            7.9408     2.4431     5.1795 N.2     
  15 O15            1.6749    -1.3089     1.2947 O.2     
  16 C16           -0.3730    -3.4328     2.6757 C.3     
  17 C17           -0.7133    -2.5321     1.5165 C.2     
  18 C18           -0.8131    -2.9338     0.2614 C.2     
  19 O19            1.9952    -3.9741     5.0590 O.2     
  20 C20            1.5997    -6.6348     4.8863 C.3     
  21 C21            0.4751    -6.7185     5.8872 C.2     
  22 N22           -0.4910    -7.6367     5.7393 N.am    
  23 C23           -0.4781    -8.7868     4.8196 C.3     
  24 C24            0.5165    -8.5507     3.6920 C.3     
  25 C25            1.8293    -8.0092     4.2570 C.3     
  26 C26           -1.7926    -7.6698     6.4246 C.3     
  27 C27           -2.7688    -8.4190     5.4956 C.3     
  28 C28           -1.9206    -8.8275     4.2670 C.3     
  29 O29            0.4443    -5.9540     6.8282 O.2     
  30 C30           -2.2845    -6.2655     6.6636 C.2     
  31 O31           -1.6185    -5.3195     6.2997 O.2     
  32 N32           -3.4646    -6.0609     7.2816 N.am    
  33 C33           -3.9429    -4.6958     7.5139 C.3     
  34 C34           -3.3369    -4.1569     8.8113 C.3     
  35 C35           -5.4457    -4.7022     7.6261 C.2     
  36 C36           -1.8201    -4.0330     8.6528 C.3     
  37 N37           -6.1103    -3.5497     7.8418 N.am    
  38 O38           -6.0570    -5.7445     7.5223 O.2     
  39 C39           -7.5752    -3.5377     7.8410 C.3     
  40 C40           -8.0689    -2.4108     8.7112 C.2     
  41 C41           -8.0827    -3.3382     6.4114 C.3     
  42 O42           -7.2752    -1.6767     9.2609 O.2     
  43 N43           -9.3923    -2.2186     8.8785 N.am    
  44 C44           -7.4616    -2.0703     5.8220 C.3     
  45 C45           -7.7859    -1.9900     4.3290 C.3     
  46 C46           -8.0336    -0.8432     6.5348 C.3     
  47 C47           -9.8722    -1.1230     9.7245 C.3     
  48 C48          -11.2606    -0.7263     9.2931 C.2     
  49 C49           -9.9031    -1.5814    11.1839 C.3     
  50 O50          -11.7964    -1.3020     8.3699 O.2     
  51 N51          -11.9068     0.2683     9.9332 N.am    
  52 C52           -1.1674    -1.7383    -0.5918 C.3     
  53 C53           -1.2587    -0.5743     0.3646 C.ar    
  54 C54           -0.9849    -1.0875     1.6338 C.ar    
  55 C55           -1.5428     0.7612     0.1982 C.ar    
  56 C56           -1.5524     1.6077     1.2939 C.ar    
  57 C57           -1.2761     1.1125     2.5560 C.ar    
  58 C58           -0.9981    -0.2265     2.7342 C.ar    
  59 C59           -1.2232    -3.5023     9.9307 C.2     
  60 O60           -1.9376    -3.2491    10.8717 O.2     
  61 O61            0.1021    -3.3108    10.0236 O.3     
  62 H62            1.4999     0.6090     3.7924 H       
  63 H63            1.5426    -1.8133     4.3362 H       
  64 H64            1.6767    -3.6076     2.0362 H       
  65 H65            0.8466    -5.9783     3.0128 H       
  66 H66            3.7839    -0.3994     4.0729 H       
  67 H67            4.2025     0.1802     2.4429 H       
  68 H68            2.0492     2.2323     2.1375 H       
  69 H69            2.4262     1.0517     1.0285 H       
  70 H70            3.7369     2.5103     3.1519 H       
  71 H71            3.3183     1.9306     4.7819 H       
  72 H72            5.6057     1.0094     5.0418 H       
  73 H73            6.0243     1.5890     3.4117 H       
  74 H74            5.0536     3.7761     4.9120 H       
  75 H75            6.6423     5.2790     5.8545 H       
  76 H76            8.2311     4.7848     6.0868 H       
  77 H77            8.8440     2.6318     5.4785 H       
  78 H78           -0.6537    -4.4579     2.4340 H       
  79 H79           -0.9176    -3.1063     3.5616 H       
  80 H80           -0.6665    -3.9433    -0.0934 H       
  81 H81            2.5102    -6.3098     5.3898 H       
  82 H82           -0.2342    -9.7032     5.3571 H       
  83 H83            0.7062    -9.4910     3.1744 H       
  84 H84            0.1007    -7.8298     2.9881 H       
  85 H85            2.5602    -7.9213     3.4532 H       
  86 H86            2.2077    -8.6956     5.0146 H       
  87 H87           -1.7008    -8.1990     7.3731 H       
  88 H88           -3.1627    -9.3042     5.9950 H       
  89 H89           -3.5828    -7.7609     5.1918 H       
  90 H90           -2.0441    -8.1094     3.4564 H       
  91 H91           -2.1793    -9.8334     3.9363 H       
  92 H92           -3.9974    -6.8175     7.5726 H       
  93 H93           -3.6434    -4.0593     6.6812 H       
  94 H94           -3.7605    -3.1769     9.0306 H       
  95 H95           -3.5620    -4.8414     9.6292 H       
  96 H96           -1.3965    -5.0131     8.4335 H       
  97 H97           -1.5950    -3.3486     7.8349 H       
  98 H98           -5.6186    -2.7282     7.9977 H       
  99 H99           -7.9466    -4.4861     8.2293 H       
 100 H100          -7.8013    -4.1975     5.8027 H       
 101 H101          -9.1683    -3.2401     6.4217 H       
 102 H102         -10.0271    -2.8056     8.4388 H       
 103 H103          -6.3805    -2.0983     5.9580 H       
 104 H104          -8.8670    -1.9620     4.1930 H       
 105 H105          -7.3434    -1.0867     3.9091 H       
 106 H106          -7.3783    -2.8642     3.8211 H       
 107 H107          -9.1145    -0.9485     6.6285 H       
 108 H108          -7.5895    -0.7593     7.5267 H       
 109 H109          -7.8045     0.0522     5.9572 H       
 110 H110          -9.2031    -0.2682     9.6262 H       
 111 H111         -10.2601    -0.7663    11.8133 H       
 112 H112         -10.5722    -2.4362    11.2821 H       
 113 H113          -8.8989    -1.8683    11.4959 H       
 114 H114         -11.4782     0.7287    10.6716 H       
 115 H115         -12.8004     0.5236     9.6555 H       
 116 H116          -0.3874    -1.5584    -1.3317 H       
 117 H117          -2.1264    -1.8976    -1.0848 H       
 118 H118          -1.7580     1.1493    -0.7864 H       
 119 H119          -1.7755     2.6563     1.1631 H       
 120 H120          -1.2842     1.7771     3.4073 H       
 121 H121          -0.7832    -0.6076     3.7216 H       
 122 H122           0.4384    -2.9687    10.8632 H       
@<TRIPOS>BOND
   1    1    2 1
   2    1    7 1
   3    1    8 1
   4    1   62 1
   5    2    3 am
   6    2   15 2
   7    3    4 1
   8    3   63 1
   9    4    5 1
  10    4   16 1
  11    4   64 1
  12    5    6 am
  13    5   19 2
  14    6   20 1
  15    6   65 1
  16    7    9 1
  17    7   66 1
  18    7   67 1
  19    8   68 1
  20    8   69 1
  21    9   10 1
  22    9   70 1
  23    9   71 1
  24   10   11 1
  25   10   72 1
  26   10   73 1
  27   11   12 1
  28   11   74 1
  29   12   13 1
  30   12   14 2
  31   13   75 1
  32   13   76 1
  33   14   77 1
  34   16   17 1
  35   16   78 1
  36   16   79 1
  37   17   18 2
  38   17   54 1
  39   18   52 1
  40   18   80 1
  41   20   21 1
  42   20   25 1
  43   20   81 1
  44   21   22 am
  45   21   29 2
  46   22   23 1
  47   22   26 1
  48   23   24 1
  49   23   28 1
  50   23   82 1
  51   24   25 1
  52   24   83 1
  53   24   84 1
  54   25   85 1
  55   25   86 1
  56   26   27 1
  57   26   30 1
  58   26   87 1
  59   27   28 1
  60   27   88 1
  61   27   89 1
  62   28   90 1
  63   28   91 1
  64   30   31 2
  65   30   32 am
  66   32   33 1
  67   32   92 1
  68   33   34 1
  69   33   35 1
  70   33   93 1
  71   34   36 1
  72   34   94 1
  73   34   95 1
  74   35   37 am
  75   35   38 2
  76   36   59 1
  77   36   96 1
  78   36   97 1
  79   37   39 1
  80   37   98 1
  81   39   40 1
  82   39   41 1
  83   39   99 1
  84   40   42 2
  85   40   43 am
  86   41   44 1
  87   41  100 1
  88   41  101 1
  89   43   47 1
  90   43  102 1
  91   44   45 1
  92   44   46 1
  93   44  103 1
  94   45  104 1
  95   45  105 1
  96   45  106 1
  97   46  107 1
  98   46  108 1
  99   46  109 1
 100   47   48 1
 101   47   49 1
 102   47  110 1
 103   48   50 2
 104   48   51 am
 105   49  111 1
 106   49  112 1
 107   49  113 1
 108   51  114 1
 109   51  115 1
 110   52   53 1
 111   52  116 1
 112   52  117 1
 113   53   54 ar
 114   53   55 ar
 115   54   58 ar
 116   55   56 ar
 117   55  118 1
 118   56   57 ar
 119   56  119 1
 120   57   58 ar
 121   57  120 1
 122   58  121 1
 123   59   60 2
 124   59   61 1
 125   61  122 1

#	End of record

