#	Name: ASD01910094
#	Creating user name:	WinNT
#	Creation time:	15. 06. 2019 19:55

#	Modifying user name:	WinNT
#	Modification time:	15. 06. 2019 19:55

#	Program:	/corina/corina34_cracker 3.40 0067  02.08.2006

@<TRIPOS>MOLECULE
ASD01910094
  38   40    0    0    0
SMALL
NO_CHARGES


@<TRIPOS>ATOM
   1 N1            -0.0079     1.4084    -0.0034 N.2     
   2 N2            -0.0062     0.0084    -0.0448 N.pl3   
   3 C3             1.2405     1.8248     0.0378 C.2     
   4 C4             2.0818     0.6996     0.0239 C.2     
   5 C5             1.2912    -0.4110    -0.0272 C.2     
   6 C6             1.7569    -1.8153    -0.0575 C.ar    
   7 C7             1.6832     3.2407     0.0899 C.ar    
   8 C8             0.9325    -2.8150    -0.5746 C.ar    
   9 C9             0.7413     4.2672     0.0990 C.ar    
  10 C10            1.3712    -4.1225    -0.6006 C.ar    
  11 C11            2.6281    -4.4439    -0.1139 C.ar    
  12 C12            3.4506    -3.4547     0.4012 C.ar    
  13 C13            3.0239    -2.1432     0.4256 C.ar    
  14 C14            1.1572     5.5820     0.1480 C.ar    
  15 C15            2.5091     5.8820     0.1877 C.ar    
  16 C16            3.4491     4.8642     0.1783 C.ar    
  17 C17            3.0417     3.5466     0.1357 C.ar    
  18 F18            2.9121     7.1706     0.2351 F       
  19 C19           -1.1897    -0.8535    -0.0972 C.3     
  20 C20           -1.6276    -1.0190    -1.5296 C.2     
  21 O21           -2.6992    -1.7729    -1.8210 O.3     
  22 O22           -1.0140    -0.4730    -2.4158 O.2     
  23 C23           -3.0632    -1.8877    -3.2220 C.3     
  24 F24            3.0530    -5.7260    -0.1411 F       
  25 H25            3.1615     0.7117     0.0489 H       
  26 H26           -0.0476    -2.5656    -0.9536 H       
  27 H27           -0.3128     4.0343     0.0675 H       
  28 H28            0.7338    -4.8971    -1.0007 H       
  29 H29            4.4291    -3.7103     0.7800 H       
  30 H30            3.6657    -1.3729     0.8269 H       
  31 H31            0.4277     6.3784     0.1551 H       
  32 H32            4.5020     5.1024     0.2086 H       
  33 H33            3.7750     2.7537     0.1288 H       
  34 H34           -0.9475    -1.8293     0.3238 H       
  35 H35           -1.9958    -0.3992     0.4789 H       
  36 H36           -3.9438    -2.5229    -3.3177 H       
  37 H37           -3.2836    -0.8982    -3.6224 H       
  38 H38           -2.2353    -2.3283    -3.7775 H       
@<TRIPOS>BOND
   1    1    2 1
   2    1    3 2
   3    2   19 1
   4    2    5 1
   5    3    4 1
   6    3    7 1
   7    4    5 2
   8    4   25 1
   9    5    6 1
  10    6    8 ar
  11    6   13 ar
  12    7    9 ar
  13    7   17 ar
  14    8   10 ar
  15    8   26 1
  16    9   14 ar
  17    9   27 1
  18   10   11 ar
  19   10   28 1
  20   11   12 ar
  21   11   24 1
  22   12   13 ar
  23   12   29 1
  24   13   30 1
  25   14   15 ar
  26   14   31 1
  27   15   16 ar
  28   15   18 1
  29   16   17 ar
  30   16   32 1
  31   17   33 1
  32   19   20 1
  33   19   34 1
  34   19   35 1
  35   20   21 1
  36   20   22 2
  37   21   23 1
  38   23   36 1
  39   23   37 1
  40   23   38 1

#	End of record

