#	Name: ASD06710038
#	Creating user name:	WinNT
#	Creation time:	15. 06. 2019 21:08

#	Modifying user name:	WinNT
#	Modification time:	15. 06. 2019 21:08

#	Program:	/corina/corina34_cracker 3.40 0067  02.08.2006

@<TRIPOS>MOLECULE
ASD06710038
  42   44    0    0    0
SMALL
NO_CHARGES


@<TRIPOS>ATOM
   1 C1             2.4565    -0.0191     0.1500 C.ar    
   2 C2             1.7383    -0.9458    -0.5755 C.ar    
   3 C3             1.1523    -0.5915    -1.7778 C.ar    
   4 C4             1.2835     0.6998    -2.2620 C.ar    
   5 C5             2.5946     1.2878    -0.3309 C.ar    
   6 C6             3.2876     2.4639     0.2142 C.2     
   7 C7             1.9974     1.6328    -1.5474 C.ar    
   8 C8             2.3221     3.0867    -1.7892 C.3     
   9 C9             3.1504     3.5191    -0.6017 C.2     
  10 C10            3.7079     4.8609    -0.3799 C.2     
  11 N11            2.8533     5.9521    -0.2046 N.pl3   
  12 C12            5.0348     5.0374    -0.3458 C.2     
  13 C13            1.4029     5.7487    -0.1714 C.3     
  14 C14            3.4076     7.2998    -0.0540 C.3     
  15 C15            3.6667     7.8915    -1.4156 C.2     
  16 C16            3.4735     9.0205    -3.3125 C.2     
  17 C17            2.8380     8.7100    -2.0883 C.2     
  18 O18            4.7668     7.6955    -2.1607 O.3     
  19 C19            4.6543     8.3761    -3.3130 C.2     
  20 C20            0.8574     6.1871     1.1892 C.3     
  21 C21            0.7460     6.5792    -1.2758 C.3     
  22 H22            2.9080    -0.3001     1.0901 H       
  23 H23            1.6328    -1.9542    -0.2033 H       
  24 H24            0.5917    -1.3234    -2.3402 H       
  25 H25            0.8254     0.9736    -3.2010 H       
  26 H26            3.8333     2.4766     1.1462 H       
  27 H27            2.8956     3.1970    -2.7096 H       
  28 H28            1.4054     3.6740    -1.8427 H       
  29 H29            5.4444     6.0234    -0.1828 H       
  30 H30            5.6955     4.1939    -0.4813 H       
  31 H31            1.1803     4.6934    -0.3293 H       
  32 H32            2.6974     7.9266     0.4853 H       
  33 H33            4.3428     7.2478     0.5035 H       
  34 H34            3.0866     9.6556    -4.0956 H       
  35 H35            1.8722     9.0620    -1.7571 H       
  36 H36            5.3872     8.4013    -4.1059 H       
  37 H37            1.0800     7.2424     1.3470 H       
  38 H38           -0.2217     6.0357     1.2139 H       
  39 H39            1.3254     5.5954     1.9759 H       
  40 H40            1.1373     6.2694    -2.2449 H       
  41 H41           -0.3328     6.4250    -1.2535 H       
  42 H42            0.9656     7.6348    -1.1160 H       
@<TRIPOS>BOND
   1    1    2 ar
   2    1    5 ar
   3    1   22 1
   4    2    3 ar
   5    2   23 1
   6    3    4 ar
   7    3   24 1
   8    4    7 ar
   9    4   25 1
  10    5    7 ar
  11    5    6 1
  12    6    9 2
  13    6   26 1
  14    7    8 1
  15    8    9 1
  16    8   27 1
  17    8   28 1
  18    9   10 1
  19   10   11 1
  20   10   12 2
  21   11   13 1
  22   11   14 1
  23   12   29 1
  24   12   30 1
  25   13   20 1
  26   13   21 1
  27   13   31 1
  28   14   15 1
  29   14   32 1
  30   14   33 1
  31   15   18 1
  32   15   17 2
  33   16   17 1
  34   16   19 2
  35   16   34 1
  36   17   35 1
  37   18   19 1
  38   19   36 1
  39   20   37 1
  40   20   38 1
  41   20   39 1
  42   21   40 1
  43   21   41 1
  44   21   42 1

#	End of record

