#	Name: ASD02500851
#	Creating user name:	WinNT
#	Creation time:	15. 06. 2019 20:23

#	Modifying user name:	WinNT
#	Modification time:	15. 06. 2019 20:23

#	Program:	/corina/corina34_cracker 3.40 0067  02.08.2006

@<TRIPOS>MOLECULE
ASD02500851
  74   77    0    0    0
SMALL
NO_CHARGES


@<TRIPOS>ATOM
   1 C1            -1.0940     0.4187    -3.5183 C.ar    
   2 C2            -1.0596    -0.8909    -3.0662 C.ar    
   3 C3            -2.1039    -1.3952    -2.3140 C.ar    
   4 C4            -3.1904    -0.5878    -2.0097 C.ar    
   5 C5            -3.2249     0.7318    -2.4647 C.ar    
   6 C6            -2.1702     1.2315    -3.2152 C.ar    
   7 Cl7            0.2224     1.0428    -4.4623 Cl      
   8 Cl8            0.2996    -1.9018    -3.4465 Cl      
   9 N9            -4.3612    -0.8110    -1.2892 N.pl3   
  10 C10           -5.0982     0.3453    -1.3014 C.2     
  11 N11           -4.4163     1.2965    -2.0160 N.pl3   
  12 C12           -4.7402    -2.0645    -0.6326 C.3     
  13 C13           -4.2122    -2.0680     0.8034 C.3     
  14 C14           -4.8632     2.6694    -2.2637 C.3     
  15 C15           -6.3235     0.5222    -0.6956 C.2     
  16 C16           -6.8073     1.8151    -0.4583 C.2     
  17 C17           -8.0435     1.9905     0.0887 C.2     
  18 C18           -8.6005     3.2860     0.1750 C.cat   
  19 N19           -9.8070     3.6687    -0.3633 N.pl3   
  20 C20           -9.9836     5.0087    -0.0570 C.ar    
  21 C21           -8.8490     5.4002     0.6748 C.ar    
  22 N22           -8.0460     4.3138     0.7894 N.pl3   
  23 C23          -10.9868     5.9276    -0.3239 C.ar    
  24 C24          -10.8687     7.2266     0.1302 C.ar    
  25 C25           -9.7501     7.6197     0.8538 C.ar    
  26 C26           -8.7438     6.7196     1.1280 C.ar    
  27 Cl27          -9.6188     9.2568     1.4160 Cl      
  28 Cl28         -12.1261     8.3755    -0.2059 Cl      
  29 C29          -10.7311     2.8197    -1.1192 C.3     
  30 C30           -6.7557     4.2871     1.4827 C.3     
  31 C31           -6.9473     3.7313     2.8953 C.3     
  32 C32           -4.6080    -3.3772     1.4891 C.3     
  33 S33           -3.9821    -3.3813     3.1917 S.o2    
  34 C34          -11.7169     2.1553    -0.1561 C.3     
  35 C35          -12.6820     1.2686    -0.9455 C.3     
  36 S36          -13.8509     0.4808     0.1964 S.o2    
  37 O37          -14.7459    -0.3638    -0.6991 O.3     
  38 O38          -13.1832    -0.4667     1.0183 O.2     
  39 O39          -14.7284     1.4476     0.7572 O.2     
  40 C40           -4.5201     3.5433    -1.0557 C.3     
  41 O41           -4.4353    -4.7186     3.7597 O.3     
  42 O42           -2.5632    -3.4592     3.2012 O.2     
  43 O43           -4.6680    -2.4163     3.9775 O.2     
  44 H44           -2.0742    -2.4165    -1.9638 H       
  45 H45           -2.1938     2.2517    -3.5687 H       
  46 H46           -5.8264    -2.1544    -0.6206 H       
  47 H47           -4.3121    -2.9048    -1.1792 H       
  48 H48           -3.1260    -1.9781     0.7914 H       
  49 H49           -4.6403    -1.2277     1.3499 H       
  50 H50           -4.3620     3.0605    -3.1492 H       
  51 H51           -5.9415     2.6773    -2.4233 H       
  52 H52           -6.9106    -0.3361    -0.4039 H       
  53 H53           -6.2010     2.6730    -0.7087 H       
  54 H54           -8.5972     1.1391     0.4561 H       
  55 H55          -11.8589     5.6283    -0.8862 H       
  56 H56           -7.8768     7.0314     1.6914 H       
  57 H57          -11.2796     3.4291    -1.8374 H       
  58 H58          -10.1678     2.0518    -1.6495 H       
  59 H59           -6.0611     3.6516     0.9334 H       
  60 H60           -6.3539     5.2986     1.5417 H       
  61 H61           -7.7086     4.3134     3.4146 H       
  62 H62           -7.2636     2.6899     2.8362 H       
  63 H63           -6.0061     3.7947     3.4414 H       
  64 H64           -5.6943    -3.4671     1.5012 H       
  65 H65           -4.1799    -4.2175     0.9426 H       
  66 H66          -11.1684     1.5458     0.5621 H       
  67 H67          -12.2802     2.9231     0.3742 H       
  68 H68          -13.2305     1.8780    -1.6637 H       
  69 H69          -12.1188     0.5007    -1.4758 H       
  70 H70          -15.4312    -0.8519    -0.2224 H       
  71 H71           -4.8432     4.5671    -1.2443 H       
  72 H72           -5.0296     3.1584    -0.1723 H       
  73 H73           -3.4429     3.5271    -0.8897 H       
  74 H74           -4.1698    -4.8663     4.6778 H       
@<TRIPOS>BOND
   1    1    2 ar
   2    1    7 1
   3    1    6 ar
   4    2    3 ar
   5    2    8 1
   6    3    4 ar
   7    3   44 1
   8    4    5 ar
   9    4    9 1
  10    5    6 ar
  11    5   11 1
  12    6   45 1
  13    9   10 1
  14    9   12 1
  15   10   11 1
  16   10   15 2
  17   11   14 1
  18   12   13 1
  19   12   46 1
  20   12   47 1
  21   13   32 1
  22   13   48 1
  23   13   49 1
  24   14   40 1
  25   14   50 1
  26   14   51 1
  27   15   16 1
  28   15   52 1
  29   16   17 2
  30   16   53 1
  31   17   18 1
  32   17   54 1
  33   18   19 ar
  34   18   22 ar
  35   19   20 1
  36   19   29 1
  37   20   21 ar
  38   20   23 ar
  39   21   22 1
  40   21   26 ar
  41   22   30 1
  42   23   24 ar
  43   23   55 1
  44   24   25 ar
  45   24   28 1
  46   25   26 ar
  47   25   27 1
  48   26   56 1
  49   29   34 1
  50   29   57 1
  51   29   58 1
  52   30   31 1
  53   30   59 1
  54   30   60 1
  55   31   61 1
  56   31   62 1
  57   31   63 1
  58   32   33 1
  59   32   64 1
  60   32   65 1
  61   33   41 1
  62   33   42 2
  63   33   43 2
  64   34   35 1
  65   34   66 1
  66   34   67 1
  67   35   36 1
  68   35   68 1
  69   35   69 1
  70   36   37 1
  71   36   38 2
  72   36   39 2
  73   37   70 1
  74   40   71 1
  75   40   72 1
  76   40   73 1
  77   41   74 1

#	End of record

