#	Name: ASD01230561
#	Creating user name:	WinNT
#	Creation time:	15. 06. 2019 19:14

#	Modifying user name:	WinNT
#	Modification time:	15. 06. 2019 19:14

#	Program:	/corina/corina34_cracker 3.40 0067  02.08.2006

@<TRIPOS>MOLECULE
ASD01230561
  48   51    0    0    0
SMALL
NO_CHARGES


@<TRIPOS>ATOM
   1 S1            -0.0204     1.6504     0.0111 S.o2    
   2 N2             0.0021    -0.0041     0.0020 N.am    
   3 C3             1.0235    -0.6878    -0.4548 C.2     
   4 N4             2.1704    -0.1524    -0.9673 N.pl3   
   5 C5             2.3941     1.2846    -1.1457 C.3     
   6 C6             1.7500     2.0752    -0.0035 C.3     
   7 C7             0.8940    -2.1593    -0.3969 C.2     
   8 C8             1.9449    -2.9429    -0.8212 C.2     
   9 C9             3.1089    -2.3206    -1.2949 C.2     
  10 C10            3.1960    -0.9800    -1.3549 C.2     
  11 C11           -0.3490    -2.7831     0.1111 C.ar    
  12 C12           -0.3241    -3.5369     1.2850 C.ar    
  13 C13           -1.4838    -4.1159     1.7552 C.ar    
  14 C14           -2.6752    -3.9500     1.0619 C.ar    
  15 C15           -2.7039    -3.2006    -0.1065 C.ar    
  16 C16           -1.5494    -2.6138    -0.5798 C.ar    
  17 O17           -3.8160    -4.5229     1.5279 O.3     
  18 C18           -5.0062    -4.3119     0.7656 C.3     
  19 C19           -8.6294    -5.4827     1.3297 C.3     
  20 C20           -7.4758    -4.7008     0.6960 C.3     
  21 C21           -6.1778    -5.0277     1.4408 C.3     
  22 C22           -5.9459    -6.5412     1.4000 C.3     
  23 C23           -7.1586    -7.2520     2.0065 C.3     
  24 O24           -8.3360    -6.8806     1.2868 O.3     
  25 Cl25           4.4533    -3.2917    -1.8079 Cl      
  26 O26           -0.6346     2.0064    -1.2198 O.2     
  27 O27           -0.6110     1.9931     1.2573 O.2     
  28 H28            3.4658     1.4826    -1.1603 H       
  29 H29            1.9577     1.6014    -2.0930 H       
  30 H30            1.8741     3.1444    -0.1755 H       
  31 H31            2.2071     1.7951     0.9456 H       
  32 H32            1.8734    -4.0201    -0.7891 H       
  33 H33            4.1087    -0.5360    -1.7239 H       
  34 H34            0.6024    -3.6670     1.8244 H       
  35 H35           -1.4652    -4.6995     2.6637 H       
  36 H36           -3.6325    -3.0737    -0.6432 H       
  37 H37           -1.5733    -2.0276    -1.4866 H       
  38 H38           -5.2168    -3.2440     0.7088 H       
  39 H39           -4.8686    -4.7091    -0.2401 H       
  40 H40           -8.7549    -5.1692     2.3661 H       
  41 H41           -9.5482    -5.2870     0.7768 H       
  42 H42           -7.3759    -4.9844    -0.3518 H       
  43 H43           -7.6775    -3.6320     0.7674 H       
  44 H44           -6.2587    -4.6976     2.4765 H       
  45 H45           -5.8151    -6.8619     0.3665 H       
  46 H46           -5.0535    -6.7886     1.9749 H       
  47 H47           -7.0178    -8.3309     1.9412 H       
  48 H48           -7.2648    -6.9617     3.0518 H       
@<TRIPOS>BOND
   1    1    2 am
   2    1    6 1
   3    1   26 2
   4    1   27 2
   5    2    3 2
   6    3    4 1
   7    3    7 1
   8    4    5 1
   9    4   10 1
  10    5    6 1
  11    5   28 1
  12    5   29 1
  13    6   30 1
  14    6   31 1
  15    7    8 2
  16    7   11 1
  17    8    9 1
  18    8   32 1
  19    9   10 2
  20    9   25 1
  21   10   33 1
  22   11   12 ar
  23   11   16 ar
  24   12   13 ar
  25   12   34 1
  26   13   14 ar
  27   13   35 1
  28   14   15 ar
  29   14   17 1
  30   15   16 ar
  31   15   36 1
  32   16   37 1
  33   17   18 1
  34   18   21 1
  35   18   38 1
  36   18   39 1
  37   19   20 1
  38   19   24 1
  39   19   40 1
  40   19   41 1
  41   20   21 1
  42   20   42 1
  43   20   43 1
  44   21   22 1
  45   21   44 1
  46   22   23 1
  47   22   45 1
  48   22   46 1
  49   23   24 1
  50   23   47 1
  51   23   48 1

#	End of record

