#	Name: ASD01028111
#	Creating user name:	WinNT
#	Creation time:	15. 06. 2019 18:56

#	Modifying user name:	WinNT
#	Modification time:	15. 06. 2019 18:56

#	Program:	/corina/corina34_cracker 3.40 0067  02.08.2006

@<TRIPOS>MOLECULE
ASD01028111
  72   76    0    0    0
SMALL
NO_CHARGES


@<TRIPOS>ATOM
   1 N1             0.2583     1.2584     0.3072 N.pl3   
   2 C2            -0.0930    -0.0940     0.4028 C.ar    
   3 C3            -1.4074    -0.4536     0.6689 C.ar    
   4 C4            -2.4565     0.6122     0.8550 C.3     
   5 C5             0.8735    -1.0788     0.2255 C.ar    
   6 C6             0.5193    -2.4201     0.3214 C.ar    
   7 C7            -0.7955    -2.7698     0.5929 C.ar    
   8 C8            -1.7547    -1.7877     0.7629 C.ar    
   9 O9             0.3050     6.3028    -0.1909 O.3     
  10 C10            1.0542     5.4072     0.5061 C.ar    
  11 C11            0.7686     4.0746     0.4182 C.ar    
  12 C12            1.5395     3.1514     1.1355 C.ar    
  13 C13            1.2862     1.7605     1.0790 C.ar    
  14 N14            2.0631     0.9517     1.7885 N.ar    
  15 O15            2.2097    -0.9977    -0.0458 O.3     
  16 C16            2.7486    -2.2904     0.2889 C.3     
  17 O17            1.6323    -3.1821     0.1101 O.3     
  18 C18            2.1144     5.8618     1.3032 C.ar    
  19 C19            2.8878     4.9745     2.0179 C.ar    
  20 C20            2.6094     3.6038     1.9469 C.ar    
  21 N21            3.3326     2.6984     2.6238 N.ar    
  22 C22            3.0517     1.4200     2.5330 C.ar    
  23 O23            2.3819     7.1920     1.3708 O.3     
  24 C24            3.4746     7.5927     2.1999 C.3     
  25 Br25          -1.2789    -4.5932     0.7238 Br      
  26 N26           -2.9918     1.0038    -0.4513 N.am    
  27 C27           -4.0422     0.3415    -0.9751 C.2     
  28 O28           -4.5342     0.7013    -2.1756 O.3     
  29 O29           -4.5452    -0.5805    -0.3640 O.2     
  30 C30           -5.6664    -0.0563    -2.6780 C.3     
  31 C31           -6.0763     0.4856    -4.0232 C.ar    
  32 C32           -5.5150    -0.0302    -5.1763 C.ar    
  33 C33           -7.0178     1.4945    -4.1042 C.ar    
  34 C34           -7.3938     1.9915    -5.3381 C.ar    
  35 C35           -6.8280     1.4800    -6.4909 C.ar    
  36 C36           -5.8909     0.4669    -6.4102 C.ar    
  37 C37           -2.3854     2.1153    -1.1881 C.3     
  38 C38           -1.3849     1.5661    -2.2072 C.3     
  39 C39           -0.7910     2.7230    -3.0133 C.3     
  40 C40            0.2094     2.1738    -4.0323 C.3     
  41 C41            0.8034     3.3307    -4.8384 C.3     
  42 Cl42           1.9823     2.6835    -6.0393 Cl      
  43 H43           -0.2182     1.8412    -0.3045 H       
  44 H44           -3.2631     0.2235     1.4765 H       
  45 H45           -2.0103     1.4805     1.3399 H       
  46 H46           -2.7770    -2.0644     0.9741 H       
  47 H47           -0.4630     6.6347     0.2939 H       
  48 H48           -0.0480     3.7344    -0.2013 H       
  49 H49            3.5614    -2.5536    -0.3879 H       
  50 H50            3.0900    -2.3068     1.3239 H       
  51 H51            3.7026     5.3331     2.6294 H       
  52 H52            3.6541     0.7185     3.0911 H       
  53 H53            4.3926     7.1273     1.8411 H       
  54 H54            3.5791     8.6771     2.1642 H       
  55 H55            3.2857     7.2795     3.2266 H       
  56 H56           -5.3861    -1.1048    -2.7787 H       
  57 H57           -6.5002     0.0316    -1.9815 H       
  58 H58           -4.7824    -0.8213    -5.1132 H       
  59 H59           -7.4599     1.8942    -3.2035 H       
  60 H60           -8.1299     2.7793    -5.4014 H       
  61 H61           -7.1220     1.8680    -7.4549 H       
  62 H62           -5.4489     0.0672    -7.3109 H       
  63 H63           -3.1636     2.6743    -1.7078 H       
  64 H64           -1.8686     2.7746    -0.4907 H       
  65 H65           -0.5862     1.0395    -1.6848 H       
  66 H66           -1.8941     0.8773    -2.8813 H       
  67 H67           -1.5897     3.2496    -3.5357 H       
  68 H68           -0.2819     3.4118    -2.3392 H       
  69 H69            1.0081     1.6472    -3.5100 H       
  70 H70           -0.2997     1.4850    -4.7064 H       
  71 H71            0.0047     3.8573    -5.3608 H       
  72 H72            1.3125     4.0195    -4.1643 H       
@<TRIPOS>BOND
   1    1    2 1
   2    1   13 1
   3    1   43 1
   4    2    3 ar
   5    2    5 ar
   6    3    4 1
   7    3    8 ar
   8    4   26 1
   9    4   44 1
  10    4   45 1
  11    5    6 ar
  12    5   15 1
  13    6    7 ar
  14    6   17 1
  15    7    8 ar
  16    7   25 1
  17    8   46 1
  18    9   10 1
  19    9   47 1
  20   10   11 ar
  21   10   18 ar
  22   11   12 ar
  23   11   48 1
  24   12   13 ar
  25   12   20 ar
  26   13   14 ar
  27   14   22 ar
  28   15   16 1
  29   16   17 1
  30   16   49 1
  31   16   50 1
  32   18   19 ar
  33   18   23 1
  34   19   20 ar
  35   19   51 1
  36   20   21 ar
  37   21   22 ar
  38   22   52 1
  39   23   24 1
  40   24   53 1
  41   24   54 1
  42   24   55 1
  43   26   27 am
  44   26   37 1
  45   27   28 1
  46   27   29 2
  47   28   30 1
  48   30   31 1
  49   30   56 1
  50   30   57 1
  51   31   32 ar
  52   31   33 ar
  53   32   36 ar
  54   32   58 1
  55   33   34 ar
  56   33   59 1
  57   34   35 ar
  58   34   60 1
  59   35   36 ar
  60   35   61 1
  61   36   62 1
  62   37   38 1
  63   37   63 1
  64   37   64 1
  65   38   39 1
  66   38   65 1
  67   38   66 1
  68   39   40 1
  69   39   67 1
  70   39   68 1
  71   40   41 1
  72   40   69 1
  73   40   70 1
  74   41   42 1
  75   41   71 1
  76   41   72 1

#	End of record

