#	Name: ASD01910558
#	Creating user name:	WinNT
#	Creation time:	15. 06. 2019 19:56

#	Modifying user name:	WinNT
#	Modification time:	15. 06. 2019 19:56

#	Program:	/corina/corina34_cracker 3.40 0067  02.08.2006

@<TRIPOS>MOLECULE
ASD01910558
  39   42    0    0    0
SMALL
NO_CHARGES


@<TRIPOS>ATOM
   1 N1            -0.2526     2.7245    -1.1179 N.2     
   2 C2            -0.4820     1.4885    -0.7488 C.2     
   3 N3             0.7083     0.9525    -0.3900 N.2     
   4 C4             1.5898     1.9046    -0.5658 C.2     
   5 O5             0.9298     2.9756    -1.0179 O.3     
   6 C6            -1.7935     0.8076    -0.7275 C.2     
   7 N7            -2.9959     1.3586    -1.0930 N.pl3   
   8 C8            -3.9691     0.4203    -0.9363 C.2     
   9 C9            -3.3998    -0.7161    -0.4769 C.2     
  10 C10           -2.0226    -0.4809    -0.3470 C.2     
  11 C11            3.8743     2.1138    -1.5968 C.3     
  12 C12            3.0714     1.8106    -0.3068 C.3     
  13 C13            3.5312     2.9303     0.6552 C.3     
  14 C14            4.8887     3.4011     0.1009 C.3     
  15 N15            5.1855     2.5707    -1.0813 N.am    
  16 C16            6.4012     2.2852    -1.5882 C.2     
  17 C17            7.6043     2.9412    -1.0363 C.ar    
  18 O18            6.5078     1.4877    -2.4996 O.2     
  19 C19            8.8757     2.4782    -1.3817 C.ar    
  20 C20            9.9949     3.0943    -0.8643 C.ar    
  21 C21            9.8600     4.1720    -0.0023 C.ar    
  22 C22            8.6000     4.6355     0.3443 C.ar    
  23 C23            7.4743     4.0303    -0.1719 C.ar    
  24 F24           10.9602     4.7723     0.5020 F       
  25 H25           -3.1298     2.2655    -1.4099 H       
  26 H26           -5.0197     0.5602    -1.1440 H       
  27 H27           -3.9122    -1.6402    -0.2534 H       
  28 H28           -1.2822    -1.1881    -0.0034 H       
  29 H29            3.9904     1.2123    -2.1984 H       
  30 H30            3.3917     2.9028    -2.1736 H       
  31 H31            3.3336     0.8295     0.0894 H       
  32 H32            2.8147     3.7517     0.6502 H       
  33 H33            3.6504     2.5369     1.6647 H       
  34 H34            4.8279     4.4503    -0.1883 H       
  35 H35            5.6646     3.2653     0.8542 H       
  36 H36            8.9818     1.6386    -2.0528 H       
  37 H37           10.9786     2.7368    -1.1305 H       
  38 H38            8.5005     5.4750     1.0164 H       
  39 H39            6.4933     4.3923     0.0984 H       
@<TRIPOS>BOND
   1    1    2 2
   2    1    5 1
   3    2    3 1
   4    2    6 1
   5    3    4 2
   6    4    5 1
   7    4   12 1
   8    6    7 1
   9    6   10 2
  10    7    8 1
  11    7   25 1
  12    8    9 2
  13    8   26 1
  14    9   10 1
  15    9   27 1
  16   10   28 1
  17   11   12 1
  18   11   15 1
  19   11   29 1
  20   11   30 1
  21   12   13 1
  22   12   31 1
  23   13   14 1
  24   13   32 1
  25   13   33 1
  26   14   15 1
  27   14   34 1
  28   14   35 1
  29   15   16 am
  30   16   17 1
  31   16   18 2
  32   17   19 ar
  33   17   23 ar
  34   19   20 ar
  35   19   36 1
  36   20   21 ar
  37   20   37 1
  38   21   22 ar
  39   21   24 1
  40   22   23 ar
  41   22   38 1
  42   23   39 1

#	End of record

