#	Name: ASD01916483
#	Creating user name:	WinNT
#	Creation time:	15. 06. 2019 20:07

#	Modifying user name:	WinNT
#	Modification time:	15. 06. 2019 20:07

#	Program:	/corina/corina34_cracker 3.40 0067  02.08.2006

@<TRIPOS>MOLECULE
ASD01916483
  42   45    0    0    0
SMALL
NO_CHARGES


@<TRIPOS>ATOM
   1 C1            -0.0171     1.4100     0.0098 C.ar    
   2 C2             0.0021    -0.0041     0.0020 C.ar    
   3 C3            -1.1913    -0.7256     0.0381 C.ar    
   4 C4            -2.3840    -0.0642     0.0701 C.ar    
   5 C5            -2.4216     1.3384     0.0643 C.ar    
   6 C6            -1.2407     2.0763     0.0353 C.ar    
   7 N7             1.1598     2.0762     0.0021 N.2     
   8 C8             2.3186     1.4680    -0.0335 C.2     
   9 N9             2.4202     0.1189    -0.1399 N.am    
  10 C10            1.3105    -0.6635    -0.0570 C.2     
  11 C11           -3.6830     2.0160     0.0880 C.1     
  12 C12           -4.7171     2.5714     0.1074 C.1     
  13 C13           -5.9785     3.2490     0.1310 C.ar    
  14 N14           -6.0140     4.5780     0.1256 N.ar    
  15 C15           -7.1536     5.2375     0.1467 C.ar    
  16 C16           -8.3630     4.5666     0.1760 C.ar    
  17 C17           -8.3731     3.1783     0.1828 C.ar    
  18 C18           -7.1633     2.5085     0.1540 C.ar    
  19 O19            1.4011    -1.8773    -0.0325 O.2     
  20 C20            3.5386     2.3507     0.0996 C.3     
  21 C21            4.7626     1.6631    -0.5019 C.3     
  22 C22            4.8686     0.2609     0.1120 C.3     
  23 C23            3.6895    -0.5679    -0.3912 C.3     
  24 C24            6.1624    -0.3843    -0.3132 C.2     
  25 O25            6.9294     0.2145    -1.0371 O.2     
  26 N26            6.4671    -1.6267     0.1109 N.am    
  27 H27           -1.1710    -1.8054     0.0404 H       
  28 H28           -3.3067    -0.6248     0.0997 H       
  29 H29           -1.2730     3.1558     0.0321 H       
  30 H30           -7.1439     6.3174     0.1414 H       
  31 H31           -9.2914     5.1181     0.1939 H       
  32 H32           -9.3052     2.6333     0.2055 H       
  33 H33           -7.1346     1.4289     0.1578 H       
  34 H34            3.3613     3.2916    -0.4214 H       
  35 H35            3.7222     2.5552     1.1544 H       
  36 H36            4.6467     1.5841    -1.5829 H       
  37 H37            5.6595     2.2365    -0.2678 H       
  38 H38            4.8316     0.3314     1.1991 H       
  39 H39            3.6835    -1.5300     0.1211 H       
  40 H40            3.8003    -0.7346    -1.4627 H       
  41 H41            5.8536    -2.1056     0.6899 H       
  42 H42            7.2999    -2.0420    -0.1628 H       
@<TRIPOS>BOND
   1    1    2 ar
   2    1    7 1
   3    1    6 ar
   4    2    3 ar
   5    2   10 1
   6    3    4 ar
   7    3   27 1
   8    4    5 ar
   9    4   28 1
  10    5    6 ar
  11    5   11 1
  12    6   29 1
  13    7    8 2
  14    8    9 1
  15    8   20 1
  16    9   10 am
  17    9   23 1
  18   10   19 2
  19   11   12 3
  20   12   13 1
  21   13   14 ar
  22   13   18 ar
  23   14   15 ar
  24   15   16 ar
  25   15   30 1
  26   16   17 ar
  27   16   31 1
  28   17   18 ar
  29   17   32 1
  30   18   33 1
  31   20   21 1
  32   20   34 1
  33   20   35 1
  34   21   22 1
  35   21   36 1
  36   21   37 1
  37   22   23 1
  38   22   24 1
  39   22   38 1
  40   23   39 1
  41   23   40 1
  42   24   25 2
  43   24   26 am
  44   26   41 1
  45   26   42 1

#	End of record

