#	Name: ASD00390001
#	Creating user name:	WinNT
#	Creation time:	15. 06. 2019 18:35

#	Modifying user name:	WinNT
#	Modification time:	15. 06. 2019 18:35

#	Program:	/corina/corina34_cracker 3.40 0067  02.08.2006

@<TRIPOS>MOLECULE
ASD00390001
  26   26    0    0    0
SMALL
NO_CHARGES


@<TRIPOS>ATOM
   1 C1            -0.0179     1.4674     0.0101 C.2     
   2 C2             0.0021    -0.0041     0.0020 C.ar    
   3 C3            -1.1897    -0.7422     0.0094 C.ar    
   4 C4            -2.5233    -0.0406     0.0260 C.3     
   5 O5            -3.5721    -1.0112     0.0308 O.3     
   6 C6            -1.1240    -2.1201     0.0009 C.ar    
   7 N7             0.0364    -2.7469    -0.0140 N.ar    
   8 C8             1.1831    -2.1007    -0.0215 C.ar    
   9 C9             2.4746    -2.8770    -0.0390 C.3     
  10 C10            1.2174    -0.7118    -0.0193 C.ar    
  11 O11            2.4012    -0.0505    -0.0325 O.3     
  12 O12            1.0238     2.0879     0.0035 O.2     
  13 P13           -5.1327    -0.6158     0.0478 P.3     
  14 O14           -6.0231    -1.9505     0.1814 O.3     
  15 O15           -5.4034     0.2750     1.1983 O.2     
  16 O16           -5.5085     0.1452    -1.3203 O.3     
  17 H17           -0.9604     1.9946     0.0174 H       
  18 H18           -2.5971     0.5785     0.9200 H       
  19 H19           -2.6141     0.5880    -0.8598 H       
  20 H20           -2.0381    -2.6952     0.0069 H       
  21 H21            2.7758    -3.0580    -1.0708 H       
  22 H22            3.2496    -2.3045     0.4706 H       
  23 H23            2.3326    -3.8301     0.4705 H       
  24 H24            2.7572     0.1364     0.8470 H       
  25 H25           -6.9761    -1.7875     0.1981 H       
  26 H26           -5.3560    -0.3805    -2.1175 H       
@<TRIPOS>BOND
   1    1    2 1
   2    1   12 2
   3    1   17 1
   4    2    3 ar
   5    2   10 ar
   6    3    4 1
   7    3    6 ar
   8    4    5 1
   9    4   18 1
  10    4   19 1
  11    5   13 1
  12    6    7 ar
  13    6   20 1
  14    7    8 ar
  15    8    9 1
  16    8   10 ar
  17    9   21 1
  18    9   22 1
  19    9   23 1
  20   10   11 1
  21   11   24 1
  22   13   14 1
  23   13   15 2
  24   13   16 1
  25   14   25 1
  26   16   26 1

#	End of record

