#	Name: ASD01148473
#	Creating user name:	WinNT
#	Creation time:	15. 06. 2019 19:02

#	Modifying user name:	WinNT
#	Modification time:	15. 06. 2019 19:02

#	Program:	/corina/corina34_cracker 3.40 0067  02.08.2006

@<TRIPOS>MOLECULE
ASD01148473
  54   57    0    0    0
SMALL
NO_CHARGES


@<TRIPOS>ATOM
   1 C1             0.3638     1.8408     0.0684 C.ar    
   2 C2             0.4620     0.4640    -0.0069 C.ar    
   3 C3            -0.6821    -0.3068    -0.0945 C.ar    
   4 C4            -1.9245     0.2991    -0.1063 C.ar    
   5 C5            -2.0228     1.6758    -0.0302 C.ar    
   6 C6            -0.8789     2.4464     0.0618 C.ar    
   7 C7            -3.3773     2.3364    -0.0436 C.3     
   8 O8            -4.3696     1.4917     0.5738 O.3     
   9 C9            -3.3982     3.5758     0.8827 C.3     
  10 C10           -3.9252     3.0048     2.1854 C.2     
  11 N11           -4.4452     1.8491     1.9397 N.2     
  12 C12           -3.8548     3.6581     3.5072 C.ar    
  13 C13           -4.3820     3.0179     4.6320 C.ar    
  14 C14           -3.2559     4.9138     3.6348 C.ar    
  15 C15           -3.1902     5.5230     4.8676 C.ar    
  16 C16           -3.7221     4.8854     5.9910 C.ar    
  17 C17           -4.3163     3.6271     5.8644 C.ar    
  18 C18           -3.6512     5.5391     7.3141 C.2     
  19 O19           -4.2101     5.0381     8.2702 O.2     
  20 N20           -2.9668     6.6908     7.4609 N.am    
  21 C21           -4.8900     2.9393     7.0763 C.3     
  22 C22           -3.7869     2.7104    -1.4695 C.3     
  23 F23           -3.8259     1.5576    -2.2610 F       
  24 F24           -5.0527     3.3058    -1.4500 F       
  25 F25           -2.8566     3.6099    -2.0012 F       
  26 C26           -2.9001     7.3050     8.7042 C.ar    
  27 N27           -2.2234     8.4362     8.8306 N.ar    
  28 N28           -3.5194     6.7484     9.7339 N.ar    
  29 C29           -3.4759     7.3074    10.9319 C.ar    
  30 C30           -2.7717     8.4893    11.1012 C.ar    
  31 C31           -2.1400     9.0473    10.0008 C.ar    
  32 C32           -0.5749    -1.8077    -0.1775 C.3     
  33 F33            0.7730    -2.1813    -0.1487 F       
  34 F34           -1.2418    -2.3837     0.9091 F       
  35 F35           -1.1564    -2.2515    -1.3700 F       
  36 C36            1.6111     2.6812     0.1638 C.3     
  37 F37            2.7356     1.8489     0.1586 F       
  38 F38            1.6709     3.5527    -0.9289 F       
  39 F39            1.5846     3.4220     1.3503 F       
  40 H40            1.4327    -0.0094     0.0024 H       
  41 H41           -2.8184    -0.3031    -0.1755 H       
  42 H42           -0.9557     3.5220     0.1213 H       
  43 H43           -2.3935     3.9773     1.0146 H       
  44 H44           -4.0728     4.3384     0.4935 H       
  45 H45           -4.8413     2.0454     4.5341 H       
  46 H46           -2.8441     5.4064     2.7664 H       
  47 H47           -2.7273     6.4937     4.9662 H       
  48 H48           -2.5207     7.0906     6.6979 H       
  49 H49           -5.8972     3.3120     7.2629 H       
  50 H50           -4.9272     1.8642     6.9004 H       
  51 H51           -4.2606     3.1442     7.9423 H       
  52 H52           -3.9833     6.8488    11.7678 H       
  53 H53           -2.7202     8.9673    12.0683 H       
  54 H54           -1.5828     9.9672    10.0986 H       
@<TRIPOS>BOND
   1    1    2 ar
   2    1   36 1
   3    1    6 ar
   4    2    3 ar
   5    2   40 1
   6    3    4 ar
   7    3   32 1
   8    4    5 ar
   9    4   41 1
  10    5    6 ar
  11    5    7 1
  12    6   42 1
  13    7    8 1
  14    7    9 1
  15    7   22 1
  16    8   11 1
  17    9   10 1
  18    9   43 1
  19    9   44 1
  20   10   11 2
  21   10   12 1
  22   12   13 ar
  23   12   14 ar
  24   13   17 ar
  25   13   45 1
  26   14   15 ar
  27   14   46 1
  28   15   16 ar
  29   15   47 1
  30   16   17 ar
  31   16   18 1
  32   17   21 1
  33   18   19 2
  34   18   20 am
  35   20   26 1
  36   20   48 1
  37   21   49 1
  38   21   50 1
  39   21   51 1
  40   22   23 1
  41   22   24 1
  42   22   25 1
  43   26   27 ar
  44   26   28 ar
  45   27   31 ar
  46   28   29 ar
  47   29   30 ar
  48   29   52 1
  49   30   31 ar
  50   30   53 1
  51   31   54 1
  52   32   33 1
  53   32   34 1
  54   32   35 1
  55   36   37 1
  56   36   38 1
  57   36   39 1

#	End of record

