#	Name: ASD02030793
#	Creating user name:	WinNT
#	Creation time:	15. 06. 2019 20:16

#	Modifying user name:	WinNT
#	Modification time:	15. 06. 2019 20:16

#	Program:	/corina/corina34_cracker 3.40 0067  02.08.2006

@<TRIPOS>MOLECULE
ASD02030793
  91   95    0    0    0
SMALL
NO_CHARGES


@<TRIPOS>ATOM
   1 H1            -0.3392     0.6180    -1.8147 H       
   2 C2            -0.2937     1.6795    -1.5715 C.3     
   3 C3            -0.4656     2.5317    -2.8535 C.3     
   4 C4             0.8720     3.2948    -3.0550 C.3     
   5 C5             1.8826     2.4180    -2.3073 C.3     
   6 H6             2.1144     1.5262    -2.8896 H       
   7 C7             3.1538     3.1143    -1.8557 C.3     
   8 H8             2.9112     3.9736    -1.2306 H       
   9 C9             3.9680     3.5402    -3.0826 C.3     
  10 H10            4.1221     2.6798    -3.7338 H       
  11 C11            3.2110     4.6293    -3.8453 C.3     
  12 C12            5.2971     4.0731    -2.6328 C.2     
  13 C13            5.8653     3.7125    -1.5197 C.2     
  14 C14            7.2179     4.3131    -1.1755 C.3     
  15 C15            8.1819     3.1719    -0.8379 C.3     
  16 C16            8.4079     2.3105    -2.0820 C.3     
  17 O17            9.4294     3.7154    -0.4018 O.3     
  18 C18            7.5833     2.3114     0.2761 C.3     
  19 C19            6.2944     1.6520    -0.2188 C.3     
  20 C20            5.2652     2.7355    -0.5530 C.3     
  21 C21            4.9290     3.4862     0.7371 C.3     
  22 C22            3.9835     2.0965    -1.0609 C.3     
  23 H23            4.2499     1.2755    -1.7265 H       
  24 C24            3.1976     1.5148     0.1108 C.3     
  25 C25            1.8525     0.9254    -0.3415 C.3     
  26 C26            1.0863     2.0390    -1.0300 C.3     
  27 C27            0.9809     3.2527    -0.1045 C.3     
  28 C28           -1.3738     2.0347    -0.5477 C.3     
  29 H29           -1.2775     3.0836    -0.2670 H       
  30 C30           -1.2074     1.1571     0.6945 C.3     
  31 C31           -2.7553     1.7953    -1.1600 C.3     
  32 C32           -3.8346     2.2671    -0.1835 C.3     
  33 C33           -5.2162     2.0277    -0.7959 C.3     
  34 O34           -5.3282     2.7582    -2.0190 O.3     
  35 C35           -5.3985     0.5345    -1.0751 C.3     
  36 C36           -6.7800     0.2951    -1.6874 C.3     
  37 C37           -7.8594     0.7669    -0.7109 C.3     
  38 C38           -9.2409     0.5275    -1.3232 C.3     
  39 C39           -7.7394    -0.0151     0.5986 C.3     
  40 C40           -7.6770     2.2601    -0.4317 C.3     
  41 C41           -6.2955     2.4995     0.1806 C.3     
  42 H42           -0.6601     1.8852    -3.7092 H       
  43 H43           -1.2845     3.2396    -2.7252 H       
  44 H44            1.1246     3.3576    -4.1135 H       
  45 H45            0.8201     4.2885    -2.6101 H       
  46 H46            2.7923     5.3445    -3.1372 H       
  47 H47            3.8960     5.1438    -4.5192 H       
  48 H48            2.4055     4.1756    -4.4226 H       
  49 H49            5.8051     4.7885    -3.2625 H       
  50 H50            7.5982     4.8745    -2.0289 H       
  51 H51            7.1174     4.9751    -0.3154 H       
  52 H52            8.8345     2.9236    -2.8759 H       
  53 H53            9.0940     1.4982    -1.8418 H       
  54 H54            7.4563     1.8959    -2.4147 H       
  55 H55           10.0899     3.0480    -0.1706 H       
  56 H56            8.2983     1.5403     0.5628 H       
  57 H57            7.3615     2.9387     1.1395 H       
  58 H58            6.5065     1.0641    -1.1118 H       
  59 H59            5.8970     1.0008     0.5598 H       
  60 H60            4.1209     4.1925     0.5464 H       
  61 H61            4.6166     2.7742     1.5009 H       
  62 H62            5.8100     4.0269     1.0829 H       
  63 H63            3.7896     0.7293     0.5805 H       
  64 H64            3.0127     2.3029     0.8407 H       
  65 H65            2.0221     0.1049    -1.0388 H       
  66 H66            1.2932     0.5694     0.5236 H       
  67 H67            0.4066     2.9845     0.7823 H       
  68 H68            1.9802     3.5711     0.1924 H       
  69 H69            0.4808     4.0670    -0.6287 H       
  70 H70           -1.2307     0.1070     0.4032 H       
  71 H71           -0.2535     1.3805     1.1722 H       
  72 H72           -2.0196     1.3584     1.3930 H       
  73 H73           -2.8407     2.3525    -2.0929 H       
  74 H74           -2.8852     0.7316    -1.3589 H       
  75 H75           -3.7492     1.7100     0.7494 H       
  76 H76           -3.7047     3.3309     0.0154 H       
  77 H77           -4.6735     2.5106    -2.6862 H       
  78 H78           -4.6296     0.1984    -1.7707 H       
  79 H79           -5.3131    -0.0226    -0.1421 H       
  80 H80           -6.8655     0.8523    -2.6203 H       
  81 H81           -6.9099    -0.7687    -1.8863 H       
  82 H82           -9.3708    -0.5363    -1.5221 H       
  83 H83          -10.0098     0.8636    -0.6276 H       
  84 H84           -9.3263     1.0847    -2.2562 H       
  85 H85           -6.7552     0.1554     1.0348 H       
  86 H86           -8.5084     0.3210     1.2942 H       
  87 H87           -7.8693    -1.0789     0.3997 H       
  88 H88           -7.7625     2.8173    -1.3647 H       
  89 H89           -8.4459     2.5962     0.2639 H       
  90 H90           -6.2101     1.9424     1.1135 H       
  91 H91           -6.1656     3.5633     0.3795 H       
@<TRIPOS>BOND
   1    1    2 1
   2    2   26 1
   3    2    3 1
   4    2   28 1
   5    3    4 1
   6    3   42 1
   7    3   43 1
   8    4    5 1
   9    4   44 1
  10    4   45 1
  11    5   26 1
  12    5    6 1
  13    5    7 1
  14    7   22 1
  15    7    8 1
  16    7    9 1
  17    9   10 1
  18    9   11 1
  19    9   12 1
  20   11   46 1
  21   11   47 1
  22   11   48 1
  23   12   13 2
  24   12   49 1
  25   13   20 1
  26   13   14 1
  27   14   15 1
  28   14   50 1
  29   14   51 1
  30   15   16 1
  31   15   17 1
  32   15   18 1
  33   16   52 1
  34   16   53 1
  35   16   54 1
  36   17   55 1
  37   18   19 1
  38   18   56 1
  39   18   57 1
  40   19   20 1
  41   19   58 1
  42   19   59 1
  43   20   21 1
  44   20   22 1
  45   21   60 1
  46   21   61 1
  47   21   62 1
  48   22   23 1
  49   22   24 1
  50   24   25 1
  51   24   63 1
  52   24   64 1
  53   25   26 1
  54   25   65 1
  55   25   66 1
  56   26   27 1
  57   27   67 1
  58   27   68 1
  59   27   69 1
  60   28   29 1
  61   28   30 1
  62   28   31 1
  63   30   70 1
  64   30   71 1
  65   30   72 1
  66   31   32 1
  67   31   73 1
  68   31   74 1
  69   32   33 1
  70   32   75 1
  71   32   76 1
  72   33   41 1
  73   33   34 1
  74   33   35 1
  75   34   77 1
  76   35   36 1
  77   35   78 1
  78   35   79 1
  79   36   37 1
  80   36   80 1
  81   36   81 1
  82   37   38 1
  83   37   39 1
  84   37   40 1
  85   38   82 1
  86   38   83 1
  87   38   84 1
  88   39   85 1
  89   39   86 1
  90   39   87 1
  91   40   41 1
  92   40   88 1
  93   40   89 1
  94   41   90 1
  95   41   91 1

#	End of record

