#	Name: ASD02508063
#	Creating user name:	WinNT
#	Creation time:	15. 06. 2019 20:23

#	Modifying user name:	WinNT
#	Modification time:	15. 06. 2019 20:23

#	Program:	/corina/corina34_cracker 3.40 0067  02.08.2006

@<TRIPOS>MOLECULE
ASD02508063
  33   35    0    0    0
SMALL
NO_CHARGES


@<TRIPOS>ATOM
   1 C1             0.0185     1.4430    -0.1137 C.ar    
   2 C2             0.0160     0.0659     0.0461 C.ar    
   3 C3             1.2240     2.1307    -0.2486 C.ar    
   4 C4             2.4216     1.4334    -0.2225 C.ar    
   5 C5             2.4156     0.0560    -0.0625 C.ar    
   6 C6             1.2109    -0.6266     0.0718 C.ar    
   7 N7            -0.9964     2.4006    -0.1840 N.am    
   8 C8            -0.4080     3.6020    -0.3475 C.2     
   9 O9             0.9244     3.4457    -0.3879 O.3     
  10 N10            3.6244    -0.6492    -0.0360 N.am    
  11 S11            4.9610     0.0252     0.6720 S.o2    
  12 C12            4.5822     0.2684     2.3755 C.ar    
  13 C13            4.8532    -0.7304     3.2948 C.ar    
  14 O14           -0.9939     4.6629    -0.4478 O.2     
  15 O15            5.9815    -0.9626     0.6249 O.2     
  16 O16            5.1057     1.3198     0.1043 O.2     
  17 Cl17           1.2094    -2.3509     0.2730 Cl      
  18 C18           -2.4364     2.1455    -0.0961 C.3     
  19 C19            4.0186     1.4605     2.7964 C.ar    
  20 C20            3.7213     1.6505     4.1354 C.ar    
  21 C21            3.9870     0.6504     5.0515 C.ar    
  22 C22            4.5550    -0.5382     4.6333 C.ar    
  23 F23            5.4080    -1.8925     2.8862 F       
  24 F24            3.7591     2.4385     1.9012 F       
  25 H25           -0.9189    -0.4646     0.1508 H       
  26 H26            3.3577     1.9619    -0.3270 H       
  27 H27            3.6793    -1.5328    -0.4323 H       
  28 H28           -2.7522     2.2008     0.9457 H       
  29 H29           -2.9741     2.8932    -0.6790 H       
  30 H30           -2.6541     1.1525    -0.4895 H       
  31 H31            3.2819     2.5807     4.4640 H       
  32 H32            3.7551     0.7996     6.0957 H       
  33 H33            4.7622    -1.3190     5.3500 H       
@<TRIPOS>BOND
   1    1    2 ar
   2    1    3 ar
   3    1    7 1
   4    2    6 ar
   5    2   25 1
   6    3    4 ar
   7    3    9 1
   8    4    5 ar
   9    4   26 1
  10    5    6 ar
  11    5   10 1
  12    6   17 1
  13    7    8 am
  14    7   18 1
  15    8    9 1
  16    8   14 2
  17   10   11 am
  18   10   27 1
  19   11   12 1
  20   11   15 2
  21   11   16 2
  22   12   13 ar
  23   12   19 ar
  24   13   23 1
  25   13   22 ar
  26   18   28 1
  27   18   29 1
  28   18   30 1
  29   19   20 ar
  30   19   24 1
  31   20   21 ar
  32   20   31 1
  33   21   22 ar
  34   21   32 1
  35   22   33 1

#	End of record

