#	Name: ASD08150180
#	Creating user name:	WinNT
#	Creation time:	15. 06. 2019 21:15

#	Modifying user name:	WinNT
#	Modification time:	15. 06. 2019 21:15

#	Program:	/corina/corina34_cracker 3.40 0067  02.08.2006

@<TRIPOS>MOLECULE
ASD08150180
  50   52    0    0    0
SMALL
NO_CHARGES


@<TRIPOS>ATOM
   1 O1             0.7921     3.4451    -2.1016 O.3     
   2 C2             0.4393     2.3202    -1.4695 C.2     
   3 N3             1.4783     1.5718    -1.0745 N.am    
   4 C4             2.7260     2.2419    -1.4718 C.3     
   5 C5             2.2450     3.5256    -2.1755 C.3     
   6 O6            -0.7176     2.0061    -1.2711 O.2     
   7 C7             3.5225     1.3646    -2.4397 C.3     
   8 O8             3.9725     0.1915    -1.7591 O.3     
   9 Si9            4.7463    -0.8765    -2.7187 Si      
  10 C10            6.1252    -0.0078    -3.6318 C.ar    
  11 C11            7.4304    -0.4386    -3.4845 C.ar    
  12 C12            8.4508     0.2043    -4.1602 C.ar    
  13 C13            8.1658     1.2775    -4.9835 C.ar    
  14 C14            6.8604     1.7077    -5.1315 C.ar    
  15 C15            5.8396     1.0621    -4.4592 C.ar    
  16 C16            5.4605    -2.2497    -1.6728 C.ar    
  17 C17            6.6705    -2.0703    -1.0291 C.ar    
  18 C18            7.1990    -3.0865    -0.2552 C.ar    
  19 C19            6.5172    -4.2819    -0.1247 C.ar    
  20 C20            5.3067    -4.4610    -0.7677 C.ar    
  21 C21            4.7761    -3.4432    -1.5381 C.ar    
  22 C22            3.5430    -1.5931    -3.9471 C.3     
  23 C23            3.3114    -0.5900    -5.0789 C.3     
  24 C24            4.1145    -2.8898    -4.5240 C.3     
  25 C25            2.2147    -1.8881    -3.2473 C.3     
  26 H26            1.4175     0.7261    -0.6033 H       
  27 H27            3.3248     2.4874    -0.5948 H       
  28 H28            2.5747     3.5383    -3.2143 H       
  29 H29            2.6061     4.4086    -1.6482 H       
  30 H30            2.8865     1.0774    -3.2771 H       
  31 H31            4.3826     1.9217    -2.8111 H       
  32 H32            7.6531    -1.2771    -2.8413 H       
  33 H33            9.4706    -0.1318    -4.0446 H       
  34 H34            8.9631     1.7802    -5.5108 H       
  35 H35            6.6378     2.5464    -5.7744 H       
  36 H36            4.8193     1.3958    -4.5776 H       
  37 H37            7.2032    -1.1364    -1.1310 H       
  38 H38            8.1448    -2.9466     0.2472 H       
  39 H39            6.9304    -5.0761     0.4794 H       
  40 H40            4.7742    -5.3950    -0.6660 H       
  41 H41            3.8286    -3.5817    -2.0375 H       
  42 H42            4.2692    -0.3084    -5.5165 H       
  43 H43            2.6819    -1.0444    -5.8440 H       
  44 H44            2.8180     0.2975    -4.6825 H       
  45 H45            4.1757    -3.6416    -3.7371 H       
  46 H46            3.4645    -3.2504    -5.3212 H       
  47 H47            5.1105    -2.7013    -4.9246 H       
  48 H48            1.7619    -0.9529    -2.9182 H       
  49 H49            1.5426    -2.3927    -3.9414 H       
  50 H50            2.3934    -2.5289    -2.3839 H       
@<TRIPOS>BOND
   1    1    2 1
   2    1    5 1
   3    2    3 am
   4    2    6 2
   5    3    4 1
   6    3   26 1
   7    4    5 1
   8    4    7 1
   9    4   27 1
  10    5   28 1
  11    5   29 1
  12    7    8 1
  13    7   30 1
  14    7   31 1
  15    8    9 1
  16    9   10 1
  17    9   16 1
  18    9   22 1
  19   10   11 ar
  20   10   15 ar
  21   11   12 ar
  22   11   32 1
  23   12   13 ar
  24   12   33 1
  25   13   14 ar
  26   13   34 1
  27   14   15 ar
  28   14   35 1
  29   15   36 1
  30   16   17 ar
  31   16   21 ar
  32   17   18 ar
  33   17   37 1
  34   18   19 ar
  35   18   38 1
  36   19   20 ar
  37   19   39 1
  38   20   21 ar
  39   20   40 1
  40   21   41 1
  41   22   23 1
  42   22   25 1
  43   22   24 1
  44   23   42 1
  45   23   43 1
  46   23   44 1
  47   24   45 1
  48   24   46 1
  49   24   47 1
  50   25   48 1
  51   25   49 1
  52   25   50 1

#	End of record

