#	Name: ASD01900685
#	Creating user name:	WinNT
#	Creation time:	15. 06. 2019 19:52

#	Modifying user name:	WinNT
#	Modification time:	15. 06. 2019 19:52

#	Program:	/corina/corina34_cracker 3.40 0067  02.08.2006

@<TRIPOS>MOLECULE
ASD01900685
  32   35    0    0    0
SMALL
NO_CHARGES


@<TRIPOS>ATOM
   1 C1            -0.0157     1.4049    -0.1138 C.ar    
   2 C2             0.0117     0.0195    -0.1180 C.ar    
   3 C3            -1.1601    -0.7083    -0.0667 C.ar    
   4 C4            -2.3829    -0.0529    -0.0099 C.ar    
   5 C5            -2.4064     1.3483    -0.0102 C.ar    
   6 O6            -3.5354    -0.7538     0.0523 O.3     
   7 C7            -4.7268    -0.1784    -0.1880 C.2     
   8 C8            -4.9019     1.1674    -0.2037 C.2     
   9 C9            -3.7279     2.0245     0.0376 C.2     
  10 C10           -5.8894    -1.0443    -0.4451 C.2     
  11 N11           -7.1040    -0.4944    -0.6906 N.2     
  12 C12           -8.1545    -1.2218    -0.9225 C.2     
  13 N13           -8.0901    -2.5881    -0.9308 N.pl3   
  14 C14           -6.8797    -3.2131    -0.6873 C.2     
  15 C15           -5.7424    -2.4213    -0.4421 C.2     
  16 C16           -1.2234     2.0739    -0.0542 C.ar    
  17 C17           -9.0296    -3.5508    -1.1435 C.2     
  18 C18           -8.4450    -4.7693    -1.0410 C.2     
  19 C19           -7.0902    -4.5777    -0.7539 C.2     
  20 Br20           1.6022     2.3814    -0.1818 Br      
  21 N21           -3.8431     3.3085     0.2805 N.2     
  22 O22           -2.7043     4.0638     0.6517 O.3     
  23 H23            0.9597    -0.4961    -0.1622 H       
  24 H24           -1.1258    -1.7878    -0.0711 H       
  25 H25           -5.8750     1.5981    -0.3880 H       
  26 H26           -9.1005    -0.7369    -1.1129 H       
  27 H27           -4.7819    -2.8757    -0.2488 H       
  28 H28           -1.2473     3.1537    -0.0505 H       
  29 H29          -10.0727    -3.3720    -1.3592 H       
  30 H30           -8.9395    -5.7220    -1.1598 H       
  31 H31           -6.3485    -5.3497    -0.6116 H       
  32 H32           -2.8878     5.0000     0.8100 H       
@<TRIPOS>BOND
   1    1    2 ar
   2    1   20 1
   3    1   16 ar
   4    2    3 ar
   5    2   23 1
   6    3    4 ar
   7    3   24 1
   8    4    5 ar
   9    4    6 1
  10    5   16 ar
  11    5    9 1
  12    6    7 1
  13    7    8 2
  14    7   10 1
  15    8    9 1
  16    8   25 1
  17    9   21 2
  18   10   11 1
  19   10   15 2
  20   11   12 2
  21   12   13 1
  22   12   26 1
  23   13   14 1
  24   13   17 1
  25   14   15 1
  26   14   19 2
  27   15   27 1
  28   16   28 1
  29   17   18 2
  30   17   29 1
  31   18   19 1
  32   18   30 1
  33   19   31 1
  34   21   22 1
  35   22   32 1

#	End of record

