#	Name: ASD01880401
#	Creating user name:	WinNT
#	Creation time:	15. 06. 2019 19:40

#	Modifying user name:	WinNT
#	Modification time:	15. 06. 2019 19:40

#	Program:	/corina/corina34_cracker 3.40 0067  02.08.2006

@<TRIPOS>MOLECULE
ASD01880401
  45   47    0    0    0
SMALL
NO_CHARGES


@<TRIPOS>ATOM
   1 C1            -0.0158     1.3166     0.0093 C.ar    
   2 N2             0.0021    -0.0041     0.0020 N.ar    
   3 C3             1.1445    -0.6746    -0.0125 C.ar    
   4 C4             2.3648     0.0485    -0.0202 C.ar    
   5 C5             2.2891     1.4440    -0.0120 C.ar    
   6 N6             1.0857     2.0309     0.0026 N.ar    
   7 C7             3.7373    -0.4211    -0.0353 C.2     
   8 C8             4.6485     0.5323    -0.0385 C.2     
   9 S9             3.9102     2.1228    -0.0232 S.3     
  10 C10            6.1352     0.2862    -0.0535 C.3     
  11 C11            6.6251     0.2107    -1.5010 C.3     
  12 C12            8.1345    -0.0391    -1.5161 C.3     
  13 N13            1.1474    -2.0578    -0.0195 N.pl3   
  14 C14           -0.1198    -2.7930    -0.0109 C.3     
  15 C15            0.1587    -4.2740    -0.0210 C.ar    
  16 C16            0.2977    -4.9577     1.1721 C.ar    
  17 C17            0.5532    -6.3167     1.1680 C.ar    
  18 C18            0.6699    -6.9960    -0.0336 C.ar    
  19 C19            0.5295    -6.3075    -1.2352 C.ar    
  20 C20            0.2688    -4.9470    -1.2240 C.ar    
  21 O21            0.9217    -8.3324    -0.0393 O.3     
  22 O22            0.6437    -6.9698    -2.4174 O.3     
  23 C23            0.4878    -6.1990    -3.6106 C.3     
  24 C24            1.0542    -8.9730     1.2312 C.3     
  25 H25           -0.9682     1.8258     0.0165 H       
  26 H26            3.9931    -1.4704    -0.0429 H       
  27 H27            6.6437     1.1022     0.4601 H       
  28 H28            6.3530    -0.6539     0.4533 H       
  29 H29            6.1166    -0.6053    -2.0145 H       
  30 H30            6.4073     1.1508    -2.0078 H       
  31 H31            8.6430     0.7768    -1.0026 H       
  32 H32            8.3523    -0.9793    -1.0093 H       
  33 H33            8.4835    -0.0930    -2.5474 H       
  34 H34            1.9884    -2.5410    -0.0301 H       
  35 H35           -0.6832    -2.5354     0.8859 H       
  36 H36           -0.7005    -2.5264    -0.8939 H       
  37 H37            0.2069    -4.4293     2.1096 H       
  38 H38            0.6621    -6.8485     2.1017 H       
  39 H39            0.1594    -4.4105    -2.1549 H       
  40 H40            1.2457    -5.4162    -3.6390 H       
  41 H41            0.6021    -6.8472    -4.4794 H       
  42 H42           -0.5034    -5.7457    -3.6234 H       
  43 H43            1.2529   -10.0346     1.0838 H       
  44 H44            1.8800    -8.5218     1.7812 H       
  45 H45            0.1309    -8.8513     1.7975 H       
@<TRIPOS>BOND
   1    1    2 ar
   2    1    6 ar
   3    1   25 1
   4    2    3 ar
   5    3    4 ar
   6    3   13 1
   7    4    5 ar
   8    4    7 1
   9    5    6 ar
  10    5    9 1
  11    7    8 2
  12    7   26 1
  13    8    9 1
  14    8   10 1
  15   10   11 1
  16   10   27 1
  17   10   28 1
  18   11   12 1
  19   11   29 1
  20   11   30 1
  21   12   31 1
  22   12   32 1
  23   12   33 1
  24   13   14 1
  25   13   34 1
  26   14   15 1
  27   14   35 1
  28   14   36 1
  29   15   16 ar
  30   15   20 ar
  31   16   17 ar
  32   16   37 1
  33   17   18 ar
  34   17   38 1
  35   18   19 ar
  36   18   21 1
  37   19   20 ar
  38   19   22 1
  39   20   39 1
  40   21   24 1
  41   22   23 1
  42   23   40 1
  43   23   41 1
  44   23   42 1
  45   24   43 1
  46   24   44 1
  47   24   45 1

#	End of record

