#	Name: ASD05300006
#	Creating user name:	WinNT
#	Creation time:	15. 06. 2019 20:58

#	Modifying user name:	WinNT
#	Modification time:	15. 06. 2019 20:58

#	Program:	/corina/corina34_cracker 3.40 0067  02.08.2006

@<TRIPOS>MOLECULE
ASD05300006
  50   53    0    0    0
SMALL
NO_CHARGES


@<TRIPOS>ATOM
   1 C1            -0.0173     1.4248     0.0099 C.3     
   2 O2             0.0021    -0.0041     0.0020 O.3     
   3 C3            -1.2003    -0.6375     0.0101 C.ar    
   4 C4            -1.2554    -2.0237     0.0032 C.ar    
   5 C5            -2.4789    -2.6651     0.0114 C.ar    
   6 C6            -3.6478    -1.9268     0.0264 C.ar    
   7 C7            -3.5955    -0.5452     0.0329 C.ar    
   8 C8            -2.3745     0.1010     0.0310 C.ar    
   9 C9            -4.9811    -2.6292     0.0354 C.3     
  10 C10           -5.4186    -2.8746     1.4808 C.3     
  11 N11           -6.7147    -3.5574     1.4894 N.am    
  12 C12           -7.2998    -3.8778     2.6606 C.2     
  13 O13           -6.7533    -3.6008     3.7072 O.2     
  14 N14           -8.4922    -4.5059     2.6685 N.am    
  15 C15           -9.0807    -4.8281     3.8417 C.2     
  16 C16           -9.4439    -3.8123     4.7282 C.2     
  17 C17          -10.0885    -4.1232     5.9240 C.2     
  18 C18          -10.3803    -5.4520     6.2303 C.2     
  19 C19          -10.0101    -6.4664     5.3502 C.2     
  20 C20           -9.3414    -6.1587     4.1618 C.2     
  21 C21           -8.8809    -7.2465     3.2948 C.2     
  22 C22           -8.8797    -7.2392     2.0012 C.2     
  23 C23           -9.3485    -6.1382     1.1525 C.2     
  24 C24           -9.1052    -4.8103     1.5041 C.2     
  25 C25           -9.4967    -3.7798     0.6449 C.2     
  26 C26          -10.1693    -4.0731    -0.5397 C.2     
  27 C27          -10.4529    -5.3983    -0.8686 C.2     
  28 C28          -10.0453    -6.4284    -0.0237 C.2     
  29 H29            1.0053     1.8021     0.0021 H       
  30 H30           -0.5445     1.7859    -0.8732 H       
  31 H31           -0.5275     1.7763     0.9067 H       
  32 H32           -0.3427    -2.6008    -0.0090 H       
  33 H33           -2.5223    -3.7442     0.0056 H       
  34 H34           -4.5100     0.0293     0.0440 H       
  35 H35           -2.3342     1.1803     0.0361 H       
  36 H36           -5.7222    -2.0084    -0.4681 H       
  37 H37           -4.8927    -3.5832    -0.4845 H       
  38 H38           -4.6775    -3.4954     1.9843 H       
  39 H39           -5.5070    -1.9206     2.0006 H       
  40 H40           -7.1518    -3.7790     0.6523 H       
  41 H41           -9.2244    -2.7828     4.4866 H       
  42 H42          -10.3612    -3.3367     6.6121 H       
  43 H43          -10.8927    -5.6946     7.1495 H       
  44 H44          -10.2403    -7.4947     5.5871 H       
  45 H45           -8.5079    -8.1361     3.7804 H       
  46 H46           -8.5006    -8.1193     1.5032 H       
  47 H47           -9.2777    -2.7534     0.8999 H       
  48 H48          -10.4709    -3.2752    -1.2020 H       
  49 H49          -10.9894    -5.6268    -1.7776 H       
  50 H50          -10.2657    -7.4542    -0.2798 H       
@<TRIPOS>BOND
   1    1    2 1
   2    1   29 1
   3    1   30 1
   4    1   31 1
   5    2    3 1
   6    3    4 ar
   7    3    8 ar
   8    4    5 ar
   9    4   32 1
  10    5    6 ar
  11    5   33 1
  12    6    7 ar
  13    6    9 1
  14    7    8 ar
  15    7   34 1
  16    8   35 1
  17    9   10 1
  18    9   36 1
  19    9   37 1
  20   10   11 1
  21   10   38 1
  22   10   39 1
  23   11   12 am
  24   11   40 1
  25   12   13 2
  26   12   14 am
  27   14   15 1
  28   14   24 1
  29   15   16 2
  30   15   20 1
  31   16   17 1
  32   16   41 1
  33   17   18 2
  34   17   42 1
  35   18   19 1
  36   18   43 1
  37   19   20 2
  38   19   44 1
  39   20   21 1
  40   21   22 2
  41   21   45 1
  42   22   23 1
  43   22   46 1
  44   23   24 2
  45   23   28 1
  46   24   25 1
  47   25   26 2
  48   25   47 1
  49   26   27 1
  50   26   48 1
  51   27   28 2
  52   27   49 1
  53   28   50 1

#	End of record

