#	Name: ASD03092937
#	Creating user name:	WinNT
#	Creation time:	15. 06. 2019 20:33

#	Modifying user name:	WinNT
#	Modification time:	15. 06. 2019 20:33

#	Program:	/corina/corina34_cracker 3.40 0067  02.08.2006

@<TRIPOS>MOLECULE
ASD03092937
  52   54    0    0    0
SMALL
NO_CHARGES


@<TRIPOS>ATOM
   1 C1            -0.4046     1.7184    -1.3566 C.3     
   2 C2            -0.4954     0.2424    -1.7491 C.3     
   3 C3             0.7169    -0.4898    -1.2340 C.2     
   4 O4             1.6160     0.1261    -0.6971 O.2     
   5 C5             0.8077    -1.8894    -1.3752 C.2     
   6 C6             1.2831    -2.5769    -2.4921 C.2     
   7 C7             1.1891    -3.9568    -2.1853 C.2     
   8 C8             0.6738    -4.0629    -0.9262 C.2     
   9 C9             0.4053    -5.3557    -0.1998 C.3     
  10 C10           -1.0193    -5.8244    -0.5025 C.3     
  11 N11            0.4484    -2.8292    -0.4323 N.pl3   
  12 C12           -0.0963    -2.5336     0.8952 C.3     
  13 C13            1.5792    -5.0809    -3.0711 C.ar    
  14 C14            0.6116    -5.9628    -3.5488 C.ar    
  15 C15            0.9796    -7.0070    -4.3726 C.ar    
  16 C16            2.3074    -7.1793    -4.7245 C.ar    
  17 Cl17           2.7639    -8.4948    -5.7611 Cl      
  18 C18            3.2722    -6.3057    -4.2530 C.ar    
  19 C19            2.9137    -5.2552    -3.4330 C.ar    
  20 C20            1.7858    -1.9819    -3.7503 C.ar    
  21 C21            1.0965    -2.1860    -4.9463 C.ar    
  22 C22            1.5702    -1.6281    -6.1159 C.ar    
  23 C23            2.7260    -0.8677    -6.1045 C.ar    
  24 C24            3.4143    -0.6619    -4.9221 C.ar    
  25 C25            2.9480    -1.2095    -3.7448 C.ar    
  26 S26            3.3243    -0.1587    -7.6026 S.o2    
  27 N27            2.6325     1.3390    -7.7466 N.am    
  28 O28            4.7161     0.0585    -7.4159 O.2     
  29 O29            2.7957    -0.9481    -8.6593 O.2     
  30 H30           -0.3628     1.8037    -0.2707 H       
  31 H31            0.4950     2.1550    -1.7903 H       
  32 H32           -1.2814     2.2480    -1.7291 H       
  33 H33           -1.3950    -0.1942    -1.3154 H       
  34 H34           -0.5372     0.1571    -2.8349 H       
  35 H35            1.1153    -6.1132    -0.5318 H       
  36 H36            0.5161    -5.1994     0.8732 H       
  37 H37           -1.7293    -5.0668    -0.1705 H       
  38 H38           -1.1301    -5.9807    -1.5755 H       
  39 H39           -1.2136    -6.7594     0.0229 H       
  40 H40           -1.1757    -2.3999     0.8235 H       
  41 H41            0.1234    -3.3605     1.5705 H       
  42 H42            0.3582    -1.6203     1.2792 H       
  43 H43           -0.4244    -5.8295    -3.2745 H       
  44 H44            0.2306    -7.6912    -4.7430 H       
  45 H45            4.3067    -6.4440    -4.5307 H       
  46 H46            3.6666    -4.5716    -3.0693 H       
  47 H47            0.1944    -2.7797    -4.9565 H       
  48 H48            1.0378    -1.7856    -7.0423 H       
  49 H49            4.3161    -0.0677    -4.9199 H       
  50 H50            3.4835    -1.0442    -2.8216 H       
  51 H51            2.0225     1.6592    -7.0637 H       
  52 H52            2.8372     1.8961    -8.5138 H       
@<TRIPOS>BOND
   1    1    2 1
   2    1   30 1
   3    1   31 1
   4    1   32 1
   5    2    3 1
   6    2   33 1
   7    2   34 1
   8    3    4 2
   9    3    5 1
  10    5   11 1
  11    5    6 2
  12    6    7 1
  13    6   20 1
  14    7    8 2
  15    7   13 1
  16    8    9 1
  17    8   11 1
  18    9   10 1
  19    9   35 1
  20    9   36 1
  21   10   37 1
  22   10   38 1
  23   10   39 1
  24   11   12 1
  25   12   40 1
  26   12   41 1
  27   12   42 1
  28   13   19 ar
  29   13   14 ar
  30   14   15 ar
  31   14   43 1
  32   15   16 ar
  33   15   44 1
  34   16   17 1
  35   16   18 ar
  36   18   19 ar
  37   18   45 1
  38   19   46 1
  39   20   25 ar
  40   20   21 ar
  41   21   22 ar
  42   21   47 1
  43   22   23 ar
  44   22   48 1
  45   23   24 ar
  46   23   26 1
  47   24   25 ar
  48   24   49 1
  49   25   50 1
  50   26   27 am
  51   26   28 2
  52   26   29 2
  53   27   51 1
  54   27   52 1

#	End of record

