#	Name: ASD01913848
#	Creating user name:	WinNT
#	Creation time:	15. 06. 2019 20:02

#	Modifying user name:	WinNT
#	Modification time:	15. 06. 2019 20:02

#	Program:	/corina/corina34_cracker 3.40 0067  02.08.2006

@<TRIPOS>MOLECULE
ASD01913848
  40   42    0    0    0
SMALL
NO_CHARGES


@<TRIPOS>ATOM
   1 C1            -0.0190     1.4278    -0.0131 C.ar    
   2 C2             0.0009    -0.0040    -0.0142 C.1     
   3 C3             0.0172    -1.1779    -0.0150 C.1     
   4 C4             0.0371    -2.6098    -0.0160 C.ar    
   5 C5            -1.1523    -3.3386     0.1332 C.ar    
   6 C6             0.1560    -5.3344    -0.0280 C.ar    
   7 N7             1.2611    -4.6186    -0.1725 N.ar    
   8 C8             1.2402    -3.3019    -0.1713 C.ar    
   9 C9            -1.0818    -4.7172     0.1258 C.ar    
  10 C10            1.1648     2.1549    -0.1616 C.ar    
  11 N11            1.1471     3.4715    -0.1608 N.ar    
  12 C12           -1.1908     3.5083     0.1248 C.ar    
  13 C13           -1.2269     2.1235     0.1309 C.ar    
  14 C14            0.0269     4.1539    -0.0221 C.ar    
  15 N15            0.2331    -6.7251    -0.0364 N.am    
  16 C16            0.1552    -7.3618    -1.2099 C.2     
  17 O17            0.1738    -8.6992    -1.3202 O.3     
  18 C18            0.6535    -9.4539    -0.1733 C.3     
  19 C19           -0.0193    -8.8885     1.0850 C.3     
  20 C20            0.4013    -7.4220     1.2361 C.3     
  21 C21            0.2866   -10.9303    -0.3362 C.3     
  22 C22            2.1721    -9.3079    -0.0572 C.3     
  23 O23            0.0628    -6.6984    -2.2236 O.2     
  24 F24           -2.3300     4.2217     0.2606 F       
  25 H25           -2.0997    -2.8336     0.2512 H       
  26 H26            2.1619    -2.7522    -0.2918 H       
  27 H27           -1.9773    -5.3103     0.2385 H       
  28 H28            2.1027     1.6323    -0.2778 H       
  29 H29           -2.1614     1.5940     0.2431 H       
  30 H30            0.0586     5.2335    -0.0268 H       
  31 H31           -1.1025    -8.9547     0.9835 H       
  32 H32            0.3033    -9.4538     1.9594 H       
  33 H33            1.4452    -7.3749     1.5463 H       
  34 H34           -0.2214    -6.9428     1.9916 H       
  35 H35            0.7470   -11.3211    -1.2436 H       
  36 H36            0.6479   -11.4917     0.5254 H       
  37 H37           -0.7966   -11.0299    -0.4065 H       
  38 H38            2.4272    -8.2559     0.0706 H       
  39 H39            2.5269    -9.8749     0.8034 H       
  40 H40            2.6440    -9.6887    -0.9629 H       
@<TRIPOS>BOND
   1    1    2 1
   2    1   10 ar
   3    1   13 ar
   4    2    3 3
   5    3    4 1
   6    4    5 ar
   7    4    8 ar
   8    5    9 ar
   9    5   25 1
  10    6    7 ar
  11    6   15 1
  12    6    9 ar
  13    7    8 ar
  14    8   26 1
  15    9   27 1
  16   10   11 ar
  17   10   28 1
  18   11   14 ar
  19   12   13 ar
  20   12   24 1
  21   12   14 ar
  22   13   29 1
  23   14   30 1
  24   15   16 am
  25   15   20 1
  26   16   17 1
  27   16   23 2
  28   17   18 1
  29   18   19 1
  30   18   21 1
  31   18   22 1
  32   19   20 1
  33   19   31 1
  34   19   32 1
  35   20   33 1
  36   20   34 1
  37   21   35 1
  38   21   36 1
  39   21   37 1
  40   22   38 1
  41   22   39 1
  42   22   40 1

#	End of record

