#	Name: ASD06300008
#	Creating user name:	WinNT
#	Creation time:	15. 06. 2019 21:05

#	Modifying user name:	WinNT
#	Modification time:	15. 06. 2019 21:05

#	Program:	/corina/corina34_cracker 3.40 0067  02.08.2006

@<TRIPOS>MOLECULE
ASD06300008
 288  293    0    0    0
SMALL
NO_CHARGES


@<TRIPOS>ATOM
   1 N1            -0.9178     0.4933     0.9769 N.am    
   2 C2             1.7266    -0.5983     0.0736 C.3     
   3 C3             0.7196    -1.3603     0.9375 C.3     
   4 C4            -0.6616    -0.8026     0.7093 C.2     
   5 N5             0.7395    -2.7793     0.5739 N.am    
   6 O6            -1.5427    -1.5197     0.2847 O.2     
   7 N7             5.5055    -0.7776    -0.1578 N.pl3   
   8 C8             6.5832    -0.2324    -0.8146 C.2     
   9 N9             6.3986     0.6941    -1.7126 N.2     
  10 N10            7.8556    -0.6645    -0.5243 N.pl3   
  11 C11            3.1426    -1.0792     0.3967 C.3     
  12 C12            4.1496    -0.3172    -0.4672 C.3     
  13 C13           -4.5219   -39.1398    14.6495 C.2     
  14 N14           -2.3812   -40.2519    14.3846 N.am    
  15 C15           -3.7363   -40.1388    13.8395 C.3     
  16 C16           -4.4270   -41.5026    13.9028 C.3     
  17 C17           -3.7009   -42.4852    12.9818 C.3     
  18 C18           -4.3915   -43.8489    13.0451 C.3     
  19 C19           -3.6655   -44.8316    12.1242 C.3     
  20 O20           -4.1143   -38.7838    15.7294 O.2     
  21 C21           -7.0623   -28.2972     7.8292 C.3     
  22 C22           -6.1759   -27.1478     8.2344 C.2     
  23 N23           -7.1722   -29.2447     8.9412 N.am    
  24 O24           -5.6844   -27.1225     9.3428 O.2     
  25 C25          -10.0660   -29.6485     7.8229 C.ar    
  26 C26          -10.8452   -30.6851     7.3442 C.ar    
  27 C27          -10.8599   -30.9712     5.9919 C.ar    
  28 C28          -10.0958   -30.2204     5.1182 C.ar    
  29 C29           -9.3162   -29.1841     5.5970 C.ar    
  30 C30           -9.3015   -28.8980     6.9493 C.ar    
  31 C31           -8.4524   -27.7676     7.4711 C.3     
  32 C32           -3.6042   -25.4050     7.5165 C.3     
  33 C33           -5.0677   -25.0305     7.7588 C.3     
  34 C34           -5.4170   -23.8141     6.9407 C.2     
  35 N35           -5.9294   -26.1479     7.3650 N.am    
  36 O36           -6.2989   -23.8746     6.1103 O.2     
  37 C37           -3.2143   -26.5616     8.4391 C.3     
  38 C38           -1.7915   -27.0185     8.1108 C.3     
  39 C39           -3.2772   -26.0960     9.8952 C.3     
  40 C40           -6.2578   -20.7389     6.9925 C.3     
  41 C41           -5.0890   -21.4765     6.3363 C.3     
  42 C42           -3.8946   -20.5605     6.2630 C.2     
  43 N43           -4.7494   -22.6590     7.1317 N.am    
  44 O44           -2.8614   -20.8654     6.8203 O.2     
  45 C45           -7.5052   -21.6241     6.9547 C.3     
  46 C46           -8.6565   -20.8976     7.6010 C.2     
  47 O47           -8.4952   -19.7818     8.0480 O.2     
  48 N48           -9.8654   -21.4879     7.6824 N.am    
  49 C49           -6.2456   -31.5667    10.5994 C.3     
  50 C50           -7.5739   -31.5131     9.8419 C.3     
  51 C51           -7.4608   -30.5385     8.6980 C.2     
  52 N52           -7.8922   -32.8443     9.3195 N.am    
  53 O53           -7.6295   -30.9184     7.5587 O.2     
  54 N54           -5.2145   -33.3684    13.7706 N.pl3   
  55 C55           -4.1447   -33.5681    14.6106 C.2     
  56 N56           -3.0010   -32.9968    14.3566 N.2     
  57 N57           -4.2811   -34.3706    15.7186 N.pl3   
  58 C58           -6.3974   -32.4597    11.8324 C.3     
  59 C59           -5.0692   -32.5133    12.5900 C.3     
  60 C60           -9.5043   -37.2717    12.6547 C.3     
  61 C61           -8.8082   -36.5632    11.5213 C.2     
  62 N62           -8.5050   -37.9210    13.5136 N.3     
  63 O63           -7.5988   -36.5959    11.4373 O.2     
  64 C64          -10.5403   -37.2073    15.7805 C.ar    
  65 C65          -11.2679   -37.8705    16.7508 C.ar    
  66 C66          -12.5502   -38.3073    16.4754 C.ar    
  67 C67          -13.1050   -38.0804    15.2298 C.ar    
  68 C68          -12.3772   -37.4176    14.2593 C.ar    
  69 C69          -11.0949   -36.9809    14.5347 C.ar    
  70 C70          -10.3018   -36.2574    13.4770 C.3     
  71 C71           -9.7656   -34.9758     8.3462 C.3     
  72 C72           -8.8504   -35.1115     9.5647 C.3     
  73 C73           -8.5230   -33.7422    10.1021 C.2     
  74 N74           -9.5297   -35.8931    10.6010 N.am    
  75 O75           -8.8271   -33.4481    11.2387 O.2     
  76 C76           -9.9687   -36.3301     7.7171 C.2     
  77 O77           -9.3566   -37.2862     8.1307 O.2     
  78 O78          -10.8295   -36.4742     6.6974 O.3     
  79 C79           -0.5504    -5.4031    -0.0987 C.3     
  80 C80            0.3764    -5.1698     1.0961 C.3     
  81 C81            0.3560    -3.7101     1.4701 C.2     
  82 N82           -0.0816    -5.9717     2.2333 N.am    
  83 O83           -0.0056    -3.3728     2.5776 O.2     
  84 C84           -0.4350    -6.8583    -0.5570 C.3     
  85 C85           -1.3479    -7.0881    -1.7339 C.2     
  86 O86           -2.0216    -6.1811    -2.1621 O.2     
  87 O87           -1.4125    -8.3005    -2.3064 O.3     
  88 C88            0.5377    -7.8664     4.7425 C.3     
  89 C89           -0.2539    -8.1146     3.4569 C.3     
  90 C90            0.3043    -7.2578     2.3500 C.2     
  91 N91           -0.1470    -9.5269     3.0825 N.am    
  92 O92            1.1009    -7.7255     1.5641 O.2     
  93 C93            0.3011    -6.4316     5.2182 C.3     
  94 C94           -1.1659    -6.2624     5.6185 C.3     
  95 C95            1.1958    -6.1403     6.4246 C.3     
  96 C96           -0.9009   -12.1186     1.7730 C.3     
  97 C97           -0.8453   -11.8912     3.2849 C.3     
  98 C98           -1.0219   -10.4238     3.5790 C.2     
  99 N99           -1.9169   -12.6515     3.9329 N.am    
 100 O100          -1.9514   -10.0499     4.2626 O.2     
 101 C101          -0.6024   -13.5646     1.4712 C.2     
 102 C102           0.5928   -14.0823     1.1465 C.2     
 103 N103           0.4775   -15.4306     0.9434 N.pl3   
 104 C104          -0.8279   -15.8232     1.1374 C.ar    
 105 C105          -1.5603   -14.6729     1.4827 C.ar    
 106 C106          -1.4806   -17.0494     1.0614 C.ar    
 107 C107          -2.8321   -17.1221     1.3178 C.ar    
 108 C108          -3.5517   -15.9828     1.6520 C.ar    
 109 C109          -2.9280   -14.7708     1.7462 C.ar    
 110 C110           0.4834   -39.4078    14.6702 C.3     
 111 C111           0.0257   -40.7735    14.1541 C.3     
 112 C112          -1.3682   -40.6572    13.5934 C.2     
 113 N113           0.9385   -41.2293    13.1028 N.am    
 114 O114          -1.5785   -40.9283    12.4301 O.2     
 115 O115           0.3688   -38.4406    13.6245 O.3     
 116 C116          -7.2904   -38.3129    16.0801 C.3     
 117 C117          -6.5837   -37.5936    14.9294 C.3     
 118 C118          -5.7982   -38.5925    14.1195 C.2     
 119 N119          -7.5830   -36.9442    14.0705 N.3     
 120 O120          -6.2057   -38.9485    13.0396 O.2     
 121 C121          -1.8999   -18.9556     4.3625 C.3     
 122 C122          -2.8134   -18.5119     5.5069 C.3     
 123 C123          -3.2779   -17.0997     5.2603 C.2     
 124 N124          -3.9745   -19.4024     5.5782 N.am    
 125 O125          -4.4622   -16.8605     5.1544 O.2     
 126 C126          -1.3378   -20.3199     4.6685 C.2     
 127 C127          -0.1538   -20.5853     5.2427 C.2     
 128 N128           0.0149   -21.9381     5.3600 N.pl3   
 129 C129          -1.0843   -22.5927     4.8513 C.ar    
 130 C130          -1.9825   -21.6079     4.4016 C.ar    
 131 C131          -1.4254   -23.9355     4.7237 C.ar    
 132 C132          -2.6307   -24.2842     4.1554 C.ar    
 133 C133          -3.5110   -23.3086     3.7075 C.ar    
 134 C134          -3.2025   -21.9837     3.8358 C.ar    
 135 C135          -3.1874   -14.0703     6.2509 C.3     
 136 C136          -2.8287   -14.7294     4.9175 C.3     
 137 C137          -1.7264   -13.9473     4.2510 C.2     
 138 N138          -2.3772   -16.1023     5.1573 N.am    
 139 O139          -0.6679   -14.4838     4.0009 O.2     
 140 C140          -4.3884   -14.7894     6.8684 C.3     
 141 C141          -4.7471   -14.1303     8.2018 C.3     
 142 C142          -5.9482   -14.8493     8.8193 C.3     
 143 N143          -6.2926   -14.2165    10.0995 N.3     
 144 O144           2.3394   -42.0840    14.5957 O.2     
 145 C145           2.0737   -41.8778    13.4305 C.2     
 146 C146           3.0126   -42.3466    12.3491 C.3     
 147 H147          -0.2131     1.0669     1.3165 H       
 148 H148          -1.8058     0.8533     0.8262 H       
 149 H149           1.5126    -0.7802    -0.9796 H       
 150 H150           1.6490     0.4689     0.2811 H       
 151 H151           0.9866    -1.2508     1.9887 H       
 152 H152           1.0287    -3.0491    -0.3118 H       
 153 H153           5.6429    -1.4672     0.5105 H       
 154 H154           7.1590     1.0788    -2.1760 H       
 155 H155           7.9930    -1.3540     0.1440 H       
 156 H156           8.6160    -0.2799    -0.9877 H       
 157 H157           3.3566    -0.8974     1.4499 H       
 158 H158           3.2201    -2.1464     0.1892 H       
 159 H159           4.0720     0.7500    -0.2597 H       
 160 H160           3.9356    -0.4990    -1.5204 H       
 161 H161          -2.2131   -40.0350    15.3150 H       
 162 H162          -3.6844   -39.8056    12.8030 H       
 163 H163          -4.4000   -41.8763    14.9264 H       
 164 H164          -5.4632   -41.4004    13.5805 H       
 165 H165          -3.7278   -42.1114    11.9583 H       
 166 H166          -2.6647   -42.5873    13.3042 H       
 167 H167          -4.3646   -44.2227    14.0687 H       
 168 H168          -5.4278   -43.7468    12.7228 H       
 169 H169          -4.1575   -45.8031    12.1693 H       
 170 H170          -3.6924   -44.4578    11.1006 H       
 171 H171          -2.6293   -44.9337    12.4465 H       
 172 H172          -6.6314   -28.8009     6.9639 H       
 173 H173          -7.0373   -28.9408     9.8524 H       
 174 H174         -10.0580   -29.4221     8.8789 H       
 175 H175         -11.4422   -31.2717     8.0268 H       
 176 H176         -11.4681   -31.7816     5.6179 H       
 177 H177         -10.1067   -30.4444     4.0617 H       
 178 H178          -8.7189   -28.5978     4.9144 H       
 179 H179          -8.9193   -27.3427     8.3597 H       
 180 H180          -8.3616   -26.9977     6.7049 H       
 181 H181          -3.4741   -25.7090     6.4779 H       
 182 H182          -2.9694   -24.5439     7.7252 H       
 183 H183          -5.2166   -24.8121     8.8163 H       
 184 H184          -6.3226   -26.1681     6.4784 H       
 185 H185          -3.9053   -27.3918     8.2929 H       
 186 H186          -1.1004   -26.1883     8.2569 H       
 187 H187          -1.5137   -27.8425     8.7680 H       
 188 H188          -1.7467   -27.3502     7.0734 H       
 189 H189          -4.2908   -25.7705    10.1291 H       
 190 H190          -2.9994   -26.9200    10.5524 H       
 191 H191          -2.5861   -25.2658    10.0413 H       
 192 H192          -6.0069   -20.5088     8.0280 H       
 193 H193          -6.4528   -19.8130     6.4516 H       
 194 H194          -5.3728   -21.7847     5.3301 H       
 195 H195          -4.0441   -22.6106     7.7958 H       
 196 H196          -7.7562   -21.8542     5.9192 H       
 197 H197          -7.3102   -22.5501     7.4956 H       
 198 H198          -9.9944   -22.3804     7.3249 H       
 199 H199         -10.6065   -21.0203     8.0984 H       
 200 H200          -5.4723   -31.9745     9.9484 H       
 201 H201          -5.9646   -30.5609    10.9116 H       
 202 H202          -8.3650   -31.1895    10.5181 H       
 203 H203          -7.6489   -33.0795     8.4104 H       
 204 H204          -6.0656   -33.7936    13.9597 H       
 205 H205          -2.2462   -33.1377    14.9492 H       
 206 H206          -5.1322   -34.7958    15.9077 H       
 207 H207          -3.5262   -34.5115    16.3113 H       
 208 H208          -7.1708   -32.0519    12.4834 H       
 209 H209          -6.6785   -33.4655    11.5202 H       
 210 H210          -4.7881   -31.5075    12.9021 H       
 211 H211          -4.2959   -32.9211    11.9390 H       
 212 H212         -10.1811   -38.0249    12.2513 H       
 213 H213          -8.9494   -38.4564    14.2443 H       
 214 H214          -9.5401   -36.8621    15.9972 H       
 215 H215         -10.8345   -38.0478    17.7240 H       
 216 H216         -13.1184   -38.8261    17.2333 H       
 217 H217         -14.1066   -38.4223    15.0143 H       
 218 H218         -12.8105   -37.2407    13.2860 H       
 219 H219          -9.6163   -35.5562    13.9530 H       
 220 H220         -10.9818   -35.7129    12.8219 H       
 221 H221         -10.7288   -34.5720     8.6583 H       
 222 H222          -9.3076   -34.3033     7.6209 H       
 223 H223          -7.9298   -35.6171     9.2732 H       
 224 H224         -10.4988   -35.9284    10.6248 H       
 225 H225         -10.9261   -37.3620     6.3265 H       
 226 H226          -1.5795    -5.1947     0.1936 H       
 227 H227          -0.2636    -4.7410    -0.9157 H       
 228 H228           1.3922    -5.4626     0.8306 H       
 229 H229          -0.6626    -5.5771     2.9023 H       
 230 H230           0.5941    -7.0667    -0.8494 H       
 231 H231          -0.7218    -7.5204     0.2600 H       
 232 H232          -2.0124    -8.3994    -3.0584 H       
 233 H233           0.2077    -8.5636     5.5126 H       
 234 H234           1.6001    -8.0146     4.5493 H       
 235 H235          -1.3012    -7.8603     3.6203 H       
 236 H236           0.5535    -9.8165     2.4772 H       
 237 H237           0.5402    -5.7376     4.4125 H       
 238 H238          -1.3123    -5.2734     6.0526 H       
 239 H239          -1.7978    -6.3694     4.7368 H       
 240 H240          -1.4328    -7.0240     6.3512 H       
 241 H241           2.2409    -6.2608     6.1395 H       
 242 H242           1.0272    -5.1181     6.7636 H       
 243 H243           0.9566    -6.8343     7.2304 H       
 244 H244          -1.8956   -11.8683     1.4042 H       
 245 H245          -0.1617   -11.4851     1.2828 H       
 246 H246           0.1194   -12.2248     3.6673 H       
 247 H247          -2.7635   -12.2224     4.1329 H       
 248 H248           1.5095   -13.5182     1.0580 H       
 249 H249           1.2067   -16.0216     0.6989 H       
 250 H250          -0.9297   -17.9413     0.8019 H       
 251 H251          -3.3371   -18.0749     1.2579 H       
 252 H252          -4.6108   -16.0570     1.8497 H       
 253 H253          -3.4938   -13.8891     2.0087 H       
 254 H254          -0.1418   -39.1091    15.5116 H       
 255 H255           1.5223   -39.4714    14.9941 H       
 256 H256           0.0287   -41.4915    14.9743 H       
 257 H257           0.7259   -41.0643    12.1709 H       
 258 H258           0.6426   -37.5495    13.8813 H       
 259 H259          -7.9672   -39.0661    15.6767 H       
 260 H260          -6.5489   -38.7947    16.7174 H       
 261 H261          -7.8586   -37.5903    16.6660 H       
 262 H262          -5.9069   -36.8403    15.3328 H       
 263 H263          -7.1386   -36.4088    13.3398 H       
 264 H264          -2.4726   -18.9980     3.4361 H       
 265 H265          -1.0830   -18.2424     4.2523 H       
 266 H266          -2.2644   -18.5548     6.4475 H       
 267 H267          -4.8008   -19.1586     5.1325 H       
 268 H268           0.5601   -19.8413     5.5639 H       
 269 H269           0.7932   -22.3714     5.7441 H       
 270 H270          -0.7472   -24.7019     5.0688 H       
 271 H271          -2.8935   -25.3272     4.0570 H       
 272 H272          -4.4520   -23.5990     3.2639 H       
 273 H273          -3.8931   -21.2302     3.4870 H       
 274 H274          -2.3366   -14.1359     6.9291 H       
 275 H275          -3.4381   -13.0230     6.0826 H       
 276 H276          -3.7064   -14.7432     4.2713 H       
 277 H277          -1.4300   -16.2936     5.2419 H       
 278 H278          -5.2392   -14.7239     6.1902 H       
 279 H279          -4.1377   -15.8367     7.0367 H       
 280 H280          -3.8964   -14.1958     8.8800 H       
 281 H281          -4.9978   -13.0829     8.0335 H       
 282 H282          -6.7990   -14.7838     8.1411 H       
 283 H283          -5.6975   -15.8967     8.9875 H       
 284 H284          -6.4665   -13.2298     9.9799 H       
 285 H285          -7.0836   -14.6738    10.5276 H       
 286 H286           3.7385   -41.5627    12.1331 H       
 287 H287           3.5346   -43.2428    12.6845 H       
 288 H288           2.4439   -42.5736    11.4473 H       
@<TRIPOS>BOND
   1    1    4 am
   2    1  147 1
   3    1  148 1
   4    2   11 1
   5    2    3 1
   6    2  149 1
   7    2  150 1
   8    3    5 1
   9    3    4 1
  10    3  151 1
  11    4    6 2
  12    5   81 am
  13    5  152 1
  14    7   12 1
  15    7    8 1
  16    7  153 1
  17    8    9 2
  18    8   10 1
  19    9  154 1
  20   10  155 1
  21   10  156 1
  22   11   12 1
  23   11  157 1
  24   11  158 1
  25   12  159 1
  26   12  160 1
  27   13   20 2
  28   13   15 1
  29   13  118 1
  30   14   15 1
  31   14  112 am
  32   14  161 1
  33   15   16 1
  34   15  162 1
  35   16   17 1
  36   16  163 1
  37   16  164 1
  38   17   18 1
  39   17  165 1
  40   17  166 1
  41   18   19 1
  42   18  167 1
  43   18  168 1
  44   19  169 1
  45   19  170 1
  46   19  171 1
  47   21   22 1
  48   21   23 1
  49   21   31 1
  50   21  172 1
  51   22   24 2
  52   22   35 am
  53   23   51 am
  54   23  173 1
  55   25   26 ar
  56   25   30 ar
  57   25  174 1
  58   26   27 ar
  59   26  175 1
  60   27   28 ar
  61   27  176 1
  62   28   29 ar
  63   28  177 1
  64   29   30 ar
  65   29  178 1
  66   30   31 1
  67   31  179 1
  68   31  180 1
  69   32   37 1
  70   32   33 1
  71   32  181 1
  72   32  182 1
  73   33   35 1
  74   33   34 1
  75   33  183 1
  76   34   36 2
  77   34   43 am
  78   35  184 1
  79   37   38 1
  80   37   39 1
  81   37  185 1
  82   38  186 1
  83   38  187 1
  84   38  188 1
  85   39  189 1
  86   39  190 1
  87   39  191 1
  88   40   45 1
  89   40   41 1
  90   40  192 1
  91   40  193 1
  92   41   43 1
  93   41   42 1
  94   41  194 1
  95   42   44 2
  96   42  124 am
  97   43  195 1
  98   45   46 1
  99   45  196 1
 100   45  197 1
 101   46   47 2
 102   46   48 am
 103   48  198 1
 104   48  199 1
 105   49   58 1
 106   49   50 1
 107   49  200 1
 108   49  201 1
 109   50   52 1
 110   50   51 1
 111   50  202 1
 112   51   53 2
 113   52   73 am
 114   52  203 1
 115   54   59 1
 116   54   55 1
 117   54  204 1
 118   55   56 2
 119   55   57 1
 120   56  205 1
 121   57  206 1
 122   57  207 1
 123   58   59 1
 124   58  208 1
 125   58  209 1
 126   59  210 1
 127   59  211 1
 128   60   61 1
 129   60   62 1
 130   60   70 1
 131   60  212 1
 132   61   63 2
 133   61   74 am
 134   62  119 1
 135   62  213 1
 136   64   65 ar
 137   64   69 ar
 138   64  214 1
 139   65   66 ar
 140   65  215 1
 141   66   67 ar
 142   66  216 1
 143   67   68 ar
 144   67  217 1
 145   68   69 ar
 146   68  218 1
 147   69   70 1
 148   70  219 1
 149   70  220 1
 150   71   76 1
 151   71   72 1
 152   71  221 1
 153   71  222 1
 154   72   73 1
 155   72   74 1
 156   72  223 1
 157   73   75 2
 158   74  224 1
 159   76   77 2
 160   76   78 1
 161   78  225 1
 162   79   84 1
 163   79   80 1
 164   79  226 1
 165   79  227 1
 166   80   82 1
 167   80   81 1
 168   80  228 1
 169   81   83 2
 170   82   90 am
 171   82  229 1
 172   84   85 1
 173   84  230 1
 174   84  231 1
 175   85   86 2
 176   85   87 1
 177   87  232 1
 178   88   93 1
 179   88   89 1
 180   88  233 1
 181   88  234 1
 182   89   91 1
 183   89   90 1
 184   89  235 1
 185   90   92 2
 186   91   98 am
 187   91  236 1
 188   93   94 1
 189   93   95 1
 190   93  237 1
 191   94  238 1
 192   94  239 1
 193   94  240 1
 194   95  241 1
 195   95  242 1
 196   95  243 1
 197   96  101 1
 198   96   97 1
 199   96  244 1
 200   96  245 1
 201   97   98 1
 202   97   99 1
 203   97  246 1
 204   98  100 2
 205   99  137 am
 206   99  247 1
 207  101  102 2
 208  101  105 1
 209  102  103 1
 210  102  248 1
 211  103  104 1
 212  103  249 1
 213  104  105 ar
 214  104  106 ar
 215  105  109 ar
 216  106  107 ar
 217  106  250 1
 218  107  108 ar
 219  107  251 1
 220  108  109 ar
 221  108  252 1
 222  109  253 1
 223  110  115 1
 224  110  111 1
 225  110  254 1
 226  110  255 1
 227  111  113 1
 228  111  112 1
 229  111  256 1
 230  112  114 2
 231  113  145 am
 232  113  257 1
 233  115  258 1
 234  116  117 1
 235  116  259 1
 236  116  260 1
 237  116  261 1
 238  117  118 1
 239  117  119 1
 240  117  262 1
 241  118  120 2
 242  119  263 1
 243  121  126 1
 244  121  122 1
 245  121  264 1
 246  121  265 1
 247  122  123 1
 248  122  124 1
 249  122  266 1
 250  123  125 2
 251  123  138 am
 252  124  267 1
 253  126  127 2
 254  126  130 1
 255  127  128 1
 256  127  268 1
 257  128  129 1
 258  128  269 1
 259  129  130 ar
 260  129  131 ar
 261  130  134 ar
 262  131  132 ar
 263  131  270 1
 264  132  133 ar
 265  132  271 1
 266  133  134 ar
 267  133  272 1
 268  134  273 1
 269  135  140 1
 270  135  136 1
 271  135  274 1
 272  135  275 1
 273  136  138 1
 274  136  137 1
 275  136  276 1
 276  137  139 2
 277  138  277 1
 278  140  141 1
 279  140  278 1
 280  140  279 1
 281  141  142 1
 282  141  280 1
 283  141  281 1
 284  142  143 1
 285  142  282 1
 286  142  283 1
 287  143  284 1
 288  143  285 1
 289  144  145 2
 290  145  146 1
 291  146  286 1
 292  146  287 1
 293  146  288 1

#	End of record

