#	Name: ASD01810771
#	Creating user name:	WinNT
#	Creation time:	15. 06. 2019 19:25

#	Modifying user name:	WinNT
#	Modification time:	15. 06. 2019 19:25

#	Program:	/corina/corina34_cracker 3.40 0067  02.08.2006

@<TRIPOS>MOLECULE
ASD01810771
  22   22    0    0    0
SMALL
NO_CHARGES


@<TRIPOS>ATOM
   1 C1            -0.0187     1.5267     0.0104 C.3     
   2 C2             0.0021    -0.0041     0.0020 C.3     
   3 C3             0.7722    -0.4897    -1.2298 C.3     
   4 C4             2.1813     0.1106    -1.2068 C.3     
   5 C5             2.0763     1.6370    -1.1517 C.3     
   6 O6             1.3225     2.0200     0.0003 O.3     
   7 C7             0.8646    -1.9937    -1.2060 C.2     
   8 O8             0.3643    -2.6176    -0.2942 O.2     
   9 N9             1.5033    -2.6454    -2.1979 N.am    
  10 N10            1.5870    -4.0087    -2.1762 N.3     
  11 H11           -0.5456     1.8879    -0.8727 H       
  12 H12           -0.5286     1.8784     0.9073 H       
  13 H13            0.4932    -0.3667     0.9050 H       
  14 H14           -1.0196    -0.3820    -0.0348 H       
  15 H15            0.2540    -0.1692    -2.1336 H       
  16 H16            2.7164    -0.2496    -0.3283 H       
  17 H17            2.7180    -0.1853    -2.1082 H       
  18 H18            3.0756     2.0681    -1.0920 H       
  19 H19            1.5768     1.9997    -2.0501 H       
  20 H20            1.9034    -2.1464    -2.9271 H       
  21 H21            2.0912    -4.3528    -2.9796 H       
  22 H22            2.0095    -4.3315    -1.3187 H       
@<TRIPOS>BOND
   1    1    2 1
   2    1    6 1
   3    1   11 1
   4    1   12 1
   5    2    3 1
   6    2   13 1
   7    2   14 1
   8    3    4 1
   9    3    7 1
  10    3   15 1
  11    4    5 1
  12    4   16 1
  13    4   17 1
  14    5    6 1
  15    5   18 1
  16    5   19 1
  17    7    8 2
  18    7    9 am
  19    9   10 1
  20    9   20 1
  21   10   21 1
  22   10   22 1

#	End of record

