#	Name: ASD01890487
#	Creating user name:	WinNT
#	Creation time:	15. 06. 2019 19:51

#	Modifying user name:	WinNT
#	Modification time:	15. 06. 2019 19:51

#	Program:	/corina/corina34_cracker 3.40 0067  02.08.2006

@<TRIPOS>MOLECULE
ASD01890487
  46   49    0    0    0
SMALL
NO_CHARGES


@<TRIPOS>ATOM
   1 C1            -0.0177     1.4577     0.0101 C.2     
   2 C2             0.0021    -0.0041     0.0020 C.2     
   3 C3             1.1801    -0.6630    -0.0128 C.2     
   4 C4             1.2006    -2.1699    -0.0211 C.3     
   5 C5             1.3195    -2.6704    -1.4620 C.3     
   6 O6             1.0272     2.0801     0.0034 O.2     
   7 O7            -1.1952     2.1163     0.0192 O.3     
   8 N8             2.2327    -4.8072    -0.7461 N.ar    
   9 C9             1.3399    -4.1772    -1.4703 C.ar    
  10 C10            0.4090    -4.8638    -2.2472 C.ar    
  11 C11            0.4125    -6.2294    -2.2670 C.ar    
  12 C12            1.3730    -6.9025    -1.4884 C.ar    
  13 C13            1.4375    -8.3046    -1.4581 C.ar    
  14 C14            2.3811    -8.9184    -0.6918 C.ar    
  15 C15            3.2840    -8.1733     0.0635 C.ar    
  16 C16            3.2498    -6.8127     0.0575 C.ar    
  17 C17            2.2906    -6.1425    -0.7212 C.ar    
  18 C18            2.7860     0.8742     1.0724 C.ar    
  19 C19            2.4437     0.0896    -0.0208 C.ar    
  20 C20            3.2988     0.0093    -1.1373 C.ar    
  21 C21            4.4697     0.6939    -1.1667 C.ar    
  22 C22            4.8444     1.4972    -0.0736 C.ar    
  23 C23            6.0525     2.2135    -0.0826 C.ar    
  24 C24            6.3896     2.9826     0.9893 C.ar    
  25 C25            5.5532     3.0720     2.1005 C.ar    
  26 C26            4.3750     2.3924     2.1462 C.ar    
  27 C27            3.9927     1.5877     1.0572 C.ar    
  28 H28           -0.9258    -0.5567     0.0079 H       
  29 H29            2.0528    -2.5249     0.5584 H       
  30 H30            0.2784    -2.5482     0.4201 H       
  31 H31            0.4672    -2.3154    -2.0414 H       
  32 H32            2.2416    -2.2921    -1.9031 H       
  33 H33           -1.1072     3.0792     0.0240 H       
  34 H34           -0.3148    -4.3166    -2.8328 H       
  35 H35           -0.3019    -6.7776    -2.8632 H       
  36 H36            0.7425    -8.8930    -2.0388 H       
  37 H37            2.4300    -9.9971    -0.6691 H       
  38 H38            4.0227    -8.6836     0.6638 H       
  39 H39            3.9569    -6.2501     0.6492 H       
  40 H40            2.1265     0.9375     1.9253 H       
  41 H41            3.0190    -0.6051    -1.9802 H       
  42 H42            5.1150     0.6221    -2.0297 H       
  43 H43            6.7116     2.1543    -0.9361 H       
  44 H44            7.3196     3.5315     0.9784 H       
  45 H45            5.8444     3.6893     2.9375 H       
  46 H46            3.7365     2.4708     3.0137 H       
@<TRIPOS>BOND
   1    1    2 1
   2    1    6 2
   3    1    7 1
   4    2    3 2
   5    2   28 1
   6    3    4 1
   7    3   19 1
   8    4    5 1
   9    4   29 1
  10    4   30 1
  11    5    9 1
  12    5   31 1
  13    5   32 1
  14    7   33 1
  15    8    9 ar
  16    8   17 ar
  17    9   10 ar
  18   10   11 ar
  19   10   34 1
  20   11   12 ar
  21   11   35 1
  22   12   13 ar
  23   12   17 ar
  24   13   14 ar
  25   13   36 1
  26   14   15 ar
  27   14   37 1
  28   15   16 ar
  29   15   38 1
  30   16   17 ar
  31   16   39 1
  32   18   19 ar
  33   18   27 ar
  34   18   40 1
  35   19   20 ar
  36   20   21 ar
  37   20   41 1
  38   21   22 ar
  39   21   42 1
  40   22   23 ar
  41   22   27 ar
  42   23   24 ar
  43   23   43 1
  44   24   25 ar
  45   24   44 1
  46   25   26 ar
  47   25   45 1
  48   26   27 ar
  49   26   46 1

#	End of record

