#	Name: ASD05430004
#	Creating user name:	WinNT
#	Creation time:	15. 06. 2019 20:59

#	Modifying user name:	WinNT
#	Modification time:	15. 06. 2019 20:59

#	Program:	/corina/corina34_cracker 3.40 0067  02.08.2006

@<TRIPOS>MOLECULE
ASD05430004
  63   68    0    0    0
SMALL
NO_CHARGES


@<TRIPOS>ATOM
   1 C1            -0.0228     1.4147     0.1759 C.ar    
   2 C2             0.0173     0.1520     0.7662 C.ar    
   3 C3            -1.1538    -0.4480     1.2108 C.ar    
   4 C4            -2.3608     0.2016     1.0707 C.ar    
   5 C5            -2.4087     1.4685     0.4800 C.ar    
   6 C6            -1.2291     2.0749     0.0377 C.ar    
   7 C7            -4.8139    -0.0464    -0.0990 C.3     
   8 C8            -4.8261     1.4557     0.1400 C.2     
   9 C9            -3.6974     2.1639     0.3290 C.2     
  10 C10           -5.8260    -0.3659    -1.1999 C.3     
  11 C11           -7.2596     0.0391    -0.8550 C.3     
  12 N12           -7.2686     1.4287    -0.4041 N.pl3   
  13 C13           -6.1660     2.0841     0.1495 C.2     
  14 C14           -8.3545     2.4100    -0.4399 C.3     
  15 O15           -7.9167     3.4199     0.4934 O.3     
  16 N16           -6.5170     3.2245     0.6426 N.2     
  17 N17            1.2422    -0.5135     0.9108 N.pl3   
  18 C18            1.7264    -1.0895     2.0567 C.2     
  19 C19            2.9283    -1.6146     1.7515 C.2     
  20 N20            3.1761    -1.3688     0.4565 N.2     
  21 C21            2.1712    -0.7146    -0.0595 C.2     
  22 C22           -8.5010     2.9911    -1.8226 C.ar    
  23 C23           -8.1184     2.2521    -2.9265 C.ar    
  24 C24           -9.0233     4.2606    -1.9865 C.ar    
  25 C25           -9.1590     4.7942    -3.2540 C.ar    
  26 C26           -8.7713     4.0570    -4.3601 C.ar    
  27 C27           -8.2528     2.7838    -4.1950 C.ar    
  28 F28           -8.9035     4.5776    -5.5997 F       
  29 C29           -9.6685     1.7787     0.0244 C.3     
  30 O30            1.1254     1.9988    -0.2586 O.3     
  31 C31            3.8382    -2.3503     2.7012 C.3     
  32 C32            1.0101     3.2930    -0.8534 C.3     
  33 C33           -5.3791     0.0980    -2.5933 C.3     
  34 N34           -5.8913    -1.2033    -3.0789 N.3     
  35 C35           -5.7102    -1.7999    -1.7363 C.3     
  36 H36           -1.1183    -1.4262     1.6671 H       
  37 H37           -3.2700    -0.2676     1.4167 H       
  38 H38           -1.2616     3.0532    -0.4187 H       
  39 H39           -3.8183    -0.3603    -0.4128 H       
  40 H40           -5.0918    -0.5665     0.8177 H       
  41 H41           -3.7371     3.2424     0.3700 H       
  42 H42           -7.8893    -0.0612    -1.7390 H       
  43 H43           -7.6390    -0.6041    -0.0611 H       
  44 H44            1.2379    -1.1165     3.0195 H       
  45 H45            2.0943    -0.3832    -1.0845 H       
  46 H46           -7.7140     1.2590    -2.7975 H       
  47 H47           -9.3257     4.8354    -1.1236 H       
  48 H48           -9.5677     5.7857    -3.3819 H       
  49 H49           -7.9497     2.2080    -5.0570 H       
  50 H50           -9.5559     1.4148     1.0456 H       
  51 H51          -10.4622     2.5251    -0.0099 H       
  52 H52           -9.9237     0.9466    -0.6318 H       
  53 H53            3.6054    -3.4149     2.6759 H       
  54 H54            4.8752    -2.1979     2.4023 H       
  55 H55            3.6919    -1.9703     3.7123 H       
  56 H56            1.9971     3.6434    -1.1553 H       
  57 H57            0.3621     3.2346    -1.7279 H       
  58 H58            0.5831     3.9883    -0.1306 H       
  59 H59           -5.9346     0.9570    -2.9696 H       
  60 H60           -4.2996     0.2106    -2.6938 H       
  61 H61           -6.8696    -1.1405    -3.3177 H       
  62 H62           -4.7286    -2.2483    -1.5834 H       
  63 H63           -6.5292    -2.4509    -1.4305 H       
@<TRIPOS>BOND
   1    1    2 ar
   2    1   30 1
   3    1    6 ar
   4    2    3 ar
   5    2   17 1
   6    3    4 ar
   7    3   36 1
   8    4    5 ar
   9    4   37 1
  10    5    6 ar
  11    5    9 1
  12    6   38 1
  13    7    8 1
  14    7   10 1
  15    7   39 1
  16    7   40 1
  17    8    9 2
  18    8   13 1
  19    9   41 1
  20   10   11 1
  21   10   33 1
  22   10   35 1
  23   11   12 1
  24   11   42 1
  25   11   43 1
  26   12   13 1
  27   12   14 1
  28   13   16 2
  29   14   15 1
  30   14   22 1
  31   14   29 1
  32   15   16 1
  33   17   18 1
  34   17   21 1
  35   18   19 2
  36   18   44 1
  37   19   20 1
  38   19   31 1
  39   20   21 2
  40   21   45 1
  41   22   23 ar
  42   22   24 ar
  43   23   27 ar
  44   23   46 1
  45   24   25 ar
  46   24   47 1
  47   25   26 ar
  48   25   48 1
  49   26   27 ar
  50   26   28 1
  51   27   49 1
  52   29   50 1
  53   29   51 1
  54   29   52 1
  55   30   32 1
  56   31   53 1
  57   31   54 1
  58   31   55 1
  59   32   56 1
  60   32   57 1
  61   32   58 1
  62   33   34 1
  63   33   59 1
  64   33   60 1
  65   34   35 1
  66   34   61 1
  67   35   62 1
  68   35   63 1

#	End of record

