#	Name: ASD03540451
#	Creating user name:	WinNT
#	Creation time:	15. 06. 2019 20:43

#	Modifying user name:	WinNT
#	Modification time:	15. 06. 2019 20:43

#	Program:	/corina/corina34_cracker 3.40 0067  02.08.2006

@<TRIPOS>MOLECULE
ASD03540451
  58   61    0    0    0
SMALL
NO_CHARGES


@<TRIPOS>ATOM
   1 C1             6.3434    -5.1576    -2.2578 C.2     
   2 C2             5.7229    -3.9095    -1.7683 C.ar    
   3 C3             4.4690    -3.9434    -1.1545 C.ar    
   4 C4             3.8957    -2.7744    -0.6994 C.ar    
   5 C5             4.5600    -1.5698    -0.8502 C.ar    
   6 C6             5.8023    -1.5290    -1.4577 C.ar    
   7 C7             6.3901    -2.6916    -1.9120 C.ar    
   8 O8             5.7627    -6.2165    -2.1268 O.2     
   9 O9             7.5506    -5.1208    -2.8543 O.3     
  10 C10            2.5427    -2.8089    -0.0368 C.3     
  11 N11            1.2188    -6.0245     1.1793 N.am    
  12 C12            1.4019    -4.8797     0.4998 C.2     
  13 N13            2.4160    -4.0374     0.7513 N.am    
  14 C14            3.3224    -4.3016     1.7174 C.2     
  15 C15            3.1705    -5.5452     2.4950 C.ar    
  16 C16            4.0613    -5.8879     3.5043 C.ar    
  17 C17            3.8699    -7.0766     4.2075 C.ar    
  18 C18            2.7898    -7.9111     3.8947 C.ar    
  19 C19            1.9138    -7.5737     2.9019 C.ar    
  20 C20            2.0885    -6.3934     2.1906 C.ar    
  21 O21            4.2393    -3.5347     1.9396 O.2     
  22 O22            0.6142    -4.5944    -0.3811 O.2     
  23 C23            2.3941    -1.5954     0.8830 C.3     
  24 C24            4.8076    -7.4562     5.2830 C.2     
  25 N25            4.6234    -8.6050     5.9632 N.am    
  26 O26            5.7459    -6.7324     5.5549 O.2     
  27 C27            5.5539    -8.9816     7.0304 C.3     
  28 C28            5.1277   -10.2983     7.6268 C.ar    
  29 C29            5.6120   -11.4824     7.1025 C.ar    
  30 C30            5.2229   -12.6907     7.6475 C.ar    
  31 C31            4.3455   -12.7153     8.7218 C.ar    
  32 C32            3.8610   -11.5257     9.2461 C.ar    
  33 C33            4.2576   -10.3199     8.7011 C.ar    
  34 O34            3.9608   -13.9027     9.2595 O.3     
  35 C35            3.0554   -13.8519    10.3638 C.3     
  36 H36            3.9492    -4.8827    -1.0368 H       
  37 H37            4.1065    -0.6573    -0.4924 H       
  38 H38            6.3150    -0.5854    -1.5729 H       
  39 H39            7.3620    -2.6590    -2.3817 H       
  40 H40            7.9161    -5.9629    -3.1581 H       
  41 H41            1.7640    -2.7845    -0.7992 H       
  42 H42            0.4668    -6.5969     0.9608 H       
  43 H43            4.8930    -5.2410     3.7414 H       
  44 H44            2.6479    -8.8305     4.4434 H       
  45 H45            1.0848    -8.2257     2.6696 H       
  46 H46            3.1727    -1.6198     1.6454 H       
  47 H47            2.4883    -0.6813     0.2966 H       
  48 H48            1.4154    -1.6203     1.3622 H       
  49 H49            3.8749    -9.1824     5.7463 H       
  50 H50            6.5588    -9.0772     6.6192 H       
  51 H51            5.5494    -8.2138     7.8040 H       
  52 H52            6.2948   -11.4628     6.2659 H       
  53 H53            5.6012   -13.6154     7.2374 H       
  54 H54            3.1778   -11.5423    10.0824 H       
  55 H55            3.8844    -9.3934     9.1119 H       
  56 H56            3.5110   -13.2939    11.1818 H       
  57 H57            2.1340   -13.3577    10.0557 H       
  58 H58            2.8305   -14.8653    10.6962 H       
@<TRIPOS>BOND
   1    1    2 1
   2    1    8 2
   3    1    9 1
   4    2    3 ar
   5    2    7 ar
   6    3    4 ar
   7    3   36 1
   8    4    5 ar
   9    4   10 1
  10    5    6 ar
  11    5   37 1
  12    6    7 ar
  13    6   38 1
  14    7   39 1
  15    9   40 1
  16   10   13 1
  17   10   23 1
  18   10   41 1
  19   11   12 am
  20   11   20 1
  21   11   42 1
  22   12   13 am
  23   12   22 2
  24   13   14 am
  25   14   15 1
  26   14   21 2
  27   15   16 ar
  28   15   20 ar
  29   16   17 ar
  30   16   43 1
  31   17   18 ar
  32   17   24 1
  33   18   19 ar
  34   18   44 1
  35   19   20 ar
  36   19   45 1
  37   23   46 1
  38   23   47 1
  39   23   48 1
  40   24   25 am
  41   24   26 2
  42   25   27 1
  43   25   49 1
  44   27   28 1
  45   27   50 1
  46   27   51 1
  47   28   29 ar
  48   28   33 ar
  49   29   30 ar
  50   29   52 1
  51   30   31 ar
  52   30   53 1
  53   31   32 ar
  54   31   34 1
  55   32   33 ar
  56   32   54 1
  57   33   55 1
  58   34   35 1
  59   35   56 1
  60   35   57 1
  61   35   58 1

#	End of record

