#	Name: ASD01948189
#	Creating user name:	WinNT
#	Creation time:	15. 06. 2019 20:13

#	Modifying user name:	WinNT
#	Modification time:	15. 06. 2019 20:13

#	Program:	/corina/corina34_cracker 3.40 0067  02.08.2006

@<TRIPOS>MOLECULE
ASD01948189
  29   31    0    0    0
SMALL
NO_CHARGES


@<TRIPOS>ATOM
   1 C1            -0.4577     0.6085    -1.1425 C.ar    
   2 C2             0.0030    -0.0029     0.0339 C.ar    
   3 C3            -0.7555     0.0617     1.2056 C.ar    
   4 C4            -1.9627     0.7303     1.2037 C.ar    
   5 C5            -2.4252     1.3390     0.0382 C.ar    
   6 C6            -1.6804     1.2763    -1.1328 C.ar    
   7 F7            -2.6986     0.7948     2.3348 F       
   8 O8             0.4682     0.3861    -2.0991 O.3     
   9 C9             1.4969    -0.3308    -1.6123 C.2     
  10 C10            1.2928    -0.6101    -0.3181 C.2     
  11 F11           -0.3090    -0.5285     2.3359 F       
  12 N12           -2.1545     1.8924    -2.3016 N.pl3   
  13 N13           -3.6539     2.0154     0.0464 N.pl3   
  14 C14           -4.8177     1.3559    -0.3607 C.ar    
  15 C15           -6.0525     1.9877    -0.2492 C.ar    
  16 C16           -4.7433     0.0715    -0.8823 C.ar    
  17 C17           -5.8950    -0.5776    -1.2843 C.ar    
  18 C18           -7.1217     0.0502    -1.1682 C.ar    
  19 C19           -7.2005     1.3324    -0.6533 C.ar    
  20 I20           -8.8641    -0.9391    -1.7800 I       
  21 F21           -6.1292     3.2393     0.2535 F       
  22 H22            2.3619    -0.6368    -2.1820 H       
  23 H23            1.9458    -1.1695     0.3353 H       
  24 H24           -3.0029     2.3626    -2.2922 H       
  25 H25           -1.6337     1.8481    -3.1187 H       
  26 H26           -3.6962     2.9406     0.3345 H       
  27 H27           -3.7860    -0.4198    -0.9743 H       
  28 H28           -5.8370    -1.5768    -1.6901 H       
  29 H29           -8.1600     1.8200    -0.5639 H       
@<TRIPOS>BOND
   1    1    2 ar
   2    1    8 1
   3    1    6 ar
   4    2    3 ar
   5    2   10 1
   6    3    4 ar
   7    3   11 1
   8    4    5 ar
   9    4    7 1
  10    5    6 ar
  11    5   13 1
  12    6   12 1
  13    8    9 1
  14    9   10 2
  15    9   22 1
  16   10   23 1
  17   12   24 1
  18   12   25 1
  19   13   14 1
  20   13   26 1
  21   14   15 ar
  22   14   16 ar
  23   15   21 1
  24   15   19 ar
  25   16   17 ar
  26   16   27 1
  27   17   18 ar
  28   17   28 1
  29   18   19 ar
  30   18   20 1
  31   19   29 1

#	End of record

