#	Name: ASD01948326
#	Creating user name:	WinNT
#	Creation time:	15. 06. 2019 20:14

#	Modifying user name:	WinNT
#	Modification time:	15. 06. 2019 20:14

#	Program:	/corina/corina34_cracker 3.40 0067  02.08.2006

@<TRIPOS>MOLECULE
ASD01948326
  45   47    0    0    0
SMALL
NO_CHARGES


@<TRIPOS>ATOM
   1 C1            -0.3636     1.7168     0.4623 C.2     
   2 N2            -0.7003     0.3973     0.5477 N.am    
   3 C3             0.2431    -0.5622     0.5505 C.2     
   4 C4             1.9527     1.1156     0.3771 C.2     
   5 C5             0.9328     2.0970     0.3774 C.2     
   6 C6             2.9048     2.3958    -1.9137 C.ar    
   7 C7             3.7466     2.1870    -0.8295 C.ar    
   8 N8             3.2865     1.4858     0.2905 N.pl3   
   9 C9             3.3616     3.0880    -3.0184 C.ar    
  10 C10            4.6569     3.5736    -3.0463 C.ar    
  11 C11            5.4994     3.3679    -1.9683 C.ar    
  12 C12            5.0484     2.6758    -0.8593 C.ar    
  13 N13            1.2643     3.4590     0.2906 N.am    
  14 S14            0.0667     4.5971     0.1788 S.o2    
  15 C15           -0.7923     4.1999    -1.3688 C.3     
  16 O16           -0.0840    -1.7371     0.6284 O.2     
  17 C17           -2.1127     0.0189     0.6383 C.3     
  18 F18            5.8709     2.4748     0.1935 F       
  19 Br19           5.2772     4.5199    -4.5614 Br      
  20 O20           -0.7715     4.3347     1.2959 O.2     
  21 O21            0.7643     5.8294     0.0598 O.2     
  22 C22            1.5976    -0.2200     0.4642 C.2     
  23 C23           -2.6767    -0.1875    -0.7689 C.3     
  24 F24            2.5471    -1.1811     0.4668 F       
  25 C25           -1.9375     5.1698    -1.7041 C.3     
  26 C26           -1.4727     5.0885    -3.1677 C.3     
  27 C27           -0.0794     4.7321    -2.6231 C.3     
  28 H28           -1.1409     2.4666     0.4578 H       
  29 H29            1.8949     2.0135    -1.8952 H       
  30 H30            3.9004     1.2586     1.0063 H       
  31 H31            2.7068     3.2501    -3.8618 H       
  32 H32            6.5101     3.7478    -1.9930 H       
  33 H33            2.1948     3.7329     0.2961 H       
  34 H34           -1.0751     3.1495    -1.4383 H       
  35 H35           -2.2051    -0.9069     1.2062 H       
  36 H36           -2.6694     0.8102     1.1404 H       
  37 H37           -2.5843     0.7383    -1.3368 H       
  38 H38           -2.1200    -0.9788    -1.2710 H       
  39 H39           -3.7275    -0.4690    -0.7015 H       
  40 H40           -2.9291     4.7491    -1.5369 H       
  41 H41           -1.8161     6.1585    -1.2617 H       
  42 H42           -1.9411     4.2811    -3.7305 H       
  43 H43           -1.5058     6.0446    -3.6901 H       
  44 H44            0.5501     5.6012    -2.4319 H       
  45 H45            0.4292     3.9581    -3.1978 H       
@<TRIPOS>BOND
   1    1    2 1
   2    1    5 2
   3    1   28 1
   4    2    3 am
   5    2   17 1
   6    3   22 1
   7    3   16 2
   8    4    5 1
   9    4    8 1
  10    4   22 2
  11    5   13 1
  12    6    7 ar
  13    6    9 ar
  14    6   29 1
  15    7    8 1
  16    7   12 ar
  17    8   30 1
  18    9   10 ar
  19    9   31 1
  20   10   11 ar
  21   10   19 1
  22   11   12 ar
  23   11   32 1
  24   12   18 1
  25   13   14 am
  26   13   33 1
  27   14   15 1
  28   14   20 2
  29   14   21 2
  30   15   25 1
  31   15   27 1
  32   15   34 1
  33   17   23 1
  34   17   35 1
  35   17   36 1
  36   22   24 1
  37   23   37 1
  38   23   38 1
  39   23   39 1
  40   25   26 1
  41   25   40 1
  42   25   41 1
  43   26   27 1
  44   26   42 1
  45   26   43 1
  46   27   44 1
  47   27   45 1

#	End of record

