#	Name: ASD01148917
#	Creating user name:	WinNT
#	Creation time:	15. 06. 2019 19:03

#	Modifying user name:	WinNT
#	Modification time:	15. 06. 2019 19:03

#	Program:	/corina/corina34_cracker 3.40 0067  02.08.2006

@<TRIPOS>MOLECULE
ASD01148917
  38   40    0    0    0
SMALL
NO_CHARGES


@<TRIPOS>ATOM
   1 C1            -0.1108     1.2027    -0.0644 C.ar    
   2 C2            -0.0401    -0.1773    -0.0128 C.ar    
   3 C3             1.1890    -0.8075    -0.0082 C.ar    
   4 C4             2.3541    -0.0539    -0.0560 C.ar    
   5 C5             2.2798     1.3315    -0.1082 C.ar    
   6 C6             1.0478     1.9559    -0.1120 C.ar    
   7 S7            -1.6807     2.0026    -0.0769 S.o2    
   8 O8            -1.4771     3.2767    -0.6724 O.2     
   9 O9            -2.6117     1.0517    -0.5750 O.2     
  10 N10           -2.0994     2.2852     1.5002 N.am    
  11 N11            3.6026    -0.6904    -0.0510 N.pl3   
  12 C12            4.4997    -0.7045    -1.0908 C.2     
  13 C13            5.5866    -1.4247    -0.6954 C.2     
  14 C14            5.3461    -1.8605     0.6184 C.2     
  15 C15            4.1340    -1.3957     0.9907 C.2     
  16 C16            3.4773    -1.6204     2.3283 C.3     
  17 C17            4.3180    -0.0543    -2.4059 C.ar    
  18 C18            5.3413     0.7274    -2.9501 C.ar    
  19 C19            5.1640     1.3315    -4.1800 C.ar    
  20 C20            3.9774     1.1636    -4.8713 C.ar    
  21 C21            2.9615     0.3911    -4.3374 C.ar    
  22 C22            3.1268    -0.2225    -3.1124 C.ar    
  23 F23            6.5000     0.8920    -2.2753 F       
  24 H24           -0.9467    -0.7630     0.0244 H       
  25 H25            1.2436    -1.8854     0.0328 H       
  26 H26            3.1844     1.9204    -0.1454 H       
  27 H27            0.9894     3.0336    -0.1522 H       
  28 H28           -2.6530     3.0492     1.7256 H       
  29 H29           -1.7911     1.6868     2.1986 H       
  30 H30            6.4701    -1.6242    -1.2836 H       
  31 H31            6.0130    -2.4565     1.2238 H       
  32 H32            2.8824    -2.5330     2.2923 H       
  33 H33            4.2434    -1.7162     3.0977 H       
  34 H34            2.8310    -0.7745     2.5625 H       
  35 H35            5.9529     1.9361    -4.6023 H       
  36 H36            3.8434     1.6381    -5.8321 H       
  37 H37            2.0378     0.2648    -4.8826 H       
  38 H38            2.3339    -0.8285    -2.6995 H       
@<TRIPOS>BOND
   1    1    2 ar
   2    1    6 ar
   3    1    7 1
   4    2    3 ar
   5    2   24 1
   6    3    4 ar
   7    3   25 1
   8    4    5 ar
   9    4   11 1
  10    5    6 ar
  11    5   26 1
  12    6   27 1
  13    7    8 2
  14    7    9 2
  15    7   10 am
  16   10   28 1
  17   10   29 1
  18   11   12 1
  19   11   15 1
  20   12   13 2
  21   12   17 1
  22   13   14 1
  23   13   30 1
  24   14   15 2
  25   14   31 1
  26   15   16 1
  27   16   32 1
  28   16   33 1
  29   16   34 1
  30   17   18 ar
  31   17   22 ar
  32   18   19 ar
  33   18   23 1
  34   19   20 ar
  35   19   35 1
  36   20   21 ar
  37   20   36 1
  38   21   22 ar
  39   21   37 1
  40   22   38 1

#	End of record

