#	Name: ASD00990003
#	Creating user name:	WinNT
#	Creation time:	15. 06. 2019 18:54

#	Modifying user name:	WinNT
#	Modification time:	15. 06. 2019 18:54

#	Program:	/corina/corina34_cracker 3.40 0067  02.08.2006

@<TRIPOS>MOLECULE
ASD00990003
  36   37    0    0    0
SMALL
NO_CHARGES


@<TRIPOS>ATOM
   1 C1            -0.0189     1.5389     0.0105 C.3     
   2 C2             0.0021    -0.0041     0.0020 C.3     
   3 N3             1.3058    -0.4202    -0.5467 N.3     
   4 C4             2.0771     0.7912    -0.8979 C.3     
   5 C5             1.4877     1.9090    -0.0019 C.3     
   6 C6             3.5388     0.5895    -0.5918 C.2     
   7 N7             4.4630     1.3884    -1.1613 N.am    
   8 C8             5.8840     1.1923    -0.8638 C.3     
   9 O9             3.8836    -0.2916     0.1668 O.2     
  10 C10            6.4815     0.1580    -1.7920 C.2     
  11 N11            7.1960     0.7612    -2.7577 N.am    
  12 O12            6.3374    -1.0411    -1.6808 O.2     
  13 C13            7.9153     0.0523    -3.8190 C.3     
  14 C14            7.0041    -0.1357    -5.0044 C.2     
  15 N15            7.4540    -0.7673    -6.1068 N.am    
  16 O16            5.8659     0.2815    -4.9666 O.2     
  17 C17            7.1625     2.2212    -2.6125 C.3     
  18 C18            6.6832     2.4808    -1.1671 C.3     
  19 H19           -0.5172     1.9225    -0.8798 H       
  20 H20           -0.5001     1.9129     0.9142 H       
  21 H21           -0.1103    -0.3820     1.0182 H       
  22 H22           -0.8031    -0.3824    -0.6278 H       
  23 H23            1.8107    -0.9913     0.1144 H       
  24 H24            1.9393     1.0367    -1.9509 H       
  25 H25            1.6450     2.8909    -0.4483 H       
  26 H26            1.9085     1.8666     1.0027 H       
  27 H27            4.1873     2.0931    -1.7681 H       
  28 H28            6.0175     0.8941     0.1761 H       
  29 H29            8.7865     0.6346    -4.1190 H       
  30 H30            8.2384    -0.9215    -3.4510 H       
  31 H31            8.3643    -1.1009    -6.1370 H       
  32 H32            6.8675    -0.8883    -6.8698 H       
  33 H33            8.1589     2.6379    -2.7601 H       
  34 H34            6.4619     2.6553    -3.3259 H       
  35 H35            6.0393     3.3591    -1.1215 H       
  36 H36            7.5296     2.5838    -0.4880 H       
@<TRIPOS>BOND
   1    1    2 1
   2    1    5 1
   3    1   19 1
   4    1   20 1
   5    2    3 1
   6    2   21 1
   7    2   22 1
   8    3    4 1
   9    3   23 1
  10    4    5 1
  11    4    6 1
  12    4   24 1
  13    5   25 1
  14    5   26 1
  15    6    7 am
  16    6    9 2
  17    7    8 1
  18    7   27 1
  19    8   10 1
  20    8   18 1
  21    8   28 1
  22   10   11 am
  23   10   12 2
  24   11   13 1
  25   11   17 1
  26   13   14 1
  27   13   29 1
  28   13   30 1
  29   14   15 am
  30   14   16 2
  31   15   31 1
  32   15   32 1
  33   17   18 1
  34   17   33 1
  35   17   34 1
  36   18   35 1
  37   18   36 1

#	End of record

