#	Name: ASD01810461
#	Creating user name:	WinNT
#	Creation time:	15. 06. 2019 19:24

#	Modifying user name:	WinNT
#	Modification time:	15. 06. 2019 19:24

#	Program:	/corina/corina34_cracker 3.40 0067  02.08.2006

@<TRIPOS>MOLECULE
ASD01810461
  44   47    0    0    0
SMALL
NO_CHARGES


@<TRIPOS>ATOM
   1 C1            -0.0551     1.4641    -0.1980 C.ar    
   2 C2            -0.1280     0.0829    -0.2581 C.ar    
   3 N3             1.1113     2.1880     0.0032 N.3     
   4 C4             2.1851     1.5215     0.7256 C.3     
   5 C5             2.6632     0.3061    -0.0874 C.3     
   6 C6             3.9091    -0.2725     0.5325 C.2     
   7 C7             0.8201     3.5034     0.5888 C.3     
   8 C8             2.1131     4.2101     0.9044 C.ar    
   9 O9             4.0463    -0.2645     1.7329 O.2     
  10 O10            4.8663    -0.7967    -0.2490 O.3     
  11 C11            2.7059     5.0212    -0.0457 C.ar    
  12 C12            3.8913     5.6699     0.2404 C.ar    
  13 C13            4.4873     5.5072     1.4838 C.ar    
  14 C14            3.8895     4.6926     2.4359 C.ar    
  15 C15            2.7015     4.0507     2.1456 C.ar    
  16 N16            5.6906     6.1639     1.7771 N.pl3   
  17 C17           -1.3370    -0.5472    -0.4922 C.ar    
  18 C18           -2.4924     0.1921    -0.6568 C.ar    
  19 C19           -2.4355     1.5718    -0.5857 C.ar    
  20 C20           -1.2335     2.2035    -0.3589 C.ar    
  21 C21            6.3729     6.0923     2.9424 C.2     
  22 C22            7.4758     6.8671     2.8221 C.2     
  23 C23            7.4683     7.4312     1.5417 C.2     
  24 N24            6.4024     7.0057     0.9127 N.2     
  25 S25            1.3132    -0.9149    -0.0319 S.o2    
  26 O26            1.1735    -1.4526     1.2760 O.2     
  27 O27            1.3478    -1.7568    -1.1760 O.2     
  28 H28            3.0144     2.2147     0.8662 H       
  29 H29            1.8188     1.1888     1.6968 H       
  30 H30            2.8593     0.5999    -1.1186 H       
  31 H31            0.2450     4.0979    -0.1211 H       
  32 H32            0.2439     3.3738     1.5049 H       
  33 H33            5.6471    -1.1559     0.1943 H       
  34 H34            2.2418     5.1474    -1.0127 H       
  35 H35            4.3542     6.3027    -0.5023 H       
  36 H36            4.3510     4.5639     3.4038 H       
  37 H37            2.2360     3.4168     2.8858 H       
  38 H38           -1.3779    -1.6250    -0.5469 H       
  39 H39           -3.4338    -0.3043    -0.8402 H       
  40 H40           -3.3359     2.1553    -0.7086 H       
  41 H41           -1.1989     3.2816    -0.3050 H       
  42 H42            6.0883     5.5200     3.8130 H       
  43 H43            8.2288     7.0226     3.5805 H       
  44 H44            8.2160     8.0991     1.1399 H       
@<TRIPOS>BOND
   1    1    2 ar
   2    1    3 1
   3    1   20 ar
   4    2   25 1
   5    2   17 ar
   6    3    4 1
   7    3    7 1
   8    4    5 1
   9    4   28 1
  10    4   29 1
  11    5   25 1
  12    5    6 1
  13    5   30 1
  14    6    9 2
  15    6   10 1
  16    7    8 1
  17    7   31 1
  18    7   32 1
  19    8   11 ar
  20    8   15 ar
  21   10   33 1
  22   11   12 ar
  23   11   34 1
  24   12   13 ar
  25   12   35 1
  26   13   14 ar
  27   13   16 1
  28   14   15 ar
  29   14   36 1
  30   15   37 1
  31   16   21 1
  32   16   24 1
  33   17   18 ar
  34   17   38 1
  35   18   19 ar
  36   18   39 1
  37   19   20 ar
  38   19   40 1
  39   20   41 1
  40   21   22 2
  41   21   42 1
  42   22   23 1
  43   22   43 1
  44   23   24 2
  45   23   44 1
  46   25   26 2
  47   25   27 2

#	End of record

