#	Name: ASD01412081
#	Creating user name:	WinNT
#	Creation time:	15. 06. 2019 19:20

#	Modifying user name:	WinNT
#	Modification time:	15. 06. 2019 19:20

#	Program:	/corina/corina34_cracker 3.40 0067  02.08.2006

@<TRIPOS>MOLECULE
ASD01412081
  62   65    0    0    0
SMALL
NO_CHARGES


@<TRIPOS>ATOM
   1 C1             0.2113     1.3565     1.2453 C.ar    
   2 C2             0.1852    -0.0193     1.0660 C.ar    
   3 C3             1.3368    -0.7102     0.7298 C.ar    
   4 C4             2.5391    -0.0329     0.5678 C.ar    
   5 C5             2.5806     1.3637     0.7474 C.ar    
   6 C6             1.4026     2.0599     1.0884 C.ar    
   7 C7             1.2863    -2.2043     0.5392 C.3     
   8 O8            -0.9836    -0.6959     1.2225 O.3     
   9 N9             3.8164    -0.4425     0.2434 N.pl3   
  10 C10            4.6531     0.6318     0.2133 C.2     
  11 C11            3.9597     1.7534     0.5112 C.2     
  12 C12            6.1324     0.6481    -0.0967 C.3     
  13 O13            6.5158     2.0024    -0.3667 O.3     
  14 C14            6.1074     2.9429     0.6304 C.3     
  15 C15            4.5835     3.1245     0.5688 C.3     
  16 C16            6.9179     0.1185     1.1047 C.3     
  17 C17            8.4157     0.1664     0.7960 C.3     
  18 C18            9.2062    -0.2430     2.0404 C.3     
  19 C19            6.4129    -0.2226    -1.3231 C.3     
  20 C20           -2.1369     0.0731     1.5700 C.3     
  21 C21           -3.3471    -0.8537     1.7017 C.3     
  22 N22           -3.1393    -1.7733     2.8282 N.3     
  23 C23           -4.3738    -2.5181     3.1369 C.3     
  24 C24           -4.0360    -4.0211     3.0454 C.3     
  25 C25           -2.4981    -4.0466     3.2480 C.3     
  26 C26           -2.0660    -2.7448     2.5282 C.3     
  27 C27            1.4316     3.4798     1.2724 C.1     
  28 N28            1.4545     4.6061     1.4183 N.1     
  29 C29            5.6722     0.3316    -2.5127 C.2     
  30 O30            5.0735     1.3768    -2.4183 O.2     
  31 O31            5.6776    -0.3359    -3.6773 O.3     
  32 H32           -0.6956     1.8835     1.5028 H       
  33 H33            1.0637    -2.4302    -0.5036 H       
  34 H34            2.2499    -2.6376     0.8071 H       
  35 H35            0.5086    -2.6257     1.1762 H       
  36 H36            4.0791    -1.3589     0.0639 H       
  37 H37            6.3897     2.5730     1.6161 H       
  38 H38            6.5952     3.9005     0.4482 H       
  39 H39            4.3147     3.6902    -0.3233 H       
  40 H40            4.2379     3.6506     1.4587 H       
  41 H41            6.7069     0.7361     1.9777 H       
  42 H42            6.6215    -0.9107     1.3075 H       
  43 H43            8.6407    -0.5207    -0.0197 H       
  44 H44            8.6945     1.1793     0.5054 H       
  45 H45            8.9811     0.4441     2.8561 H       
  46 H46            8.9273    -1.2558     2.3311 H       
  47 H47           10.2732    -0.2088     1.8205 H       
  48 H48            7.4831    -0.2247    -1.5301 H       
  49 H49            6.0784    -1.2418    -1.1293 H       
  50 H50           -1.9629     0.5805     2.5188 H       
  51 H51           -2.3284     0.8124     0.7923 H       
  52 H52           -4.2429    -0.2586     1.8789 H       
  53 H53           -3.4677    -1.4268     0.7824 H       
  54 H54           -4.7117    -2.2747     4.1443 H       
  55 H55           -5.1490    -2.2675     2.4128 H       
  56 H56           -4.5382    -4.5779     3.8365 H       
  57 H57           -4.3021    -4.4169     2.0653 H       
  58 H58           -2.2431    -4.0101     4.3072 H       
  59 H59           -2.0559    -4.9215     2.7715 H       
  60 H60           -1.9945    -2.9113     1.4533 H       
  61 H61           -1.1132    -2.3914     2.9225 H       
  62 H62            5.1884     0.0590    -4.4119 H       
@<TRIPOS>BOND
   1    1    2 ar
   2    1    6 ar
   3    1   32 1
   4    2    3 ar
   5    2    8 1
   6    3    4 ar
   7    3    7 1
   8    4    5 ar
   9    4    9 1
  10    5    6 ar
  11    5   11 1
  12    6   27 1
  13    7   33 1
  14    7   34 1
  15    7   35 1
  16    8   20 1
  17    9   10 1
  18    9   36 1
  19   10   11 2
  20   10   12 1
  21   11   15 1
  22   12   13 1
  23   12   16 1
  24   12   19 1
  25   13   14 1
  26   14   15 1
  27   14   37 1
  28   14   38 1
  29   15   39 1
  30   15   40 1
  31   16   17 1
  32   16   41 1
  33   16   42 1
  34   17   18 1
  35   17   43 1
  36   17   44 1
  37   18   45 1
  38   18   46 1
  39   18   47 1
  40   19   29 1
  41   19   48 1
  42   19   49 1
  43   20   21 1
  44   20   50 1
  45   20   51 1
  46   21   22 1
  47   21   52 1
  48   21   53 1
  49   22   23 1
  50   22   26 1
  51   23   24 1
  52   23   54 1
  53   23   55 1
  54   24   25 1
  55   24   56 1
  56   24   57 1
  57   25   26 1
  58   25   58 1
  59   25   59 1
  60   26   60 1
  61   26   61 1
  62   27   28 3
  63   29   30 2
  64   29   31 1
  65   31   62 1

#	End of record

