#	Name: ASD01209155
#	Creating user name:	WinNT
#	Creation time:	15. 06. 2019 19:11

#	Modifying user name:	WinNT
#	Modification time:	15. 06. 2019 19:11

#	Program:	/corina/corina34_cracker 3.40 0067  02.08.2006

@<TRIPOS>MOLECULE
ASD01209155
  60   61    0    0    0
SMALL
NO_CHARGES


@<TRIPOS>ATOM
   1 O1            -0.0472     1.4626    -0.0050 O.3     
   2 O2             2.1134     2.1022     1.3496 O.3     
   3 C3             8.5153     9.3204     2.7629 C.ar    
   4 C4             8.1972     9.1774     4.1055 C.ar    
   5 C5             7.0738     8.4559     4.4834 C.ar    
   6 C6             6.2647     7.8759     3.5207 C.ar    
   7 C7             6.5811     8.0172     2.1689 C.ar    
   8 C8             7.7086     8.7480     1.7931 C.ar    
   9 O9             6.7672     8.3181     5.8003 O.3     
  10 C10            7.6449     8.9421     6.7395 C.3     
  11 C11            5.7210     7.3990     1.1378 C.2     
  12 N12            4.6294     6.6977     1.5027 N.am    
  13 O13            5.9982     7.5232    -0.0393 O.2     
  14 C14            3.8213     6.1168     0.5339 C.2     
  15 P15            1.2931     2.3545    -0.0126 P.3     
  16 O16            2.1320     1.9744    -1.1712 O.2     
  17 C17            0.8487     4.1181    -0.1367 C.3     
  18 N18            2.7524     5.4243     0.7761 N.2     
  19 S19            4.0872     6.2171    -1.1520 S.3     
  20 C20            2.6468     5.2467    -1.4476 C.2     
  21 C21            2.1024     4.9441    -0.2675 C.2     
  22 C22           -0.0314     0.0337    -0.0213 C.3     
  23 C23           -1.4680    -0.4924    -0.0082 C.3     
  24 C24            2.6931     0.8403     1.6867 C.3     
  25 C25            3.3963     0.9477     3.0413 C.3     
  26 O26            9.6170    10.0278     2.3983 O.3     
  27 C27            9.9523    10.0360     1.0092 C.3     
  28 C28           11.4500    10.3036     0.8476 C.3     
  29 O29           11.7523    11.6189     1.3172 O.3     
  30 C30           13.1330    11.9713     1.2103 C.3     
  31 C31            9.1584    11.1346     0.2994 C.3     
  32 H32            8.8258     9.6287     4.8589 H       
  33 H33            5.3908     7.3142     3.8158 H       
  34 H34            7.9571     8.8598     0.7481 H       
  35 H35            8.6482     8.5310     6.6279 H       
  36 H36            7.6699    10.0162     6.5554 H       
  37 H37            7.2862     8.7552     7.7517 H       
  38 H38            4.4083     6.5986     2.4419 H       
  39 H39            0.2184     4.2733    -1.0123 H       
  40 H40            0.3065     4.4201     0.7594 H       
  41 H41            2.2685     4.9515    -2.4151 H       
  42 H42            0.4746    -0.3137    -0.9220 H       
  43 H43            0.4982    -0.3338     0.8577 H       
  44 H44           -1.9740    -0.1449     0.8925 H       
  45 H45           -1.9976    -0.1248    -0.8872 H       
  46 H46           -1.4560    -1.5823    -0.0207 H       
  47 H47            1.9100     0.0842     1.7428 H       
  48 H48            3.4173     0.5575     0.9228 H       
  49 H49            4.1793     1.7039     2.9852 H       
  50 H50            2.6720     1.2306     3.8052 H       
  51 H51            3.8384    -0.0148     3.2985 H       
  52 H52            9.7065     9.0690     0.5704 H       
  53 H53           12.0142     9.5725     1.4266 H       
  54 H54           11.7222    10.2220    -0.2047 H       
  55 H55           13.7322    11.2748     1.7968 H       
  56 H56           13.4401    11.9243     0.1655 H       
  57 H57           13.2799    12.9835     1.5870 H       
  58 H58            9.4041    12.1017     0.7382 H       
  59 H59            9.4141    11.1409    -0.7602 H       
  60 H60            8.0914    10.9440     0.4145 H       
@<TRIPOS>BOND
   1    1   22 1
   2    1   15 1
   3    2   24 1
   4    2   15 1
   5    3    4 ar
   6    3   26 1
   7    3    8 ar
   8    4    5 ar
   9    4   32 1
  10    5    6 ar
  11    5    9 1
  12    6    7 ar
  13    6   33 1
  14    7    8 ar
  15    7   11 1
  16    8   34 1
  17    9   10 1
  18   10   35 1
  19   10   36 1
  20   10   37 1
  21   11   12 am
  22   11   13 2
  23   12   14 1
  24   12   38 1
  25   14   18 2
  26   14   19 1
  27   15   16 2
  28   15   17 1
  29   17   21 1
  30   17   39 1
  31   17   40 1
  32   18   21 1
  33   19   20 1
  34   20   21 2
  35   20   41 1
  36   22   23 1
  37   22   42 1
  38   22   43 1
  39   23   44 1
  40   23   45 1
  41   23   46 1
  42   24   25 1
  43   24   47 1
  44   24   48 1
  45   25   49 1
  46   25   50 1
  47   25   51 1
  48   26   27 1
  49   27   28 1
  50   27   31 1
  51   27   52 1
  52   28   29 1
  53   28   53 1
  54   28   54 1
  55   29   30 1
  56   30   55 1
  57   30   56 1
  58   30   57 1
  59   31   58 1
  60   31   59 1
  61   31   60 1

#	End of record

