#	Name: ASD01917459
#	Creating user name:	WinNT
#	Creation time:	15. 06. 2019 20:09

#	Modifying user name:	WinNT
#	Modification time:	15. 06. 2019 20:09

#	Program:	/corina/corina34_cracker 3.40 0067  02.08.2006

@<TRIPOS>MOLECULE
ASD01917459
  49   52    0    0    0
SMALL
NO_CHARGES


@<TRIPOS>ATOM
   1 S1            -0.0218     1.7567     0.0117 S.3     
   2 C2             0.0021    -0.0041     0.0020 C.2     
   3 N3             1.2427    -0.4104    -0.0120 N.2     
   4 C4             2.1514     0.5291    -0.0156 C.2     
   5 C5             1.6885     1.7890    -0.0045 C.2     
   6 C6            -1.1843    -0.8763     0.0091 C.2     
   7 O7            -2.2981    -0.3879     0.0228 O.2     
   8 N8            -1.0360    -2.2158     0.0004 N.am    
   9 C9            -2.2163    -3.0836     0.0075 C.3     
  10 C10           -3.1092    -2.8549     1.2396 C.3     
  11 C11           -4.4202    -3.6216     1.0546 C.3     
  12 C12           -4.1385    -5.1038     0.8010 C.3     
  13 C13           -3.2014    -5.2356    -0.4124 C.3     
  14 C14           -3.7363    -4.2929    -1.5150 C.3     
  15 C15           -3.1010    -2.8956    -1.2465 C.3     
  16 C16           -1.8504    -4.5913    -0.0038 C.3     
  17 C17           -4.1569    -7.3078    -1.2670 C.2     
  18 C18           -4.0216    -8.7055    -1.7294 C.ar    
  19 C19           -5.1482    -9.4200    -2.1407 C.ar    
  20 C20           -5.0150   -10.7236    -2.5714 C.ar    
  21 C21           -3.7682   -11.3234    -2.5959 C.ar    
  22 C22           -2.6478   -10.6210    -2.1896 C.ar    
  23 C23           -2.7664    -9.3145    -1.7620 C.ar    
  24 O24           -5.2508    -6.7783    -1.2444 O.2     
  25 N25           -3.0674    -6.6207    -0.8705 N.am    
  26 C26           -6.2300   -11.4964    -3.0158 C.3     
  27 H27            3.2080     0.3057    -0.0266 H       
  28 H28            2.2983     2.6804    -0.0062 H       
  29 H29           -0.1477    -2.6054    -0.0105 H       
  30 H30           -2.5984    -3.2161     2.1322 H       
  31 H31           -3.3207    -1.7908     1.3443 H       
  32 H32           -5.0282    -3.5186     1.9534 H       
  33 H33           -4.9635    -3.2072     0.2054 H       
  34 H34           -3.6620    -5.5399     1.6789 H       
  35 H35           -5.0748    -5.6232     0.5967 H       
  36 H36           -3.4359    -4.6572    -2.4974 H       
  37 H37           -4.8226    -4.2257    -1.4558 H       
  38 H38           -3.8808    -2.1602    -1.0481 H       
  39 H39           -2.4906    -2.5764    -2.0912 H       
  40 H40           -1.0688    -4.7984    -0.7348 H       
  41 H41           -1.5538    -4.9290     0.9893 H       
  42 H42           -6.1219    -8.9532    -2.1214 H       
  43 H43           -3.6694   -12.3446    -2.9333 H       
  44 H44           -1.6776   -11.0949    -2.2111 H       
  45 H45           -1.8904    -8.7659    -1.4489 H       
  46 H46           -2.1944    -7.0432    -0.8885 H       
  47 H47           -6.3823   -11.3505    -4.0852 H       
  48 H48           -6.0810   -12.5567    -2.8114 H       
  49 H49           -7.1054   -11.1411    -2.4723 H       
@<TRIPOS>BOND
   1    1    2 1
   2    1    5 1
   3    2    3 2
   4    2    6 1
   5    3    4 1
   6    4    5 2
   7    4   27 1
   8    5   28 1
   9    6    7 2
  10    6    8 am
  11    8    9 1
  12    8   29 1
  13    9   10 1
  14    9   15 1
  15    9   16 1
  16   10   11 1
  17   10   30 1
  18   10   31 1
  19   11   12 1
  20   11   32 1
  21   11   33 1
  22   12   13 1
  23   12   34 1
  24   12   35 1
  25   13   14 1
  26   13   16 1
  27   13   25 1
  28   14   15 1
  29   14   36 1
  30   14   37 1
  31   15   38 1
  32   15   39 1
  33   16   40 1
  34   16   41 1
  35   17   18 1
  36   17   24 2
  37   17   25 am
  38   18   19 ar
  39   18   23 ar
  40   19   20 ar
  41   19   42 1
  42   20   21 ar
  43   20   26 1
  44   21   22 ar
  45   21   43 1
  46   22   23 ar
  47   22   44 1
  48   23   45 1
  49   25   46 1
  50   26   47 1
  51   26   48 1
  52   26   49 1

#	End of record

