#	Name: ASD03740164
#	Creating user name:	WinNT
#	Creation time:	15. 06. 2019 20:46

#	Modifying user name:	WinNT
#	Modification time:	15. 06. 2019 20:46

#	Program:	/corina/corina34_cracker 3.40 0067  02.08.2006

@<TRIPOS>MOLECULE
ASD03740164
  71   75    0    0    0
SMALL
NO_CHARGES


@<TRIPOS>ATOM
   1 C1            -0.0705     1.3699     0.9137 C.ar    
   2 C2            -0.0504    -0.0242     0.8713 C.ar    
   3 C3            -1.2054    -0.7342     0.7096 C.ar    
   4 C4            -2.4223    -0.0690     0.5846 C.ar    
   5 C5            -2.4539     1.3377     0.6265 C.ar    
   6 C6            -1.2648     2.0538     0.7979 C.ar    
   7 N7            -3.7183    -0.4889     0.4148 N.pl3   
   8 N8            -4.5575     0.6280     0.3500 N.2     
   9 C9            -3.8565     1.7223     0.4700 C.2     
  10 O10           -4.3426     2.9918     0.4531 O.3     
  11 C11           -4.1529    -1.8845     0.3163 C.3     
  12 C12           -4.4714    -2.4097     1.6925 C.ar    
  13 C13           -5.7520    -2.2885     2.1989 C.ar    
  14 C14           -6.0448    -2.7700     3.4610 C.ar    
  15 C15           -5.0560    -3.3734     4.2175 C.ar    
  16 C16           -3.7746    -3.4944     3.7101 C.ar    
  17 C17           -3.4844    -3.0176     2.4456 C.ar    
  18 C18           -5.7538     3.1439     0.2879 C.3     
  19 C19           -6.1106     4.6317     0.2938 C.3     
  20 C20           -7.6216     4.7946     0.1170 C.3     
  21 Cl21          -5.4228    -3.9779     5.8029 Cl      
  22 N22           -7.9641     6.2231     0.1226 N.3     
  23 C23           -9.3814     6.4280    -0.2281 C.3     
  24 C24           -7.7165     6.8221     1.4514 C.3     
  25 C25           -8.8171     7.9004     1.6105 C.3     
  26 C26          -10.0306     7.2123     0.9316 C.3     
  27 C27          -10.0770     5.0756    -0.3954 C.3     
  28 N28            1.1248     2.0790     1.0803 N.pl3   
  29 C29            2.3929     1.3569     1.2096 C.3     
  30 C30            1.1077     3.5432     1.1253 C.3     
  31 C31            2.9973     1.1547    -0.1559 C.ar    
  32 C32            3.8567     2.1028    -0.6788 C.ar    
  33 C33            4.4111     1.9173    -1.9314 C.ar    
  34 C34            4.1065     0.7834    -2.6610 C.ar    
  35 C35            3.2478    -0.1652    -2.1378 C.ar    
  36 C36            2.6968     0.0183    -0.8834 C.ar    
  37 H37            0.8893    -0.5478     0.9672 H       
  38 H38           -1.1751    -1.8134     0.6782 H       
  39 H39           -1.2795     3.1331     0.8316 H       
  40 H40           -5.0426    -1.9447    -0.3105 H       
  41 H41           -3.3560    -2.4829    -0.1254 H       
  42 H42           -6.5238    -1.8171     1.6084 H       
  43 H43           -7.0452    -2.6749     3.8567 H       
  44 H44           -3.0023    -3.9654     4.3001 H       
  45 H45           -2.4841    -3.1120     2.0494 H       
  46 H46           -6.0585     2.7009    -0.6603 H       
  47 H47           -6.2715     2.6429     1.1060 H       
  48 H48           -5.8059     5.0747     1.2420 H       
  49 H49           -5.5929     5.1327    -0.5243 H       
  50 H50           -7.9262     4.3516    -0.8312 H       
  51 H51           -8.1392     4.2936     0.9350 H       
  52 H52           -9.4557     6.9999    -1.1530 H       
  53 H53           -7.8099     6.0666     2.2315 H       
  54 H54           -6.7283     7.2809     1.4827 H       
  55 H55           -9.0196     8.0995     2.6629 H       
  56 H56           -8.5446     8.8167     1.0868 H       
  57 H57          -10.7311     7.9551     0.5500 H       
  58 H58          -10.5267     6.5338     1.6256 H       
  59 H59           -9.9327     4.4789     0.5053 H       
  60 H60          -11.1429     5.2331    -0.5600 H       
  61 H61           -9.6509     4.5512    -1.2507 H       
  62 H62            3.0789     1.9353     1.8286 H       
  63 H63            2.2133     0.3876     1.6747 H       
  64 H64            0.9808     3.8736     2.1563 H       
  65 H65            2.0484     3.9298     0.7331 H       
  66 H66            0.2813     3.9157     0.5201 H       
  67 H67            4.0947     2.9887    -0.1087 H       
  68 H68            5.0820     2.6584    -2.3402 H       
  69 H69            4.5390     0.6388    -3.6400 H       
  70 H70            3.0095    -1.0509    -2.7080 H       
  71 H71            2.0260    -0.7229    -0.4746 H       
@<TRIPOS>BOND
   1    1    2 ar
   2    1   28 1
   3    1    6 ar
   4    2    3 ar
   5    2   37 1
   6    3    4 ar
   7    3   38 1
   8    4    5 ar
   9    4    7 1
  10    5    6 ar
  11    5    9 1
  12    6   39 1
  13    7    8 1
  14    7   11 1
  15    8    9 2
  16    9   10 1
  17   10   18 1
  18   11   12 1
  19   11   40 1
  20   11   41 1
  21   12   13 ar
  22   12   17 ar
  23   13   14 ar
  24   13   42 1
  25   14   15 ar
  26   14   43 1
  27   15   16 ar
  28   15   21 1
  29   16   17 ar
  30   16   44 1
  31   17   45 1
  32   18   19 1
  33   18   46 1
  34   18   47 1
  35   19   20 1
  36   19   48 1
  37   19   49 1
  38   20   22 1
  39   20   50 1
  40   20   51 1
  41   22   23 1
  42   22   24 1
  43   23   27 1
  44   23   26 1
  45   23   52 1
  46   24   25 1
  47   24   53 1
  48   24   54 1
  49   25   26 1
  50   25   55 1
  51   25   56 1
  52   26   57 1
  53   26   58 1
  54   27   59 1
  55   27   60 1
  56   27   61 1
  57   28   30 1
  58   28   29 1
  59   29   31 1
  60   29   62 1
  61   29   63 1
  62   30   64 1
  63   30   65 1
  64   30   66 1
  65   31   32 ar
  66   31   36 ar
  67   32   33 ar
  68   32   67 1
  69   33   34 ar
  70   33   68 1
  71   34   35 ar
  72   34   69 1
  73   35   36 ar
  74   35   70 1
  75   36   71 1

#	End of record

