#	Name: ASD02470001
#	Creating user name:	WinNT
#	Creation time:	15. 06. 2019 20:22

#	Modifying user name:	WinNT
#	Modification time:	15. 06. 2019 20:22

#	Program:	/corina/corina34_cracker 3.40 0067  02.08.2006

@<TRIPOS>MOLECULE
ASD02470001
  11   10    0    0    0
SMALL
NO_CHARGES


@<TRIPOS>ATOM
   1 C1            -0.0181     1.4867     0.0102 C.2     
   2 C2             0.0021    -0.0041     0.0020 C.2     
   3 C3             1.2766     2.2578     0.0020 C.3     
   4 O4            -1.0722     2.0763     0.0184 O.2     
   5 N5            -1.1558    -0.6938     0.0094 N.am    
   6 O6             1.0612    -0.5965    -0.0113 O.2     
   7 H7             2.1145     1.5609    -0.0097 H       
   8 H8             1.3173     2.8900    -0.8850 H       
   9 H9             1.3343     2.8804     0.8948 H       
  10 H10           -2.0023    -0.2203     0.0200 H       
  11 H11           -1.1427    -1.6637     0.0040 H       
@<TRIPOS>BOND
   1    1    2 1
   2    1    3 1
   3    1    4 2
   4    2    5 am
   5    2    6 2
   6    3    7 1
   7    3    8 1
   8    3    9 1
   9    5   10 1
  10    5   11 1

#	End of record

