#	Name: ASD01120098
#	Creating user name:	WinNT
#	Creation time:	15. 06. 2019 18:59

#	Modifying user name:	WinNT
#	Modification time:	15. 06. 2019 18:59

#	Program:	/corina/corina34_cracker 3.40 0067  02.08.2006

@<TRIPOS>MOLECULE
ASD01120098
  54   57    0    0    0
SMALL
NO_CHARGES


@<TRIPOS>ATOM
   1 C1            -0.1326     1.3518     0.8704 C.ar    
   2 C2            -0.1312    -0.0500     0.8727 C.ar    
   3 C3            -1.2858    -0.7550     0.6138 C.ar    
   4 C4            -2.4722    -0.0614     0.3458 C.ar    
   5 C5            -2.4658     1.3556     0.3453 C.ar    
   6 C6            -1.2800     2.0484     0.6170 C.ar    
   7 N7            -3.6236    -0.7011     0.0870 N.ar    
   8 C8            -4.7193    -0.0239    -0.1610 C.ar    
   9 N9            -4.7610     1.2989    -0.1721 N.ar    
  10 C10           -3.6800     2.0287     0.0706 C.ar    
  11 N11           -3.7382     3.4079     0.0561 N.pl3   
  12 C12           -4.0789     4.1054     1.2187 C.ar    
  13 C13           -4.2472     5.4813     1.1780 C.ar    
  14 C14           -4.5870     6.1717     2.3387 C.ar    
  15 C15           -4.7561     5.4760     3.5347 C.ar    
  16 C16           -4.5863     4.1060     3.5671 C.ar    
  17 C17           -4.2547     3.4193     2.4149 C.ar    
  18 C18           -4.7681     7.6436     2.3025 C.2     
  19 C19           -5.0967     8.3693     3.3904 C.2     
  20 S20           -5.2076    10.0580     2.9007 S.3     
  21 C21           -4.8054     9.6323     1.2950 C.2     
  22 N22           -4.6158     8.3619     1.1993 N.2     
  23 C23           -4.6834    10.6075     0.1525 C.3     
  24 O24            1.0199     2.0257     1.1289 O.3     
  25 O25            1.0214    -0.7204     1.1326 O.3     
  26 C26            0.9545     3.4531     1.1122 C.3     
  27 C27            2.3369     4.0307     1.4225 C.3     
  28 C28            0.9584    -2.1480     1.1204 C.3     
  29 C29            2.3419    -2.7221     1.4320 C.3     
  30 C30           -3.4429     4.1406    -1.1777 C.3     
  31 H31           -1.2760    -1.8349     0.6171 H       
  32 H32           -1.2705     3.1283     0.6177 H       
  33 H33           -5.6281    -0.5704    -0.3655 H       
  34 H34           -4.1147     6.0159     0.2489 H       
  35 H35           -5.0196     6.0087     4.4365 H       
  36 H36           -4.7170     3.5691     4.4950 H       
  37 H37           -4.1233     2.3478     2.4454 H       
  38 H38           -5.2626     7.9837     4.3855 H       
  39 H39           -4.8902    11.6156     0.5117 H       
  40 H40           -3.6728    10.5667    -0.2537 H       
  41 H41           -5.3991    10.3456    -0.6268 H       
  42 H42            0.6325     3.7906     0.1270 H       
  43 H43            0.2417     3.7930     1.8635 H       
  44 H44            2.2870     5.1195     1.4098 H       
  45 H45            2.6588     3.6932     2.4077 H       
  46 H46            3.0497     3.6908     0.6712 H       
  47 H47            0.2465    -2.4867     1.8731 H       
  48 H48            0.6367    -2.4891     0.1364 H       
  49 H49            2.2939    -3.8110     1.4228 H       
  50 H50            3.0539    -2.3834     0.6794 H       
  51 H51            2.6637    -2.3810     2.4160 H       
  52 H52           -4.3728     4.3541    -1.7049 H       
  53 H53           -2.9408     5.0766    -0.9331 H       
  54 H54           -2.7955     3.5362    -1.8131 H       
@<TRIPOS>BOND
   1    1    2 ar
   2    1   24 1
   3    1    6 ar
   4    2    3 ar
   5    2   25 1
   6    3    4 ar
   7    3   31 1
   8    4    5 ar
   9    4    7 ar
  10    5    6 ar
  11    5   10 ar
  12    6   32 1
  13    7    8 ar
  14    8    9 ar
  15    8   33 1
  16    9   10 ar
  17   10   11 1
  18   11   12 1
  19   11   30 1
  20   12   13 ar
  21   12   17 ar
  22   13   14 ar
  23   13   34 1
  24   14   15 ar
  25   14   18 1
  26   15   16 ar
  27   15   35 1
  28   16   17 ar
  29   16   36 1
  30   17   37 1
  31   18   19 2
  32   18   22 1
  33   19   20 1
  34   19   38 1
  35   20   21 1
  36   21   22 2
  37   21   23 1
  38   23   39 1
  39   23   40 1
  40   23   41 1
  41   24   26 1
  42   25   28 1
  43   26   27 1
  44   26   42 1
  45   26   43 1
  46   27   44 1
  47   27   45 1
  48   27   46 1
  49   28   29 1
  50   28   47 1
  51   28   48 1
  52   29   49 1
  53   29   50 1
  54   29   51 1
  55   30   52 1
  56   30   53 1
  57   30   54 1

#	End of record

