#	Name: ASD00840753
#	Creating user name:	WinNT
#	Creation time:	15. 06. 2019 18:39

#	Modifying user name:	WinNT
#	Modification time:	15. 06. 2019 18:39

#	Program:	/corina/corina34_cracker 3.40 0067  02.08.2006

@<TRIPOS>MOLECULE
ASD00840753
  93   98    0    0    0
SMALL
NO_CHARGES


@<TRIPOS>ATOM
   1 F1             6.0703    -1.9371    -2.0353 F       
   2 N2             1.0651     1.4645    -0.7439 N.ar    
   3 C3             1.3276     0.1732    -0.8554 C.ar    
   4 C4             1.2494    -0.6631     0.2511 C.ar    
   5 C5             0.8924    -0.1274     1.4760 C.ar    
   6 C6             0.6249     1.2328     1.5511 C.ar    
   7 C7             0.7223     2.0043     0.4105 C.ar    
   8 C8             1.5488    -2.1342     0.1192 C.3     
   9 C9             1.2681    -2.8515     1.4224 C.2     
  10 C10            0.7282    -2.7470    -1.0175 C.3     
  11 C11           -0.7340    -2.4590    -0.7932 C.2     
  12 N12           -1.6584    -2.9786    -1.6250 N.am    
  13 O13           -1.0788    -1.7597     0.1357 O.2     
  14 C14           -3.0761    -2.6180    -1.4876 C.3     
  15 C15           -3.9028    -3.9026    -1.3738 C.3     
  16 C16           -3.5977    -4.8085    -2.5690 C.3     
  17 C17           -2.1146    -5.1861    -2.5595 C.3     
  18 C18           -1.2669    -3.9116    -2.6903 C.3     
  19 N19           -4.4135    -6.0269    -2.4804 N.3     
  20 C20           -4.2354    -6.8677    -3.6725 C.3     
  21 C21           -5.0377    -8.1604    -3.5062 C.3     
  22 N22           -6.4557    -7.8313    -3.3044 N.3     
  23 C23           -6.6338    -6.9905    -2.1124 C.3     
  24 C24           -5.8314    -5.6978    -2.2787 C.3     
  25 C25           -7.2715    -9.0497    -3.2159 C.3     
  26 O26            0.1965    -2.9302     1.9851 O.2     
  27 N27            2.4289    -3.3853     1.8383 N.am    
  28 C28            3.0261    -2.3552    -0.1117 C.ar    
  29 C29            3.4804    -3.1125     0.9607 C.ar    
  30 C30            3.8858    -1.9615    -1.1123 C.ar    
  31 C31            5.2229    -2.3215    -1.0559 C.ar    
  32 C32            5.6876    -3.0768     0.0088 C.ar    
  33 C33            4.8253    -3.4716     1.0124 C.ar    
  34 Cl34           7.3622    -3.5288     0.0814 Cl      
  35 C35            2.3021    -5.9530     2.8208 C.ar    
  36 C36            3.3546    -6.7600     2.4297 C.ar    
  37 C37            1.0220    -6.4702     2.8953 C.ar    
  38 C38            0.7915    -7.7950     2.5790 C.ar    
  39 C39            1.8458    -8.6068     2.1864 C.ar    
  40 C40            3.1292    -8.0854     2.1119 C.ar    
  41 O41            1.6217    -9.9105     1.8751 O.3     
  42 H42            4.3536    -6.3537     2.3722 H       
  43 C43            2.7541   -10.6868     1.4789 C.3     
  44 C44           -8.7164    -8.6729    -2.8826 C.3     
  45 C45           -7.2330    -9.7877    -4.5556 C.3     
  46 S46            2.5940    -4.2647     3.2318 S.o2    
  47 O47            3.9622    -4.1731     3.6044 O.2     
  48 O48            1.5281    -3.8693     4.0844 O.2     
  49 O49            1.6760    -0.3399    -2.0621 O.3     
  50 C50            2.1647    -0.1709    -4.4229 C.3     
  51 C51            1.6308     0.5469    -3.1817 C.3     
  52 H52            0.8231    -0.7532     2.3535 H       
  53 H53            0.3433     1.6826     2.4918 H       
  54 H54            0.5156     3.0630     0.4636 H       
  55 H55            1.0424    -2.3137    -1.9670 H       
  56 H56            0.8869    -3.8251    -1.0399 H       
  57 H57           -3.2142    -2.0139    -0.5909 H       
  58 H58           -3.3962    -2.0539    -2.3636 H       
  59 H59           -3.6453    -4.4203    -0.4498 H       
  60 H60           -4.9639    -3.6531    -1.3680 H       
  61 H61           -3.8322    -4.2811    -3.4936 H       
  62 H62           -1.8739    -5.6917    -1.6243 H       
  63 H63           -1.9029    -5.8501    -3.3976 H       
  64 H64           -1.4407    -3.4556    -3.6649 H       
  65 H65           -0.2114    -4.1625    -2.5850 H       
  66 H66           -4.5894    -6.3307    -4.5525 H       
  67 H67           -3.1792    -7.1083    -3.7933 H       
  68 H68           -4.9304    -8.7728    -4.4015 H       
  69 H69           -4.6656    -8.7108    -2.6420 H       
  70 H70           -7.6900    -6.7499    -1.9915 H       
  71 H71           -6.2798    -7.5276    -1.2324 H       
  72 H72           -5.9388    -5.0854    -1.3834 H       
  73 H73           -6.2036    -5.1475    -3.1428 H       
  74 H74           -6.8749    -9.6965    -2.4333 H       
  75 H75            3.5186    -1.3732    -1.9402 H       
  76 H76            5.1944    -4.0602     1.8392 H       
  77 H77            0.2017    -5.8379     3.2014 H       
  78 H78           -0.2085    -8.1986     2.6378 H       
  79 H79            3.9517    -8.7154     1.8068 H       
  80 H80            3.2032   -10.2463     0.5888 H       
  81 H81            3.4861   -10.7001     2.2865 H       
  82 H82            2.4369   -11.7063     1.2592 H       
  83 H83           -9.3218    -9.5770    -2.8169 H       
  84 H84           -8.7439    -8.1472    -1.9281 H       
  85 H85           -9.1131    -8.0262    -3.6652 H       
  86 H86           -6.2036   -10.0562    -4.7931 H       
  87 H87           -7.8383   -10.6918    -4.4899 H       
  88 H88           -7.6296    -9.1410    -5.3382 H       
  89 H89            3.1624    -0.5587    -4.2172 H       
  90 H90            1.5000    -0.9957    -4.6796 H       
  91 H91            2.2121     0.5304    -5.2559 H       
  92 H92            0.6010     0.8585    -3.3570 H       
  93 H93            2.2455     1.4233    -2.9762 H       
@<TRIPOS>BOND
   1    1   31 1
   2    2    3 ar
   3    2    7 ar
   4    3    4 ar
   5    3   49 1
   6    4    5 ar
   7    4    8 1
   8    5    6 ar
   9    5   52 1
  10    6    7 ar
  11    6   53 1
  12    7   54 1
  13    8    9 1
  14    8   10 1
  15    8   28 1
  16    9   26 2
  17    9   27 am
  18   10   11 1
  19   10   55 1
  20   10   56 1
  21   11   12 am
  22   11   13 2
  23   12   14 1
  24   12   18 1
  25   14   15 1
  26   14   57 1
  27   14   58 1
  28   15   16 1
  29   15   59 1
  30   15   60 1
  31   16   17 1
  32   16   19 1
  33   16   61 1
  34   17   18 1
  35   17   62 1
  36   17   63 1
  37   18   64 1
  38   18   65 1
  39   19   20 1
  40   19   24 1
  41   20   21 1
  42   20   66 1
  43   20   67 1
  44   21   22 1
  45   21   68 1
  46   21   69 1
  47   22   23 1
  48   22   25 1
  49   23   24 1
  50   23   70 1
  51   23   71 1
  52   24   72 1
  53   24   73 1
  54   25   44 1
  55   25   45 1
  56   25   74 1
  57   27   46 am
  58   27   29 1
  59   28   29 ar
  60   28   30 ar
  61   29   33 ar
  62   30   31 ar
  63   30   75 1
  64   31   32 ar
  65   32   33 ar
  66   32   34 1
  67   33   76 1
  68   35   36 ar
  69   35   37 ar
  70   35   46 1
  71   36   42 1
  72   36   40 ar
  73   37   38 ar
  74   37   77 1
  75   38   39 ar
  76   38   78 1
  77   39   40 ar
  78   39   41 1
  79   40   79 1
  80   41   43 1
  81   43   80 1
  82   43   81 1
  83   43   82 1
  84   44   83 1
  85   44   84 1
  86   44   85 1
  87   45   86 1
  88   45   87 1
  89   45   88 1
  90   46   47 2
  91   46   48 2
  92   49   51 1
  93   50   51 1
  94   50   89 1
  95   50   90 1
  96   50   91 1
  97   51   92 1
  98   51   93 1

#	End of record

