#	Name: ASD01141045
#	Creating user name:	WinNT
#	Creation time:	15. 06. 2019 19:01

#	Modifying user name:	WinNT
#	Modification time:	15. 06. 2019 19:01

#	Program:	/corina/corina34_cracker 3.40 0067  02.08.2006

@<TRIPOS>MOLECULE
ASD01141045
  56   59    0    0    0
SMALL
NO_CHARGES


@<TRIPOS>ATOM
   1 C1            -0.0238     1.5609     0.0101 C.3     
   2 C2             0.1233     0.0215    -0.0785 C.3     
   3 C3             1.4241     2.0963     0.0810 C.3     
   4 C4             1.6490    -0.2727     0.0367 C.3     
   5 C5             2.1182     0.9475     0.8444 C.3     
   6 C6             1.5715     3.3865     0.8497 C.3     
   7 C7             1.9001     2.2429    -1.3615 C.3     
   8 C8             3.5862     1.1597     1.0168 C.3     
   9 C9             3.0165     3.5954     1.3241 C.3     
  10 C10            3.9903     2.6038     0.7190 C.3     
  11 C11            4.4612     0.2197     0.1917 C.3     
  12 C12            5.4271     2.8249     1.2085 C.3     
  13 C13            5.9213     0.4190     0.6241 C.3     
  14 C14            6.0057     1.4996     1.6971 C.3     
  15 C15            5.4556     3.8420     2.3466 C.3     
  16 C16            6.2426     3.3616     0.0267 C.3     
  17 C17            7.4514     1.6922     2.1547 C.3     
  18 H18            5.4305     1.1667     2.5736 H       
  19 C19            6.8848     4.0388     2.8507 C.3     
  20 C20            7.4926     2.7108     3.2949 C.3     
  21 H21            8.5333     2.8737     3.5899 H       
  22 O22            6.7685     2.2027     4.4176 O.3     
  23 H23            6.7537     2.7990     5.1787 H       
  24 C24           -0.7024     2.0978    -1.2202 C.2     
  25 O25           -0.6665     1.4680    -2.2566 O.2     
  26 C26           -1.3909     3.3524    -1.1683 C.1     
  27 C27           -1.9553     4.3810    -1.1258 C.1     
  28 H28           -2.4601     5.3009    -1.0878 H       
  29 H29           -0.5611     1.8451     0.9092 H       
  30 H30           -0.4078    -0.4555     0.7428 H       
  31 H31           -0.2523    -0.3377    -1.0346 H       
  32 H32            1.8130    -1.1908     0.6033 H       
  33 H33            2.1172    -0.3302    -0.9359 H       
  34 H34            1.6547     0.8710     1.8519 H       
  35 H35            1.2706     4.2293     0.2138 H       
  36 H36            0.9018     3.3709     1.7206 H       
  37 H37            1.1947     2.8620    -1.9158 H       
  38 H38            2.8836     2.7128    -1.3737 H       
  39 H39            1.9621     1.2585    -1.8255 H       
  40 H40            3.8132     0.9634     2.0844 H       
  41 H41            3.3288     4.6159     1.0653 H       
  42 H42            3.0431     3.5115     2.4185 H       
  43 H43            4.0429     2.7540    -0.3644 H       
  44 H44            4.1674    -0.8131     0.3726 H       
  45 H45            4.3621     0.4536    -0.8669 H       
  46 H46            6.2941    -0.5242     1.0376 H       
  47 H47            6.5274     0.6835    -0.2384 H       
  48 H48            5.0687     4.7988     1.9887 H       
  49 H49            4.8289     3.4893     3.1677 H       
  50 H50            6.2163     2.6405    -0.7902 H       
  51 H51            5.8165     4.3069    -0.3093 H       
  52 H52            7.2749     3.5190     0.3393 H       
  53 H53            7.8343     0.7339     2.5251 H       
  54 H54            8.0808     2.0206     1.3345 H       
  55 H55            7.5040     4.4903     2.0778 H       
  56 H56            6.8633     4.7214     3.7093 H       
@<TRIPOS>BOND
   1    1    2 1
   2    1    3 1
   3    1   24 1
   4    1   29 1
   5    2    4 1
   6    2   30 1
   7    2   31 1
   8    3    5 1
   9    3    6 1
  10    3    7 1
  11    4    5 1
  12    4   32 1
  13    4   33 1
  14    5    8 1
  15    5   34 1
  16    6    9 1
  17    6   35 1
  18    6   36 1
  19    7   37 1
  20    7   38 1
  21    7   39 1
  22    8   10 1
  23    8   11 1
  24    8   40 1
  25    9   10 1
  26    9   41 1
  27    9   42 1
  28   10   12 1
  29   10   43 1
  30   11   13 1
  31   11   44 1
  32   11   45 1
  33   12   14 1
  34   12   15 1
  35   12   16 1
  36   13   14 1
  37   13   46 1
  38   13   47 1
  39   14   17 1
  40   14   18 1
  41   15   19 1
  42   15   48 1
  43   15   49 1
  44   16   50 1
  45   16   51 1
  46   16   52 1
  47   17   20 1
  48   17   53 1
  49   17   54 1
  50   19   20 1
  51   19   55 1
  52   19   56 1
  53   20   21 1
  54   20   22 1
  55   22   23 1
  56   24   25 2
  57   24   26 1
  58   26   27 3
  59   27   28 1

#	End of record

