#	Name: ASD03730358
#	Creating user name:	WinNT
#	Creation time:	15. 06. 2019 20:44

#	Modifying user name:	WinNT
#	Modification time:	15. 06. 2019 20:44

#	Program:	/corina/corina34_cracker 3.40 0067  02.08.2006

@<TRIPOS>MOLECULE
ASD03730358
  67   72    0    0    0
SMALL
NO_CHARGES


@<TRIPOS>ATOM
   1 C1             0.3806     2.3136     2.1382 C.2     
   2 C2             0.6926     2.2603     3.5824 C.ar    
   3 C3             1.0837     3.4174     4.2582 C.ar    
   4 C4             1.3728     3.3610     5.6057 C.ar    
   5 C5             1.2763     2.1606     6.2875 C.ar    
   6 C6             0.8893     1.0103     5.6237 C.ar    
   7 C7             0.5917     1.0542     4.2771 C.ar    
   8 O8             0.9226     3.1390     1.4294 O.2     
   9 N9            -0.5005     1.4432     1.6065 N.am    
  10 C10            1.7952     4.6091     6.3370 C.3     
  11 O11           -4.8102     2.4040     8.1251 O.3     
  12 C12           -6.1257     2.6198     8.6691 C.3     
  13 O13           -5.8927     3.4874     9.7942 O.3     
  14 C14           -4.7538     4.1785     9.4936 C.ar    
  15 C15           -4.0882     3.5112     8.4678 C.ar    
  16 C16           -4.2232     5.3425    10.0200 C.ar    
  17 C17           -3.0241     5.8540     9.5331 C.ar    
  18 C18           -2.3642     5.1741     8.5140 C.ar    
  19 C19           -2.8938     4.0166     7.9827 C.ar    
  20 O20           -2.3459     6.9806     9.8952 O.3     
  21 C21           -1.1042     5.9467     8.2288 C.3     
  22 C22           -0.9826     6.8814     9.4400 C.3     
  23 N23            0.6108     5.2878     6.8690 N.am    
  24 C24            0.0929     5.0507     8.0907 C.2     
  25 C25           -1.1814     6.7089     6.9392 C.ar    
  26 C26           -2.0384     7.6705     6.4523 C.ar    
  27 C27           -1.8420     8.1978     5.1884 C.ar    
  28 C28           -0.7835     7.7565     4.4153 C.ar    
  29 C29            0.0771     6.7928     4.8982 C.ar    
  30 C30           -0.1127     6.2567     6.1695 C.ar    
  31 O31            0.5118     4.2675     8.9166 O.2     
  32 C32           -1.3839     1.8683     0.5179 C.3     
  33 C33           -1.0482     1.0789    -0.7491 C.3     
  34 C34           -2.8393     1.6073     0.9107 C.3     
  35 C35           -0.5748     0.0722     2.1173 C.3     
  36 C36            0.8399    -0.4757     2.3153 C.3     
  37 C37           -1.3161     0.0660     3.4557 C.3     
  38 H38            1.1600     4.3547     3.7271 H       
  39 H39            1.5045     2.1216     7.3424 H       
  40 H40            0.8160     0.0766     6.1616 H       
  41 H41            0.2857     0.1562     3.7609 H       
  42 H42            2.4602     4.3417     7.1582 H       
  43 H43            2.3168     5.2744     5.6490 H       
  44 H44           -6.7680     3.1077     7.9359 H       
  45 H45           -6.5641     1.6772     8.9967 H       
  46 H46           -4.7430     5.8577    10.8143 H       
  47 H47           -2.3753     3.5029     7.1866 H       
  48 H48           -0.6030     7.8578     9.1389 H       
  49 H49           -0.3491     6.4387    10.2086 H       
  50 H50           -2.8644     8.0135     7.0576 H       
  51 H51           -2.5134     8.9527     4.8065 H       
  52 H52           -0.6302     8.1681     3.4286 H       
  53 H53            0.9011     6.4529     4.2884 H       
  54 H54           -1.2434     2.9328     0.3305 H       
  55 H55           -1.2750     0.0245    -0.5910 H       
  56 H56           -1.6419     1.4574    -1.5811 H       
  57 H57            0.0115     1.1923    -0.9777 H       
  58 H58           -3.0517     2.0943     1.8624 H       
  59 H59           -3.5005     2.0076     0.1422 H       
  60 H60           -3.0027     0.5339     1.0074 H       
  61 H61           -1.1099    -0.5532     1.4027 H       
  62 H62            1.4492     0.2683     2.8283 H       
  63 H63            0.7967    -1.3855     2.9140 H       
  64 H64            1.2818    -0.7003     1.3445 H       
  65 H65           -2.3729    -0.1391     3.2848 H       
  66 H66           -0.8957    -0.7060     4.1003 H       
  67 H67           -1.2077     1.0387     3.9355 H       
@<TRIPOS>BOND
   1    1    2 1
   2    1    8 2
   3    1    9 am
   4    2    3 ar
   5    2    7 ar
   6    3    4 ar
   7    3   38 1
   8    4    5 ar
   9    4   10 1
  10    5    6 ar
  11    5   39 1
  12    6    7 ar
  13    6   40 1
  14    7   41 1
  15    9   32 1
  16    9   35 1
  17   10   23 1
  18   10   42 1
  19   10   43 1
  20   11   12 1
  21   11   15 1
  22   12   13 1
  23   12   44 1
  24   12   45 1
  25   13   14 1
  26   14   15 ar
  27   14   16 ar
  28   15   19 ar
  29   16   17 ar
  30   16   46 1
  31   17   18 ar
  32   17   20 1
  33   18   19 ar
  34   18   21 1
  35   19   47 1
  36   20   22 1
  37   21   22 1
  38   21   24 1
  39   21   25 1
  40   22   48 1
  41   22   49 1
  42   23   24 am
  43   23   30 1
  44   24   31 2
  45   25   26 ar
  46   25   30 ar
  47   26   27 ar
  48   26   50 1
  49   27   28 ar
  50   27   51 1
  51   28   29 ar
  52   28   52 1
  53   29   30 ar
  54   29   53 1
  55   32   33 1
  56   32   34 1
  57   32   54 1
  58   33   55 1
  59   33   56 1
  60   33   57 1
  61   34   58 1
  62   34   59 1
  63   34   60 1
  64   35   36 1
  65   35   37 1
  66   35   61 1
  67   36   62 1
  68   36   63 1
  69   36   64 1
  70   37   65 1
  71   37   66 1
  72   37   67 1

#	End of record

