#	Name: ASD02508377
#	Creating user name:	WinNT
#	Creation time:	15. 06. 2019 20:24

#	Modifying user name:	WinNT
#	Modification time:	15. 06. 2019 20:24

#	Program:	/corina/corina34_cracker 3.40 0067  02.08.2006

@<TRIPOS>MOLECULE
ASD02508377
  40   42    0    0    0
SMALL
NO_CHARGES


@<TRIPOS>ATOM
   1 C1            -0.1605     1.2465     0.3612 C.2     
   2 C2            -0.0396    -0.1570     0.4142 C.2     
   3 C3             1.2737    -0.4534     0.3446 C.2     
   4 N4             1.9710     0.7179     0.2503 N.pl3   
   5 C5             1.0834     1.7567     0.2612 C.2     
   6 C6             3.3612     0.8342     0.1586 C.ar    
   7 C7             4.0339     1.7276     0.9852 C.ar    
   8 N8             4.0252     0.0894    -0.7099 N.ar    
   9 C9             5.3367     0.1673    -0.8286 C.ar    
  10 C10            6.0688     1.0364    -0.0439 C.ar    
  11 C11            5.4112     1.8322     0.8839 C.ar    
  12 S12            1.9706    -2.0715     0.3713 S.o2    
  13 O13            1.9045    -2.5588    -0.9619 O.2     
  14 O14            3.1844    -1.9736     1.1037 O.2     
  15 N15            0.9585    -3.0264     1.2690 N.am    
  16 C16           -0.3625    -3.2222     0.8596 C.ar    
  17 C17           -0.6677    -3.2998    -0.4932 C.ar    
  18 C18           -2.6781    -3.5395     1.3965 C.ar    
  19 C19           -1.3733    -3.3455     1.8047 C.ar    
  20 C20           -1.9750    -3.4940    -0.8946 C.ar    
  21 C21           -2.9793    -3.6110     0.0485 C.ar    
  22 Cl22           3.1593     2.6988     2.1278 Cl      
  23 C23            7.5667     1.1158    -0.1893 C.3     
  24 F24            7.9875     0.2192    -1.1774 F       
  25 F25            7.9315     2.4163    -0.5537 F       
  26 F26            8.1716     0.7856     1.0282 F       
  27 C27           -1.0460    -3.2682     3.2737 C.3     
  28 F28           -2.2188    -3.4192     4.0213 F       
  29 F29           -0.1471    -4.2875     3.6055 F       
  30 F30           -0.4684    -2.0262     3.5580 F       
  31 H31           -1.0815     1.8099     0.3906 H       
  32 H32           -0.8508    -0.8654     0.4956 H       
  33 H33            1.3348     2.8053     0.1998 H       
  34 H34            5.8447    -0.4570    -1.5488 H       
  35 H35            5.9604     2.5200     1.5097 H       
  36 H36            1.2829    -3.4498     2.0791 H       
  37 H37            0.1162    -3.2081    -1.2304 H       
  38 H38           -3.4643    -3.6358     2.1307 H       
  39 H39           -2.2131    -3.5540    -1.9463 H       
  40 H40           -4.0006    -3.7628    -0.2680 H       
@<TRIPOS>BOND
   1    1    2 1
   2    1    5 2
   3    1   31 1
   4    2    3 2
   5    2   32 1
   6    3    4 1
   7    3   12 1
   8    4    5 1
   9    4    6 1
  10    5   33 1
  11    6    7 ar
  12    6    8 ar
  13    7   22 1
  14    7   11 ar
  15    8    9 ar
  16    9   10 ar
  17    9   34 1
  18   10   11 ar
  19   10   23 1
  20   11   35 1
  21   12   13 2
  22   12   14 2
  23   12   15 am
  24   15   16 1
  25   15   36 1
  26   16   17 ar
  27   16   19 ar
  28   17   20 ar
  29   17   37 1
  30   18   19 ar
  31   18   21 ar
  32   18   38 1
  33   19   27 1
  34   20   21 ar
  35   20   39 1
  36   21   40 1
  37   23   24 1
  38   23   25 1
  39   23   26 1
  40   27   28 1
  41   27   29 1
  42   27   30 1

#	End of record

