#	Name: ASD09710001
#	Creating user name:	WinNT
#	Creation time:	15. 06. 2019 21:22

#	Modifying user name:	WinNT
#	Modification time:	15. 06. 2019 21:22

#	Program:	/corina/corina34_cracker 3.40 0067  02.08.2006

@<TRIPOS>MOLECULE
ASD09710001
  40   39    0    0    0
SMALL
NO_CHARGES


@<TRIPOS>ATOM
   1 N1            -0.0178     1.4648     0.0101 N.3     
   2 C2             0.0021    -0.0041     0.0020 C.3     
   3 C3             0.8260    -0.5095     1.1880 C.3     
   4 C4             0.8467    -2.0393     1.1796 C.3     
   5 N5             1.6378    -2.5246     2.3184 N.3     
   6 C6             1.6799    -3.9928     2.3426 C.3     
   7 C7             2.5107    -4.4595     3.5396 C.3     
   8 C8             2.5545    -5.9886     3.5648 C.3     
   9 C9             3.3853    -6.4553     4.7619 C.3     
  10 N10            3.4274    -7.9235     4.7861 N.3     
  11 C11            4.2185    -8.4088     5.9248 C.3     
  12 C12            4.2392    -9.9386     5.9164 C.3     
  13 C13            5.0631   -10.4440     7.1024 C.3     
  14 N14            5.0831   -11.9129     7.0944 N.3     
  15 H15            0.9191     1.8392     0.0032 H       
  16 H16           -0.5563     1.8234    -0.7642 H       
  17 H17           -1.0174    -0.3817     0.0806 H       
  18 H18            0.4494    -0.3563    -0.9275 H       
  19 H19            1.8454    -0.1318     1.1095 H       
  20 H20            0.3787    -0.1573     2.1176 H       
  21 H21           -0.1727    -2.4169     1.2582 H       
  22 H22            1.2940    -2.3915     0.2501 H       
  23 H23            2.5690    -2.1363     2.3034 H       
  24 H24            0.6662    -4.3839     2.4292 H       
  25 H25            2.1330    -4.3585     1.4211 H       
  26 H26            3.5244    -4.0683     3.4530 H       
  27 H27            2.0576    -4.0937     4.4611 H       
  28 H28            1.5408    -6.3798     3.6515 H       
  29 H29            3.0076    -6.3544     2.6434 H       
  30 H30            4.3990    -6.0641     4.6752 H       
  31 H31            2.9323    -6.0896     5.6833 H       
  32 H32            2.4963    -8.3118     4.8011 H       
  33 H33            5.2380    -8.0311     5.8463 H       
  34 H34            3.7712    -8.0566     6.8543 H       
  35 H35            3.2198   -10.3162     5.9950 H       
  36 H36            4.6865   -10.2908     4.9869 H       
  37 H37            6.0826   -10.0664     7.0239 H       
  38 H38            4.6159   -10.0918     8.0320 H       
  39 H39            5.4339   -12.2649     6.2163 H       
  40 H40            5.6215   -12.2714     7.8687 H       
@<TRIPOS>BOND
   1    1    2 1
   2    1   15 1
   3    1   16 1
   4    2    3 1
   5    2   17 1
   6    2   18 1
   7    3    4 1
   8    3   19 1
   9    3   20 1
  10    4    5 1
  11    4   21 1
  12    4   22 1
  13    5    6 1
  14    5   23 1
  15    6    7 1
  16    6   24 1
  17    6   25 1
  18    7    8 1
  19    7   26 1
  20    7   27 1
  21    8    9 1
  22    8   28 1
  23    8   29 1
  24    9   10 1
  25    9   30 1
  26    9   31 1
  27   10   11 1
  28   10   32 1
  29   11   12 1
  30   11   33 1
  31   11   34 1
  32   12   13 1
  33   12   35 1
  34   12   36 1
  35   13   14 1
  36   13   37 1
  37   13   38 1
  38   14   39 1
  39   14   40 1

#	End of record

