#	Name: ASD02508167
#	Creating user name:	WinNT
#	Creation time:	15. 06. 2019 20:23

#	Modifying user name:	WinNT
#	Modification time:	15. 06. 2019 20:23

#	Program:	/corina/corina34_cracker 3.40 0067  02.08.2006

@<TRIPOS>MOLECULE
ASD02508167
  36   38    0    0    0
SMALL
NO_CHARGES


@<TRIPOS>ATOM
   1 C1            -0.0505     1.1995    -0.3041 C.ar    
   2 C2             0.9726     1.6481     0.5534 C.ar    
   3 C3             0.1747     0.0936    -1.0925 C.ar    
   4 C4             1.4213    -0.5574    -1.0180 C.ar    
   5 C5             2.4091    -0.1093    -0.1769 C.ar    
   6 C6             2.1831     1.0040     0.6150 C.ar    
   7 S7            -1.6431     1.9188    -0.4991 S.3     
   8 C8            -2.3653     0.8645    -1.6975 C.2     
   9 S9            -1.1827    -0.3589    -2.1145 S.3     
  10 S10            3.9581    -0.9460    -0.1061 S.o2    
  11 N11            4.1036    -1.5801     1.4168 N.am    
  12 C12            3.1643    -2.5079     1.8812 C.ar    
  13 O13           -3.4868     0.9661    -2.1604 O.2     
  14 O14            3.8579    -2.0516    -0.9932 O.2     
  15 O15            4.9604     0.0547    -0.2215 O.2     
  16 C16            2.7832    -2.5049     3.2216 C.ar    
  17 C17            2.6062    -3.4289     1.0073 C.ar    
  18 C18            1.6779    -4.3451     1.4690 C.ar    
  19 C19            1.3045    -4.3443     2.8008 C.ar    
  20 C20            1.8537    -3.4248     3.6762 C.ar    
  21 C21            3.2605     1.5047     1.5421 C.3     
  22 Cl22           0.9798    -5.4976     0.3743 Cl      
  23 O23            3.3238    -1.6003     4.0818 O.3     
  24 C24            2.8863    -1.6558     5.4410 C.3     
  25 H25            0.8017     2.5154     1.1739 H       
  26 H26            1.6033    -1.4257    -1.6339 H       
  27 H27            4.8398    -1.3084     1.9870 H       
  28 H28            2.8958    -3.4307    -0.0331 H       
  29 H29            0.5793    -5.0608     3.1573 H       
  30 H30            1.5600    -3.4268     4.7155 H       
  31 H31            3.9397     2.1558     0.9918 H       
  32 H32            2.8053     2.0628     2.3603 H       
  33 H33            3.8158     0.6576     1.9448 H       
  34 H34            3.3937    -0.8826     6.0179 H       
  35 H35            1.8094    -1.4928     5.4831 H       
  36 H36            3.1222    -2.6345     5.8589 H       
@<TRIPOS>BOND
   1    1    2 ar
   2    1    3 ar
   3    1    7 1
   4    2    6 ar
   5    2   25 1
   6    3    4 ar
   7    3    9 1
   8    4    5 ar
   9    4   26 1
  10    5    6 ar
  11    5   10 1
  12    6   21 1
  13    7    8 1
  14    8    9 1
  15    8   13 2
  16   10   11 am
  17   10   14 2
  18   10   15 2
  19   11   12 1
  20   11   27 1
  21   12   16 ar
  22   12   17 ar
  23   16   23 1
  24   16   20 ar
  25   17   18 ar
  26   17   28 1
  27   18   19 ar
  28   18   22 1
  29   19   20 ar
  30   19   29 1
  31   20   30 1
  32   21   31 1
  33   21   32 1
  34   21   33 1
  35   23   24 1
  36   24   34 1
  37   24   35 1
  38   24   36 1

#	End of record

