#	Name: ASD03540088
#	Creating user name:	WinNT
#	Creation time:	15. 06. 2019 20:42

#	Modifying user name:	WinNT
#	Modification time:	15. 06. 2019 20:42

#	Program:	/corina/corina34_cracker 3.40 0067  02.08.2006

@<TRIPOS>MOLECULE
ASD03540088
  46   48    0    0    0
SMALL
NO_CHARGES


@<TRIPOS>ATOM
   1 C1            -0.0180     1.4734     0.0101 C.2     
   2 C2             0.0021    -0.0041     0.0020 C.ar    
   3 C3             1.2179    -0.6852    -0.0132 C.ar    
   4 C4             1.2323    -2.0788    -0.0204 C.ar    
   5 C5             2.5189    -2.8051    -0.0361 C.2     
   6 C6             0.0294    -2.7879    -0.0122 C.ar    
   7 C7            -1.1792    -2.1067     0.0025 C.ar    
   8 C8            -1.1970    -0.7194     0.0155 C.ar    
   9 O9             1.0256     2.0950     0.0035 O.2     
  10 O10           -1.1936     2.1310     0.0193 O.3     
  11 O11            3.5649    -2.1876    -0.0428 O.2     
  12 O12            2.5320    -4.1521    -0.0430 O.3     
  13 N13           -2.3812    -2.8195     0.0102 N.pl3   
  14 C14           -1.1373     3.5819     0.0269 C.3     
  15 C15           -2.5375     4.1389     0.0366 C.ar    
  16 C16           -3.1740     4.3879     1.2381 C.ar    
  17 C17           -4.4585     4.8988     1.2470 C.ar    
  18 C18           -5.1062     5.1611     0.0543 C.ar    
  19 C19           -4.4693     4.9130    -1.1472 C.ar    
  20 C20           -3.1833     4.4062    -1.1561 C.ar    
  21 C21            3.8320    -4.7986    -0.0584 C.3     
  22 C22            3.6490    -6.2945    -0.0642 C.ar    
  23 C23            3.5539    -6.9745    -1.2639 C.ar    
  24 C24            3.3860    -8.3466    -1.2693 C.ar    
  25 C25            3.3137    -9.0387    -0.0748 C.ar    
  26 C26            3.4097    -8.3588     1.1249 C.ar    
  27 C27            3.5819    -6.9872     1.1302 C.ar    
  28 H28            2.1468    -0.1343    -0.0199 H       
  29 H29            0.0398    -3.8678    -0.0177 H       
  30 H30           -2.1395    -0.1923     0.0314 H       
  31 H31           -2.3699    -3.7894     0.0052 H       
  32 H32           -3.2268    -2.3443     0.0205 H       
  33 H33           -0.6055     3.9202     0.9162 H       
  34 H34           -0.6139     3.9299    -0.8637 H       
  35 H35           -2.6680     4.1829     2.1700 H       
  36 H36           -4.9561     5.0926     2.1858 H       
  37 H37           -6.1100     5.5596     0.0612 H       
  38 H38           -4.9755     5.1177    -2.0791 H       
  39 H39           -2.6843     4.2158    -2.0948 H       
  40 H40            4.3778    -4.4959    -0.9520 H       
  41 H41            4.3944    -4.5048     0.8279 H       
  42 H42            3.6104    -6.4338    -2.1971 H       
  43 H43            3.3109    -8.8778    -2.2066 H       
  44 H44            3.1818   -10.1107    -0.0790 H       
  45 H45            3.3529    -8.8995     2.0581 H       
  46 H46            3.6607    -6.4565     2.0674 H       
@<TRIPOS>BOND
   1    1    2 1
   2    1    9 2
   3    1   10 1
   4    2    3 ar
   5    2    8 ar
   6    3    4 ar
   7    3   28 1
   8    4    5 1
   9    4    6 ar
  10    5   11 2
  11    5   12 1
  12    6    7 ar
  13    6   29 1
  14    7    8 ar
  15    7   13 1
  16    8   30 1
  17   10   14 1
  18   12   21 1
  19   13   31 1
  20   13   32 1
  21   14   15 1
  22   14   33 1
  23   14   34 1
  24   15   16 ar
  25   15   20 ar
  26   16   17 ar
  27   16   35 1
  28   17   18 ar
  29   17   36 1
  30   18   19 ar
  31   18   37 1
  32   19   20 ar
  33   19   38 1
  34   20   39 1
  35   21   22 1
  36   21   40 1
  37   21   41 1
  38   22   23 ar
  39   22   27 ar
  40   23   24 ar
  41   23   42 1
  42   24   25 ar
  43   24   43 1
  44   25   26 ar
  45   25   44 1
  46   26   27 ar
  47   26   45 1
  48   27   46 1

#	End of record

