#	Name: ASD03430501
#	Creating user name:	WinNT
#	Creation time:	15. 06. 2019 20:41

#	Modifying user name:	WinNT
#	Modification time:	15. 06. 2019 20:41

#	Program:	/corina/corina34_cracker 3.40 0067  02.08.2006

@<TRIPOS>MOLECULE
ASD03430501
  48   53    0    0    0
SMALL
NO_CHARGES


@<TRIPOS>ATOM
   1 C1             0.0021    -0.0041     0.0020 C.1     
   2 C2            -0.0173     1.4278     0.0099 C.ar    
   3 C3             1.1806     2.1456     0.0023 C.ar    
   4 C4             1.1545     3.5246     0.0100 C.ar    
   5 C5            -0.0549     4.1969     0.0252 C.ar    
   6 C6            -1.2453     3.4921     0.0333 C.ar    
   7 C7            -1.2340     2.1125     0.0194 C.ar    
   8 N8             0.0175    -1.1399    -0.0042 N.1     
   9 C9             2.4462     4.3009     0.0023 C.3     
  10 O10            3.8363     6.8695    -5.1836 O.3     
  11 C11            2.6075     6.3934    -5.5330 C.ar    
  12 C12            2.0923     5.5572    -4.5453 C.ar    
  13 C13            3.1117     5.5199    -3.4393 C.3     
  14 C14            4.0254     6.7096    -3.7647 C.3     
  15 O15           -0.2688     6.1330    -7.8797 O.3     
  16 C16            0.6135     6.0319    -6.8472 C.ar    
  17 C17            0.1278     5.1918    -5.8530 C.ar    
  18 C18           -1.2233     4.6853    -6.3183 C.3     
  19 C19           -1.1921     5.0325    -7.8256 C.3     
  20 C20            0.8612     4.9596    -4.7099 C.ar    
  21 C21            1.8590     6.6266    -6.6799 C.ar    
  22 N22            2.8520     4.5599    -1.3813 N.am    
  23 C23            2.4848     5.6518    -2.0813 C.2     
  24 C24            3.8699     4.2263    -3.4032 C.ar    
  25 C25            4.6452     3.5521    -4.3201 C.ar    
  26 C26            5.2294     2.3452    -3.9795 C.ar    
  27 C27            5.0326     1.8173    -2.7164 C.ar    
  28 C28            4.2567     2.4886    -1.7946 C.ar    
  29 C29            3.6653     3.7046    -2.1285 C.ar    
  30 O30            1.7856     6.5626    -1.6905 O.2     
  31 H31            2.1252     1.6221    -0.0092 H       
  32 H32           -0.0695     5.2768     0.0312 H       
  33 H33           -2.1857     4.0231     0.0458 H       
  34 H34           -2.1640     1.5636     0.0208 H       
  35 H35            2.3039     5.2481     0.5226 H       
  36 H36            3.2207     3.7225     0.5060 H       
  37 H37            5.0648     6.4731    -3.5370 H       
  38 H38            3.7041     7.6025    -3.2284 H       
  39 H39           -1.3088     3.6091    -6.1681 H       
  40 H40           -2.0323     5.2132    -5.8135 H       
  41 H41           -2.1791     5.3391    -8.1718 H       
  42 H42           -0.8220     4.1891    -8.4086 H       
  43 H43            0.4711     4.3082    -3.9419 H       
  44 H44            2.2485     7.2767    -7.4493 H       
  45 H45            4.7975     3.9660    -5.3059 H       
  46 H46            5.8376     1.8163    -4.6984 H       
  47 H47            5.4886     0.8751    -2.4506 H       
  48 H48            4.1068     2.0696    -0.8105 H       
@<TRIPOS>BOND
   1    1    2 1
   2    1    8 3
   3    2    3 ar
   4    2    7 ar
   5    3    4 ar
   6    3   31 1
   7    4    5 ar
   8    4    9 1
   9    5    6 ar
  10    5   32 1
  11    6    7 ar
  12    6   33 1
  13    7   34 1
  14    9   22 1
  15    9   35 1
  16    9   36 1
  17   10   11 1
  18   10   14 1
  19   11   12 ar
  20   11   21 ar
  21   12   13 1
  22   12   20 ar
  23   13   14 1
  24   13   23 1
  25   13   24 1
  26   14   37 1
  27   14   38 1
  28   15   16 1
  29   15   19 1
  30   16   17 ar
  31   16   21 ar
  32   17   18 1
  33   17   20 ar
  34   18   19 1
  35   18   39 1
  36   18   40 1
  37   19   41 1
  38   19   42 1
  39   20   43 1
  40   21   44 1
  41   22   23 am
  42   22   29 1
  43   23   30 2
  44   24   25 ar
  45   24   29 ar
  46   25   26 ar
  47   25   45 1
  48   26   27 ar
  49   26   46 1
  50   27   28 ar
  51   27   47 1
  52   28   29 ar
  53   28   48 1

#	End of record

