#	Name: ASD01881861
#	Creating user name:	WinNT
#	Creation time:	15. 06. 2019 19:43

#	Modifying user name:	WinNT
#	Modification time:	15. 06. 2019 19:43

#	Program:	/corina/corina34_cracker 3.40 0067  02.08.2006

@<TRIPOS>MOLECULE
ASD01881861
  44   48    0    0    0
SMALL
NO_CHARGES


@<TRIPOS>ATOM
   1 C1            -0.0336     1.5238     0.0371 C.3     
   2 C2            -0.0078    -0.0068     0.0214 C.3     
   3 C3             1.2987     0.7806     0.0076 C.3     
   4 C4             2.0963     0.8087    -1.2777 C.2     
   5 C5             3.2600     1.7780    -1.3491 C.3     
   6 C6             4.0907     1.6287    -0.0706 C.3     
   7 C7             3.2122     1.8860     1.1538 C.3     
   8 C8             2.1555     0.7834     1.2773 C.3     
   9 O9             1.8182     0.0894    -2.2070 O.2     
  10 O10            4.0261     1.8974     2.3283 O.3     
  11 N11            6.5641     6.5083     3.8455 N.pl3   
  12 N12            7.0688     6.0151     5.0579 N.2     
  13 N13            6.7055     4.7901     5.2061 N.2     
  14 C14            5.9651     4.3902     4.1531 C.ar    
  15 C15            5.8610     5.4764     3.2669 C.ar    
  16 C16            5.3400     3.1787     3.8272 C.ar    
  17 C17            4.6339     3.0714     2.6469 C.ar    
  18 C18            4.5394     4.1566     1.7790 C.ar    
  19 C19            5.1447     5.3435     2.0827 C.ar    
  20 C20            6.7447     7.8579     3.3048 C.3     
  21 C21            8.0072     7.8967     2.4414 C.3     
  22 C22            8.3083     9.1940     1.6883 C.3     
  23 C23            9.1513     8.8014     2.9032 C.3     
  24 Br24           5.4631     1.6999     4.9994 Br      
  25 H25           -0.3472     2.0315    -0.8750 H       
  26 H26           -0.3167     2.0131     0.9691 H       
  27 H27           -0.2740    -0.5243     0.9430 H       
  28 H28           -0.3046    -0.5059    -0.9011 H       
  29 H29            3.8773     1.5473    -2.2173 H       
  30 H30            2.8840     2.7982    -1.4257 H       
  31 H31            4.4972     0.6187    -0.0188 H       
  32 H32            4.9104     2.3471    -0.0855 H       
  33 H33            2.7175     2.8515     1.0481 H       
  34 H34            1.5240     0.9776     2.1443 H       
  35 H35            2.6469    -0.1831     1.3890 H       
  36 H36            3.9839     4.0590     0.8580 H       
  37 H37            5.0658     6.1790     1.4030 H       
  38 H38            5.8802     8.1243     2.6967 H       
  39 H39            6.8440     8.5679     4.1259 H       
  40 H40            8.2723     6.9585     1.9539 H       
  41 H41            8.7720     9.1093     0.7054 H       
  42 H42            7.6070    10.0198     1.8079 H       
  43 H43            9.0047     9.3689     3.8222 H       
  44 H44           10.1696     8.4584     2.7197 H       
@<TRIPOS>BOND
   1    1    2 1
   2    1    3 1
   3    1   25 1
   4    1   26 1
   5    2    3 1
   6    2   27 1
   7    2   28 1
   8    3    4 1
   9    3    8 1
  10    4    5 1
  11    4    9 2
  12    5    6 1
  13    5   29 1
  14    5   30 1
  15    6    7 1
  16    6   31 1
  17    6   32 1
  18    7    8 1
  19    7   10 1
  20    7   33 1
  21    8   34 1
  22    8   35 1
  23   10   17 1
  24   11   12 1
  25   11   15 1
  26   11   20 1
  27   12   13 2
  28   13   14 1
  29   14   15 ar
  30   14   16 ar
  31   15   19 ar
  32   16   17 ar
  33   16   24 1
  34   17   18 ar
  35   18   19 ar
  36   18   36 1
  37   19   37 1
  38   20   21 1
  39   20   38 1
  40   20   39 1
  41   21   22 1
  42   21   23 1
  43   21   40 1
  44   22   23 1
  45   22   41 1
  46   22   42 1
  47   23   43 1
  48   23   44 1

#	End of record

