#	Name: ASD04220026
#	Creating user name:	WinNT
#	Creation time:	15. 06. 2019 20:48

#	Modifying user name:	WinNT
#	Modification time:	15. 06. 2019 20:48

#	Program:	/corina/corina34_cracker 3.40 0067  02.08.2006

@<TRIPOS>MOLECULE
ASD04220026
  46   48    0    0    0
SMALL
NO_CHARGES


@<TRIPOS>ATOM
   1 C1             0.0501     1.6663    -0.0415 C.3     
   2 N2            -0.0574     0.2109     0.1048 N.am    
   3 C3             0.7951    -0.6197    -0.7621 C.3     
   4 C4             2.2513    -0.3433    -0.3912 C.3     
   5 C5             2.5094     1.1378    -0.2981 C.ar    
   6 C6             3.8291     1.5665    -0.3857 C.ar    
   7 C7             4.1400     2.9103    -0.2989 C.ar    
   8 C8             3.1220     3.8430    -0.1216 C.ar    
   9 C9             1.8104     3.4137    -0.0390 C.ar    
  10 C10            1.5029     2.0623    -0.1302 C.ar    
  11 C11            0.4805    -2.0769    -0.5417 C.2     
  12 O12            1.1360    -2.7251     0.2393 O.2     
  13 O13           -0.5281    -2.6547    -1.2130 O.3     
  14 O14            3.4157     5.1677    -0.0299 O.3     
  15 O15            5.4341     3.3193    -0.3856 O.3     
  16 C16           -0.9018    -0.3438     0.9968 C.2     
  17 C17           -1.6718     0.5323     1.9511 C.3     
  18 C18           -2.5505    -0.3409     2.8491 C.3     
  19 O19           -1.0421    -1.5480     1.0315 O.2     
  20 C20           -3.3204     0.5352     3.8034 C.ar    
  21 C21           -4.5218     1.1044     3.4070 C.ar    
  22 C22           -5.2305     1.9101     4.2853 C.ar    
  23 C23           -4.7404     2.1457     5.5553 C.ar    
  24 C24           -3.5397     1.5763     5.9518 C.ar    
  25 C25           -2.8329     0.7668     5.0747 C.ar    
  26 O26           -3.0572     1.8082     7.2019 O.3     
  27 O27           -5.0042     0.8725     2.1569 O.3     
  28 H28           -0.4670     1.9788    -0.9487 H       
  29 H29           -0.4062     2.1522     0.8209 H       
  30 H30            0.6246    -0.3586    -1.8065 H       
  31 H31            2.4702    -0.8065     0.5709 H       
  32 H32            2.9028    -0.7736    -1.1518 H       
  33 H33            4.6187     0.8425    -0.5227 H       
  34 H34            1.0184     4.1350     0.0980 H       
  35 H35           -0.6919    -3.5915    -1.0383 H       
  36 H36            3.4200     5.6293    -0.8796 H       
  37 H37            5.7256     3.5134    -1.2870 H       
  38 H38           -0.9740     1.0998     2.5668 H       
  39 H39           -2.3004     1.2204     1.3860 H       
  40 H40           -3.2483    -0.9085     2.2334 H       
  41 H41           -1.9219    -1.0290     3.4142 H       
  42 H42           -6.1655     2.3538     3.9765 H       
  43 H43           -5.2922     2.7735     6.2393 H       
  44 H44           -1.8998     0.3200     5.3848 H       
  45 H45           -3.3524     1.1668     7.8626 H       
  46 H46           -5.5782     0.0968     2.0945 H       
@<TRIPOS>BOND
   1    1    2 1
   2    1   10 1
   3    1   28 1
   4    1   29 1
   5    2    3 1
   6    2   16 am
   7    3    4 1
   8    3   11 1
   9    3   30 1
  10    4    5 1
  11    4   31 1
  12    4   32 1
  13    5    6 ar
  14    5   10 ar
  15    6    7 ar
  16    6   33 1
  17    7    8 ar
  18    7   15 1
  19    8    9 ar
  20    8   14 1
  21    9   10 ar
  22    9   34 1
  23   11   12 2
  24   11   13 1
  25   13   35 1
  26   14   36 1
  27   15   37 1
  28   16   17 1
  29   16   19 2
  30   17   18 1
  31   17   38 1
  32   17   39 1
  33   18   20 1
  34   18   40 1
  35   18   41 1
  36   20   21 ar
  37   20   25 ar
  38   21   22 ar
  39   21   27 1
  40   22   23 ar
  41   22   42 1
  42   23   24 ar
  43   23   43 1
  44   24   25 ar
  45   24   26 1
  46   25   44 1
  47   26   45 1
  48   27   46 1

#	End of record

