#	Name: ASD01202003
#	Creating user name:	WinNT
#	Creation time:	15. 06. 2019 19:09

#	Modifying user name:	WinNT
#	Modification time:	15. 06. 2019 19:09

#	Program:	/corina/corina34_cracker 3.40 0067  02.08.2006

@<TRIPOS>MOLECULE
ASD01202003
  32   34    0    0    0
SMALL
NO_CHARGES


@<TRIPOS>ATOM
   1 C1            -0.0175     1.4401     0.0100 C.2     
   2 C2             0.0021    -0.0041     0.0020 C.2     
   3 C3             1.2266     1.9902     0.0010 C.2     
   4 C4            -1.2560     2.2348     0.0203 C.2     
   5 C5             1.2303    -0.5079    -0.0124 C.2     
   6 S6             2.4247     0.7780    -0.0169 S.3     
   7 O7            -2.3368     1.6766     0.0226 O.2     
   8 N8            -1.1928     3.5810     0.0273 N.am    
   9 C9             1.5540    -1.9797    -0.0230 C.3     
  10 C10           -2.3619     4.3312     0.0371 C.2     
  11 N11           -3.5574     3.8395     0.0459 N.2     
  12 S12           -2.4296     6.0388     0.0467 S.3     
  13 C13           -4.5748     4.6924     0.0552 C.2     
  14 C14           -4.1874     5.9796     0.0558 C.2     
  15 C15           -6.0378     4.2748     0.0654 C.3     
  16 C16           -5.1181     7.1690     0.0670 C.3     
  17 C17           -6.8867     5.4680     0.5093 C.3     
  18 C18           -6.5206     6.6961    -0.3312 C.3     
  19 H19           -0.3309     4.0261     0.0255 H       
  20 H20           -0.8908    -0.6117     0.0076 H       
  21 H21            1.4280     3.0513     0.0045 H       
  22 H22            1.6220    -2.3294    -1.0531 H       
  23 H23            2.5061    -2.1460     0.4808 H       
  24 H24            0.7678    -2.5284     0.4958 H       
  25 H25           -6.3368     3.9660    -0.9363 H       
  26 H26           -6.1770     3.4480     0.7619 H       
  27 H27           -5.1485     7.6036     1.0662 H       
  28 H28           -4.7661     7.9129    -0.6478 H       
  29 H29           -7.9424     5.2343     0.3716 H       
  30 H30           -6.6953     5.6789     1.5614 H       
  31 H31           -7.2409     7.4924    -0.1441 H       
  32 H32           -6.5306     6.4344    -1.3893 H       
@<TRIPOS>BOND
   1    1    2 1
   2    1    3 2
   3    1    4 1
   4    2    5 2
   5    2   20 1
   6    3    6 1
   7    3   21 1
   8    4    7 2
   9    4    8 am
  10    5    6 1
  11    5    9 1
  12    8   10 1
  13    8   19 1
  14    9   22 1
  15    9   23 1
  16    9   24 1
  17   10   12 1
  18   10   11 2
  19   11   13 1
  20   12   14 1
  21   13   14 2
  22   13   15 1
  23   14   16 1
  24   15   17 1
  25   15   25 1
  26   15   26 1
  27   16   18 1
  28   16   27 1
  29   16   28 1
  30   17   18 1
  31   17   29 1
  32   17   30 1
  33   18   31 1
  34   18   32 1

#	End of record

