#	Name: ASD01910543
#	Creating user name:	WinNT
#	Creation time:	15. 06. 2019 19:56

#	Modifying user name:	WinNT
#	Modification time:	15. 06. 2019 19:56

#	Program:	/corina/corina34_cracker 3.40 0067  02.08.2006

@<TRIPOS>MOLECULE
ASD01910543
  41   44    0    0    0
SMALL
NO_CHARGES


@<TRIPOS>ATOM
   1 O1            -0.0747     2.9346     0.8000 O.3     
   2 C2            -0.1591     1.8809    -0.0298 C.2     
   3 N3             1.0838     1.5542    -0.3528 N.2     
   4 C4             1.8653     2.4280     0.2986 C.2     
   5 N5             1.0898     3.2269     0.9712 N.2     
   6 C6            -1.3880     1.2206    -0.4884 C.2     
   7 C7            -2.6758     1.5696    -0.1455 C.2     
   8 C8            -3.5338     0.6800    -0.8048 C.2     
   9 C9            -2.7703    -0.1771    -1.5225 C.2     
  10 N10           -1.4620     0.1457    -1.3426 N.pl3   
  11 C11            3.9265     2.2823     1.6730 C.3     
  12 C12            3.3710     2.4758     0.2585 C.3     
  13 C13            3.8248     3.8337    -0.2821 C.3     
  14 C14            5.3530     3.8712    -0.3541 C.3     
  15 C15            5.9310     3.6935     1.0534 C.3     
  16 N16            5.3844     2.4609     1.6370 N.am    
  17 C17            6.2049     1.5118     2.1295 C.2     
  18 C18            7.6645     1.6473     1.9760 C.2     
  19 O19            5.7408     0.5435     2.7006 O.2     
  20 Cl20          -5.2676     0.6768    -0.7167 Cl      
  21 C21            8.4263     2.0767     0.7930 C.2     
  22 N22            9.6747     2.0327     1.1535 N.2     
  23 O23            9.8088     1.6689     2.2961 O.3     
  24 C24            8.6489     1.4096     2.9040 C.2     
  25 C25            8.4581     0.9389     4.3228 C.3     
  26 H26           -2.9687     2.3771     0.5092 H       
  27 H27           -3.1400    -0.9824    -2.1399 H       
  28 H28           -0.7063    -0.3104    -1.7447 H       
  29 H29            3.4845     3.0196     2.3432 H       
  30 H30            3.6899     1.2779     2.0243 H       
  31 H31            3.7435     1.6830    -0.3902 H       
  32 H32            3.4105     3.9845    -1.2790 H       
  33 H33            3.4729     4.6244     0.3805 H       
  34 H34            5.7068     3.0652    -0.9970 H       
  35 H35            5.6746     4.8298    -0.7611 H       
  36 H36            7.0170     3.6203     0.9959 H       
  37 H37            5.6525     4.5459     1.6731 H       
  38 H38            8.0324     2.3667    -0.1698 H       
  39 H39            9.4302     0.8340     4.8047 H       
  40 H40            7.8582     1.6665     4.8695 H       
  41 H41            7.9479    -0.0243     4.3206 H       
@<TRIPOS>BOND
   1    1    2 1
   2    1    5 1
   3    2    3 2
   4    2    6 1
   5    3    4 1
   6    4    5 2
   7    4   12 1
   8    6    7 2
   9    6   10 1
  10    7    8 1
  11    7   26 1
  12    8    9 2
  13    8   20 1
  14    9   10 1
  15    9   27 1
  16   10   28 1
  17   11   12 1
  18   11   16 1
  19   11   29 1
  20   11   30 1
  21   12   13 1
  22   12   31 1
  23   13   14 1
  24   13   32 1
  25   13   33 1
  26   14   15 1
  27   14   34 1
  28   14   35 1
  29   15   16 1
  30   15   36 1
  31   15   37 1
  32   16   17 am
  33   17   18 1
  34   17   19 2
  35   18   21 1
  36   18   24 2
  37   21   22 2
  38   21   38 1
  39   22   23 1
  40   23   24 1
  41   24   25 1
  42   25   39 1
  43   25   40 1
  44   25   41 1

#	End of record

