#	Name: ASD01328034
#	Creating user name:	WinNT
#	Creation time:	15. 06. 2019 19:16

#	Modifying user name:	WinNT
#	Modification time:	15. 06. 2019 19:16

#	Program:	/corina/corina34_cracker 3.40 0067  02.08.2006

@<TRIPOS>MOLECULE
ASD01328034
  57   58    0    0    0
SMALL
NO_CHARGES


@<TRIPOS>ATOM
   1 C1            -0.6767    -0.4140     1.2555 C.2     
   2 C2             1.4752    -0.3737     0.0240 C.3     
   3 O3             2.1436     0.1282    -1.1634 O.3     
   4 C4             1.6223    -1.8953     0.0873 C.3     
   5 O5             0.9196    -2.4965    -1.0321 O.3     
   6 C6             3.0824    -2.2621     0.0193 C.2     
   7 C7            -0.0090    -0.0067    -0.0327 C.3     
   8 O8            -0.0133    -0.8374     2.1722 O.2     
   9 O9            -2.0079    -0.3013     1.3863 O.3     
  10 O10            3.5061    -2.8822    -0.9272 O.2     
  11 O11            3.9123    -1.8998     1.0102 O.3     
  12 C12            0.4103    -3.7240    -0.8436 C.2     
  13 C13           -0.3321    -4.4114    -1.9604 C.3     
  14 C14           -0.8050    -5.7874    -1.4872 C.3     
  15 O15            0.5472    -4.2778     0.2215 O.2     
  16 C16           -1.5475    -6.4748    -2.6040 C.ar    
  17 C17           -0.8613    -7.2743    -3.4994 C.ar    
  18 C18           -1.5396    -7.9056    -4.5240 C.ar    
  19 C19           -2.9105    -7.7367    -4.6542 C.ar    
  20 C20           -3.5967    -6.9340    -3.7545 C.ar    
  21 C21           -2.9146    -6.3095    -2.7282 C.ar    
  22 O22           -3.5800    -8.3563    -5.6616 O.3     
  23 C23            2.5855     1.3950    -1.1243 C.2     
  24 C24            3.1766     2.0252    -2.3590 C.3     
  25 C25            3.5984     3.4623    -2.0461 C.3     
  26 O26            2.5095     2.0301    -0.0992 O.2     
  27 C27            4.1895     4.0925    -3.2808 C.ar    
  28 C28            3.3736     4.7701    -4.1679 C.ar    
  29 C29            3.9130     5.3486    -5.3005 C.ar    
  30 C30            5.2746     5.2493    -5.5474 C.ar    
  31 C31            6.0911     4.5689    -4.6558 C.ar    
  32 C32            5.5477     3.9969    -3.5218 C.ar    
  33 O33            5.8075     5.8172    -6.6611 O.3     
  34 H34            1.9262     0.0721     0.9106 H       
  35 H35            1.1986    -2.2627     1.0219 H       
  36 H36           -0.4803    -0.5269    -0.8665 H       
  37 H37           -0.1122     1.0696    -0.1708 H       
  38 H38           -2.3907    -0.5752     2.2310 H       
  39 H39            4.8401    -2.1578     0.9221 H       
  40 H40           -1.1945    -3.8098    -2.2476 H       
  41 H41            0.3301    -4.5299    -2.8180 H       
  42 H42            0.0573    -6.3890    -1.2000 H       
  43 H43           -1.4673    -5.6689    -0.6296 H       
  44 H44            0.2059    -7.4052    -3.3979 H       
  45 H45           -1.0032    -8.5297    -5.2234 H       
  46 H46           -4.6638    -6.8010    -3.8537 H       
  47 H47           -3.4491    -5.6883    -2.0247 H       
  48 H48           -3.9094    -9.2360    -5.4322 H       
  49 H49            4.0473     1.4523    -2.6781 H       
  50 H50            2.4330     2.0302    -3.1560 H       
  51 H51            2.7278     4.0352    -1.7270 H       
  52 H52            4.3421     3.4573    -1.2492 H       
  53 H53            2.3137     4.8468    -3.9754 H       
  54 H54            3.2753     5.8775    -5.9933 H       
  55 H55            7.1513     4.4902    -4.8458 H       
  56 H56            6.1836     3.4712    -2.8249 H       
  57 H57            6.0976     6.7312    -6.5362 H       
@<TRIPOS>BOND
   1    1    7 1
   2    1    8 2
   3    1    9 1
   4    2    3 1
   5    2    4 1
   6    2    7 1
   7    2   34 1
   8    3   23 1
   9    4    5 1
  10    4    6 1
  11    4   35 1
  12    5   12 1
  13    6   10 2
  14    6   11 1
  15    7   36 1
  16    7   37 1
  17    9   38 1
  18   11   39 1
  19   12   13 1
  20   12   15 2
  21   13   14 1
  22   13   40 1
  23   13   41 1
  24   14   16 1
  25   14   42 1
  26   14   43 1
  27   16   17 ar
  28   16   21 ar
  29   17   18 ar
  30   17   44 1
  31   18   19 ar
  32   18   45 1
  33   19   20 ar
  34   19   22 1
  35   20   21 ar
  36   20   46 1
  37   21   47 1
  38   22   48 1
  39   23   24 1
  40   23   26 2
  41   24   25 1
  42   24   49 1
  43   24   50 1
  44   25   27 1
  45   25   51 1
  46   25   52 1
  47   27   28 ar
  48   27   32 ar
  49   28   29 ar
  50   28   53 1
  51   29   30 ar
  52   29   54 1
  53   30   31 ar
  54   30   33 1
  55   31   32 ar
  56   31   55 1
  57   32   56 1
  58   33   57 1

#	End of record

