#	Name: ASD00840780
#	Creating user name:	WinNT
#	Creation time:	15. 06. 2019 18:40

#	Modifying user name:	WinNT
#	Modification time:	15. 06. 2019 18:40

#	Program:	/corina/corina34_cracker 3.40 0067  02.08.2006

@<TRIPOS>MOLECULE
ASD00840780
  94   99    0    0    0
SMALL
NO_CHARGES


@<TRIPOS>ATOM
   1 F1             6.0660    -1.9522    -2.0296 F       
   2 N2             1.0627     1.4585    -0.7562 N.ar    
   3 C3             1.3243     0.1665    -0.8621 C.ar    
   4 C4             1.2443    -0.6652     0.2478 C.ar    
   5 C5             0.8864    -0.1241     1.4701 C.ar    
   6 C6             0.6199     1.2366     1.5393 C.ar    
   7 C7             0.7190     2.0033     0.3956 C.ar    
   8 C8             1.5428    -2.1370     0.1223 C.3     
   9 C9             1.2606    -2.8486     1.4283 C.2     
  10 C10            0.7225    -2.7539    -1.0124 C.3     
  11 C11           -0.7395    -2.4632    -0.7910 C.2     
  12 N12           -1.6637    -2.9847    -1.6219 N.am    
  13 O13           -1.0845    -1.7598     0.1349 O.2     
  14 C14           -3.0810    -2.6217    -1.4875 C.3     
  15 C15           -3.9096    -3.9048    -1.3697 C.3     
  16 C16           -3.6043    -4.8156    -2.5611 C.3     
  17 C17           -2.1217    -5.1951    -2.5484 C.3     
  18 C18           -1.2721    -3.9223    -2.6831 C.3     
  19 C19           -4.4558    -6.0831    -2.4650 C.3     
  20 C20           -5.9395    -5.7051    -2.4793 C.3     
  21 C21           -6.7859    -6.9796    -2.4445 C.3     
  22 N22           -6.4639    -7.8146    -3.6087 N.3     
  23 C23           -5.0553    -8.2292    -3.5915 C.3     
  24 C24           -4.1572    -6.9920    -3.6606 C.3     
  25 C25           -7.3549    -8.9802    -3.6832 C.3     
  26 O26            0.1885    -2.9241     1.9905 O.2     
  27 N27            2.4207    -3.3815     1.8473 N.am    
  28 C28            3.0200    -2.3600    -0.1066 C.ar    
  29 C29            3.4730    -3.1132     0.9694 C.ar    
  30 C30            3.8807    -1.9712    -1.1081 C.ar    
  31 C31            5.2176    -2.3319    -1.0492 C.ar    
  32 C32            5.6810    -3.0831     0.0190 C.ar    
  33 C33            4.8176    -3.4730     1.0236 C.ar    
  34 Cl34           7.3551    -3.5360     0.0948 Cl      
  35 C35            2.2912    -5.9450     2.8405 C.ar    
  36 C36            1.0374    -6.3472     2.4045 C.ar    
  37 C37            3.3120    -6.8694     2.9521 C.ar    
  38 C38            3.0846    -8.1943     2.6292 C.ar    
  39 C39            1.8355    -8.5978     2.1943 C.ar    
  40 C40            0.8116    -7.6776     2.0815 C.ar    
  41 H41            1.6603    -9.6334     1.9427 H       
  42 O42            0.0316    -5.4399     2.2943 O.3     
  43 C43           -1.2330    -5.9253     1.8390 C.3     
  44 C44           -7.0729    -9.7562    -4.9714 C.3     
  45 C45           -7.1087    -9.8882    -2.4766 C.3     
  46 S46            2.5840    -4.2551     3.2446 S.o2    
  47 O47            3.9520    -4.1630     3.6179 O.2     
  48 O48            1.5178    -3.8554     4.0947 O.2     
  49 O49            1.6736    -0.3519    -2.0663 O.3     
  50 C50            2.1650    -0.1930    -4.4272 C.3     
  51 C51            1.6302     0.5304    -3.1896 C.3     
  52 H52            0.8157    -0.7462     2.3501 H       
  53 H53            0.3376     1.6905     2.4778 H       
  54 H54            0.5131     3.0623     0.4441 H       
  55 H55            1.0382    -2.3254    -1.9636 H       
  56 H56            0.8799    -3.8324    -1.0297 H       
  57 H57           -3.2194    -2.0140    -0.5933 H       
  58 H58           -3.3994    -2.0605    -2.3660 H       
  59 H59           -3.6538    -4.4193    -0.4435 H       
  60 H60           -4.9703    -3.6538    -1.3661 H       
  61 H61           -3.8370    -4.2914    -3.4880 H       
  62 H62           -1.8828    -5.6975    -1.6111 H       
  63 H63           -1.9099    -5.8626    -3.3837 H       
  64 H64           -1.4442    -3.4698    -3.6597 H       
  65 H65           -0.2171    -4.1742    -2.5756 H       
  66 H66           -4.2228    -6.6092    -1.5392 H       
  67 H67           -6.1675    -5.0929    -1.6067 H       
  68 H68           -6.1634    -5.1442    -3.3867 H       
  69 H69           -6.5716    -7.5331    -1.5302 H       
  70 H70           -7.8429    -6.7144    -2.4689 H       
  71 H71           -4.8491    -8.7768    -2.6719 H       
  72 H72           -4.8552    -8.8715    -4.4491 H       
  73 H73           -4.3531    -6.4513    -4.5866 H       
  74 H74           -3.1117    -7.2991    -3.6321 H       
  75 H75           -8.3922    -8.6454    -3.6804 H       
  76 H76            3.5147    -1.3861    -1.9388 H       
  77 H77            5.1856    -4.0584     1.8532 H       
  78 H78            4.2884    -6.5567     3.2915 H       
  79 H79            3.8840    -8.9152     2.7165 H       
  80 H80           -0.1640    -7.9934     1.7424 H       
  81 H81           -1.1195    -6.3588     0.8454 H       
  82 H82           -1.5994    -6.6865     2.5278 H       
  83 H83           -1.9447    -5.1008     1.7965 H       
  84 H84           -7.2483    -9.1093    -5.8310 H       
  85 H85           -6.0356   -10.0909    -4.9742 H       
  86 H86           -7.7340   -10.6210    -5.0266 H       
  87 H87           -7.3096    -9.3354    -1.5589 H       
  88 H88           -7.7698   -10.7531    -2.5319 H       
  89 H89           -6.0714   -10.2230    -2.4795 H       
  90 H90            3.1622    -0.5807    -4.2188 H       
  91 H91            1.5000    -1.0184    -4.6813 H       
  92 H92            2.2138     0.5048    -5.2631 H       
  93 H93            0.6009     0.8419    -3.3673 H       
  94 H94            2.2453     1.4071    -2.9870 H       
@<TRIPOS>BOND
   1    1   31 1
   2    2    3 ar
   3    2    7 ar
   4    3    4 ar
   5    3   49 1
   6    4    5 ar
   7    4    8 1
   8    5    6 ar
   9    5   52 1
  10    6    7 ar
  11    6   53 1
  12    7   54 1
  13    8    9 1
  14    8   10 1
  15    8   28 1
  16    9   26 2
  17    9   27 am
  18   10   11 1
  19   10   55 1
  20   10   56 1
  21   11   12 am
  22   11   13 2
  23   12   14 1
  24   12   18 1
  25   14   15 1
  26   14   57 1
  27   14   58 1
  28   15   16 1
  29   15   59 1
  30   15   60 1
  31   16   17 1
  32   16   19 1
  33   16   61 1
  34   17   18 1
  35   17   62 1
  36   17   63 1
  37   18   64 1
  38   18   65 1
  39   19   20 1
  40   19   24 1
  41   19   66 1
  42   20   21 1
  43   20   67 1
  44   20   68 1
  45   21   22 1
  46   21   69 1
  47   21   70 1
  48   22   23 1
  49   22   25 1
  50   23   24 1
  51   23   71 1
  52   23   72 1
  53   24   73 1
  54   24   74 1
  55   25   44 1
  56   25   45 1
  57   25   75 1
  58   27   46 am
  59   27   29 1
  60   28   29 ar
  61   28   30 ar
  62   29   33 ar
  63   30   31 ar
  64   30   76 1
  65   31   32 ar
  66   32   33 ar
  67   32   34 1
  68   33   77 1
  69   35   36 ar
  70   35   37 ar
  71   35   46 1
  72   36   42 1
  73   36   40 ar
  74   37   38 ar
  75   37   78 1
  76   38   39 ar
  77   38   79 1
  78   39   40 ar
  79   39   41 1
  80   40   80 1
  81   42   43 1
  82   43   81 1
  83   43   82 1
  84   43   83 1
  85   44   84 1
  86   44   85 1
  87   44   86 1
  88   45   87 1
  89   45   88 1
  90   45   89 1
  91   46   47 2
  92   46   48 2
  93   49   51 1
  94   50   51 1
  95   50   90 1
  96   50   91 1
  97   50   92 1
  98   51   93 1
  99   51   94 1

#	End of record

