#	Name: ASD01917188
#	Creating user name:	WinNT
#	Creation time:	15. 06. 2019 20:08

#	Modifying user name:	WinNT
#	Modification time:	15. 06. 2019 20:08

#	Program:	/corina/corina34_cracker 3.40 0067  02.08.2006

@<TRIPOS>MOLECULE
ASD01917188
  79   84    0    0    0
SMALL
NO_CHARGES


@<TRIPOS>ATOM
   1 C1            -1.6192     1.6854     1.7182 C.2     
   2 N2            -1.5049     0.4502     1.2799 N.2     
   3 N3            -2.8019    -0.0849     1.2233 N.pl3   
   4 C4            -3.6380     0.8928     1.6440 C.2     
   5 N5            -2.9112     1.9489     1.9428 N.2     
   6 C6            -0.4961     2.6311     1.9344 C.ar    
   7 C7            -0.7473     3.9186     2.4042 C.ar    
   8 C8             0.8133     2.2320     1.6736 C.ar    
   9 C9             1.8546     3.1142     1.8764 C.ar    
  10 C10            1.5998     4.3952     2.3387 C.ar    
  11 C11           -3.1762    -1.4346     0.7938 C.3     
  12 C12           -3.1051    -2.3738     1.9702 C.2     
  13 N13           -3.4091    -3.6772     1.8111 N.am    
  14 O14           -2.7744    -1.9569     3.0600 O.2     
  15 C15           -3.3462    -4.6109     2.9458 C.3     
  16 C16           -4.6710    -5.3776     3.0192 C.3     
  17 N17           -4.9458    -5.9999     1.7172 N.3     
  18 C18           -5.1188    -4.9863     0.6681 C.3     
  19 C19           -3.8183    -4.2024     0.4996 C.3     
  20 C20           -6.0504    -6.8345     1.7887 C.ar    
  21 C21           -6.4864    -7.5265     0.6628 C.ar    
  22 C22           -7.5999    -8.3515     0.7866 C.ar    
  23 N23           -8.2041    -8.4485     1.9697 N.ar    
  24 C24           -7.7606    -7.7768     3.0124 C.ar    
  25 N25           -6.7065    -6.9899     2.9371 N.ar    
  26 C26           -5.1098     0.7906     1.7543 C.ar    
  27 C27            0.2999     4.7944     2.6043 C.ar    
  28 C28           -5.7202    -0.4613     1.8382 C.ar    
  29 C29           -7.0925    -0.5512     1.9408 C.ar    
  30 C30           -7.8652     0.5991     1.9603 C.ar    
  31 C31           -7.2638     1.8449     1.8773 C.ar    
  32 C32           -5.8917     1.9458     1.7806 C.ar    
  33 F33            2.6223     5.2558     2.5364 F       
  34 F34           -9.2093     0.5057     2.0601 F       
  35 N35           -8.0739    -9.0618    -0.3055 N.3     
  36 C36           -9.2519    -9.8618     0.0576 C.3     
  37 C37           -7.0205    -9.9110    -0.8789 C.3     
  38 C38           -7.5594   -10.6156    -2.1261 C.3     
  39 N39           -8.7375   -11.4156    -1.7630 N.3     
  40 C40           -9.7909   -10.5664    -1.1896 C.3     
  41 C41           -9.2397   -12.1683    -2.9203 C.3     
  42 C42           -8.3269   -13.3675    -3.1839 C.3     
  43 O43           -8.3815   -14.2615    -2.0704 O.3     
  44 C44           -7.5600   -15.4217    -2.2157 C.3     
  45 H45           -1.7603     4.2306     2.6112 H       
  46 H46            1.0128     1.2336     1.3136 H       
  47 H47            2.8697     2.8057     1.6749 H       
  48 H48           -4.1925    -1.4218     0.4000 H       
  49 H49           -2.4898    -1.7722     0.0173 H       
  50 H50           -2.5250    -5.3122     2.7978 H       
  51 H51           -3.1937    -4.0540     3.8703 H       
  52 H52           -4.6019    -6.1507     3.7845 H       
  53 H53           -5.4769    -4.6880     3.2701 H       
  54 H54           -5.3744    -5.4756    -0.2717 H       
  55 H55           -5.9185    -4.3021     0.9517 H       
  56 H56           -3.9757    -3.3767    -0.1943 H       
  57 H57           -3.0398    -4.8624     0.1171 H       
  58 H58           -5.9740    -7.4256    -0.2825 H       
  59 H59           -8.2732    -7.8775     3.9577 H       
  60 H60            0.1056     5.7939     2.9642 H       
  61 H61           -5.1190    -1.3583     1.8224 H       
  62 H62           -7.5660    -1.5198     2.0058 H       
  63 H63           -7.8703     2.7384     1.8925 H       
  64 H64           -5.4240     2.9171     1.7160 H       
  65 H65           -8.9706   -10.6059     0.8027 H       
  66 H66          -10.0224    -9.2090     0.4680 H       
  67 H67           -6.1641    -9.2942    -1.1512 H       
  68 H68           -6.7138   -10.6557    -0.1444 H       
  69 H69           -7.8408    -9.8715    -2.8712 H       
  70 H70           -6.7890   -11.2684    -2.5365 H       
  71 H71          -10.6473   -11.1832    -0.9173 H       
  72 H72          -10.0976    -9.8217    -1.9241 H       
  73 H73          -10.2508   -12.5196    -2.7142 H       
  74 H74           -9.2517   -11.5210    -3.7972 H       
  75 H75           -8.6592   -13.8864    -4.0830 H       
  76 H76           -7.3027   -13.0211    -3.3218 H       
  77 H77           -7.8764   -15.9832    -3.0947 H       
  78 H78           -6.5198   -15.1179    -2.3336 H       
  79 H79           -7.6571   -16.0490    -1.3296 H       
@<TRIPOS>BOND
   1    1    2 2
   2    1    6 1
   3    1    5 1
   4    2    3 1
   5    3    4 1
   6    3   11 1
   7    4    5 2
   8    4   26 1
   9    6    7 ar
  10    6    8 ar
  11    7   27 ar
  12    7   45 1
  13    8    9 ar
  14    8   46 1
  15    9   10 ar
  16    9   47 1
  17   10   27 ar
  18   10   33 1
  19   11   12 1
  20   11   48 1
  21   11   49 1
  22   12   13 am
  23   12   14 2
  24   13   15 1
  25   13   19 1
  26   15   16 1
  27   15   50 1
  28   15   51 1
  29   16   17 1
  30   16   52 1
  31   16   53 1
  32   17   18 1
  33   17   20 1
  34   18   19 1
  35   18   54 1
  36   18   55 1
  37   19   56 1
  38   19   57 1
  39   20   21 ar
  40   20   25 ar
  41   21   22 ar
  42   21   58 1
  43   22   23 ar
  44   22   35 1
  45   23   24 ar
  46   24   25 ar
  47   24   59 1
  48   26   28 ar
  49   26   32 ar
  50   27   60 1
  51   28   29 ar
  52   28   61 1
  53   29   30 ar
  54   29   62 1
  55   30   31 ar
  56   30   34 1
  57   31   32 ar
  58   31   63 1
  59   32   64 1
  60   35   36 1
  61   35   37 1
  62   36   40 1
  63   36   65 1
  64   36   66 1
  65   37   38 1
  66   37   67 1
  67   37   68 1
  68   38   39 1
  69   38   69 1
  70   38   70 1
  71   39   40 1
  72   39   41 1
  73   40   71 1
  74   40   72 1
  75   41   42 1
  76   41   73 1
  77   41   74 1
  78   42   43 1
  79   42   75 1
  80   42   76 1
  81   43   44 1
  82   44   77 1
  83   44   78 1
  84   44   79 1

#	End of record

