#	Name: ASD06660093
#	Creating user name:	WinNT
#	Creation time:	15. 06. 2019 21:08

#	Modifying user name:	WinNT
#	Modification time:	15. 06. 2019 21:08

#	Program:	/corina/corina34_cracker 3.40 0067  02.08.2006

@<TRIPOS>MOLECULE
ASD06660093
  80   83    0    0    0
SMALL
NO_CHARGES


@<TRIPOS>ATOM
   1 C1             0.4726     1.5941    -1.8199 C.2     
   2 C2             0.3720     0.1380    -1.4447 C.3     
   3 C3            -0.3031    -0.6355    -2.5791 C.3     
   4 O4             1.5550     2.1264    -1.8902 O.2     
   5 O5            -0.6399     2.2982    -2.0815 O.3     
   6 C6            -0.5149    -2.0661    -2.1552 C.ar    
   7 C7            -1.6873    -2.4307    -1.5190 C.ar    
   8 C8            -1.8845    -3.7409    -1.1292 C.ar    
   9 C9            -0.9036    -4.6927    -1.3769 C.ar    
  10 C10            0.2729    -4.3230    -2.0162 C.ar    
  11 C11            0.4613    -3.0123    -2.4084 C.ar    
  12 N12           -1.0996    -6.0185    -0.9836 N.3     
  13 C13            0.0566    -6.8501    -1.3415 C.3     
  14 C14           -0.2515    -8.3162    -1.0291 C.3     
  15 C15           -0.5651    -8.4601     0.4627 C.3     
  16 C16           -1.7419    -7.5475     0.8192 C.3     
  17 C17           -1.3905    -6.1037     0.4532 C.3     
  18 C18           -0.9335    -9.9130     0.7700 C.3     
  19 N19           -1.1168   -10.0753     2.2143 N.pl3   
  20 C20           -1.4579   -11.3176     2.7363 C.ar    
  21 C21           -1.6236   -12.4028     1.8814 C.ar    
  22 C22           -1.9630   -13.6330     2.4143 C.ar    
  23 C23           -2.1260   -13.7375     3.7896 C.ar    
  24 C24           -1.9460   -12.6194     4.5786 C.ar    
  25 N25           -1.6169   -11.4590     4.0431 N.ar    
  26 C26            2.3009    -0.2646    -0.0114 C.2     
  27 C27            3.6578    -0.8099     0.2184 C.ar    
  28 C28            3.8154    -2.1174     0.6802 C.ar    
  29 C29            5.0787    -2.6250     0.8942 C.ar    
  30 C30            6.2003    -1.8316     0.6490 C.ar    
  31 C31            6.0427    -0.5241     0.1871 C.ar    
  32 C32            4.7795    -0.0184    -0.0323 C.ar    
  33 O33            1.7153     0.3065     0.8873 O.2     
  34 N34            1.7148    -0.4016    -1.2173 N.am    
  35 C35            4.6095     1.3912    -0.5374 C.3     
  36 C36            2.6043    -2.9740     0.9455 C.3     
  37 C37            7.5572    -2.3767     0.8793 C.2     
  38 N38            8.4969    -1.6160     1.4750 N.am    
  39 O39            7.8239    -3.5101     0.5312 O.2     
  40 C40            9.8117    -2.1839     1.7835 C.3     
  41 C41            8.2035    -0.2213     1.8140 C.3     
  42 H42           -0.2190     0.0374    -0.5344 H       
  43 H43           -1.2657    -0.1782    -2.8082 H       
  44 H44            0.3316    -0.6091    -3.4649 H       
  45 H45           -0.5250     3.2288    -2.3178 H       
  46 H46           -2.4493    -1.6901    -1.3264 H       
  47 H47           -2.8002    -4.0249    -0.6321 H       
  48 H48            1.0376    -5.0606    -2.2103 H       
  49 H49            1.3738    -2.7251    -2.9098 H       
  50 H50            0.2664    -6.7418    -2.4056 H       
  51 H51            0.9255    -6.5309    -0.7659 H       
  52 H52           -1.1119    -8.6400    -1.6147 H       
  53 H53            0.6127    -8.9312    -1.2802 H       
  54 H54            0.3085    -8.1732     1.0480 H       
  55 H55           -2.6257    -7.8593     0.2626 H       
  56 H56           -1.9425    -7.6134     1.8885 H       
  57 H57           -0.5149    -5.7881     1.0204 H       
  58 H58           -2.2319    -5.4534     0.6926 H       
  59 H59           -1.8592   -10.1698     0.2550 H       
  60 H60           -0.1337   -10.5704     0.4291 H       
  61 H61           -1.0002    -9.3159     2.8064 H       
  62 H62           -1.4894   -12.2859     0.8162 H       
  63 H63           -2.0986   -14.4931     1.7753 H       
  64 H64           -2.3912   -14.6840     4.2371 H       
  65 H65           -2.0717   -12.6962     5.6485 H       
  66 H66            5.2007    -3.6367     1.2520 H       
  67 H67            6.9107     0.0900    -0.0023 H       
  68 H68            2.1822    -0.8575    -1.9347 H       
  69 H69            4.5423     2.0748     0.3089 H       
  70 H70            5.4656     1.6614    -1.1556 H       
  71 H71            3.6976     1.4569    -1.1309 H       
  72 H72            2.3398    -3.5197     0.0398 H       
  73 H73            2.8275    -3.6816     1.7439 H       
  74 H74            1.7694    -2.3402     1.2446 H       
  75 H75           10.4821    -2.0282     0.9383 H       
  76 H76           10.2209    -1.6938     2.6669 H       
  77 H77            9.7102    -3.2521     1.9749 H       
  78 H78            7.1552    -0.0091     1.6039 H       
  79 H79            8.4028    -0.0551     2.8727 H       
  80 H80            8.8343     0.4380     1.2177 H       
@<TRIPOS>BOND
   1    1    2 1
   2    1    4 2
   3    1    5 1
   4    2    3 1
   5    2   34 1
   6    2   42 1
   7    3    6 1
   8    3   43 1
   9    3   44 1
  10    5   45 1
  11    6    7 ar
  12    6   11 ar
  13    7    8 ar
  14    7   46 1
  15    8    9 ar
  16    8   47 1
  17    9   10 ar
  18    9   12 1
  19   10   11 ar
  20   10   48 1
  21   11   49 1
  22   12   13 1
  23   12   17 1
  24   13   14 1
  25   13   50 1
  26   13   51 1
  27   14   15 1
  28   14   52 1
  29   14   53 1
  30   15   16 1
  31   15   18 1
  32   15   54 1
  33   16   17 1
  34   16   55 1
  35   16   56 1
  36   17   57 1
  37   17   58 1
  38   18   19 1
  39   18   59 1
  40   18   60 1
  41   19   20 1
  42   19   61 1
  43   20   21 ar
  44   20   25 ar
  45   21   22 ar
  46   21   62 1
  47   22   23 ar
  48   22   63 1
  49   23   24 ar
  50   23   64 1
  51   24   25 ar
  52   24   65 1
  53   26   27 1
  54   26   33 2
  55   26   34 am
  56   27   28 ar
  57   27   32 ar
  58   28   29 ar
  59   28   36 1
  60   29   30 ar
  61   29   66 1
  62   30   31 ar
  63   30   37 1
  64   31   32 ar
  65   31   67 1
  66   32   35 1
  67   34   68 1
  68   35   69 1
  69   35   70 1
  70   35   71 1
  71   36   72 1
  72   36   73 1
  73   36   74 1
  74   37   38 am
  75   37   39 2
  76   38   40 1
  77   38   41 1
  78   40   75 1
  79   40   76 1
  80   40   77 1
  81   41   78 1
  82   41   79 1
  83   41   80 1

#	End of record

