#	Name: ASD01900578
#	Creating user name:	WinNT
#	Creation time:	15. 06. 2019 19:52

#	Modifying user name:	WinNT
#	Modification time:	15. 06. 2019 19:52

#	Program:	/corina/corina34_cracker 3.40 0067  02.08.2006

@<TRIPOS>MOLECULE
ASD01900578
  42   45    0    0    0
SMALL
NO_CHARGES


@<TRIPOS>ATOM
   1 C1             0.9846     3.1563     0.7507 C.ar    
   2 C2             2.0472     3.6066     1.5299 C.ar    
   3 C3             3.2479     2.9138     1.4986 C.ar    
   4 C4             3.3445     1.7941     0.6889 C.ar    
   5 C5             2.2447     1.4008    -0.0624 C.ar    
   6 N6             1.1162     2.0781    -0.0132 N.ar    
   7 C7            -0.3058     3.8829     0.7789 C.2     
   8 O8            -0.4337     4.8674     1.4800 O.2     
   9 N9            -1.3382     3.4523     0.0271 N.am    
  10 F10            2.3334     0.3095    -0.8538 F       
  11 C11           -2.5856     4.0788     0.1268 C.ar    
  12 C12           -2.6593     5.4499     0.3376 C.ar    
  13 C13           -3.8905     6.0679     0.4354 C.ar    
  14 C14           -5.0551     5.3178     0.3228 C.ar    
  15 C15           -4.9806     3.9480     0.1121 C.ar    
  16 C16           -3.7498     3.3309     0.0091 C.ar    
  17 O17           -9.4946     8.9478     0.5431 O.3     
  18 C18           -8.4827     8.4488    -0.3385 C.3     
  19 C19           -8.2955     6.9529    -0.0620 C.3     
  20 N20           -8.0952     6.8160     1.3991 N.am    
  21 C21           -8.9860     7.4451     2.3787 C.3     
  22 C22           -9.1739     8.9059     1.9339 C.3     
  23 C23           -6.9758     6.1141     1.5739 C.2     
  24 N24           -6.3062     5.9454     0.4226 N.am    
  25 C25           -6.9854     6.4550    -0.6277 C.2     
  26 S26           -6.4541     5.5016     3.0851 S.2     
  27 O27           -6.6204     6.5032    -1.7830 O.2     
  28 Cl28          -3.9835     7.7812     0.6995 Cl      
  29 H29            1.9378     4.4840     2.1500 H       
  30 H30            4.0891     3.2401     2.0921 H       
  31 H31            4.2660     1.2329     0.6420 H       
  32 H32           -1.2167     2.7081    -0.5830 H       
  33 H33           -1.7541     6.0324     0.4255 H       
  34 H34           -5.8857     3.3653     0.0247 H       
  35 H35           -3.6924     2.2655    -0.1589 H       
  36 H36           -8.7926     8.5949    -1.3732 H       
  37 H37           -7.5457     8.9756    -0.1575 H       
  38 H38           -9.1488     6.3707    -0.4100 H       
  39 H39           -9.9479     6.9325     2.3907 H       
  40 H40           -8.5328     7.4125     3.3695 H       
  41 H41           -8.2521     9.4602     2.1104 H       
  42 H42           -9.9836     9.3581     2.5066 H       
@<TRIPOS>BOND
   1    1    2 ar
   2    1    6 ar
   3    1    7 1
   4    2    3 ar
   5    2   29 1
   6    3    4 ar
   7    3   30 1
   8    4    5 ar
   9    4   31 1
  10    5    6 ar
  11    5   10 1
  12    7    8 2
  13    7    9 am
  14    9   11 1
  15    9   32 1
  16   11   12 ar
  17   11   16 ar
  18   12   13 ar
  19   12   33 1
  20   13   14 ar
  21   13   28 1
  22   14   15 ar
  23   14   24 1
  24   15   16 ar
  25   15   34 1
  26   16   35 1
  27   17   18 1
  28   17   22 1
  29   18   19 1
  30   18   36 1
  31   18   37 1
  32   19   20 1
  33   19   25 1
  34   19   38 1
  35   20   21 1
  36   20   23 am
  37   21   22 1
  38   21   39 1
  39   21   40 1
  40   22   41 1
  41   22   42 1
  42   23   24 am
  43   23   26 2
  44   24   25 am
  45   25   27 2

#	End of record

