#	Name: ASD09116181
#	Creating user name:	WinNT
#	Creation time:	15. 06. 2019 21:21

#	Modifying user name:	WinNT
#	Modification time:	15. 06. 2019 21:21

#	Program:	/corina/corina34_cracker 3.40 0067  02.08.2006

@<TRIPOS>MOLECULE
ASD09116181
  52   57    0    0    0
SMALL
NO_CHARGES


@<TRIPOS>ATOM
   1 N1            -0.5875     3.8279    -0.5579 N.2     
   2 C2            -1.1924     4.8348    -1.4478 C.3     
   3 C3             0.7055     3.9568    -0.6804 C.2     
   4 N4             1.0545     4.9300    -1.5464 N.2     
   5 C5             0.0102     5.5218    -2.0651 C.2     
   6 N6             1.6189     3.1796     0.0037 N.pl3   
   7 C7             2.9864     3.4547    -0.0982 C.ar    
   8 C8             3.4322     4.7551    -0.2984 C.ar    
   9 C9             3.9220     2.4329     0.0049 C.ar    
  10 N10            5.2070     2.6994    -0.0816 N.ar    
  11 C11            5.6652     3.9292    -0.2663 C.ar    
  12 C12            4.8029     4.9921    -0.3931 C.ar    
  13 N13            0.0039     6.5388    -2.9682 N.pl3   
  14 C14           -2.0290     4.1707    -2.5109 C.ar    
  15 C15           -3.2832     4.6798    -2.8448 C.ar    
  16 N16           -1.5824     3.1004    -3.1441 N.ar    
  17 C17           -2.3086     2.5115    -4.0774 C.ar    
  18 N18           -3.4945     2.9459    -4.4248 N.ar    
  19 C19           -4.0331     4.0354    -3.8388 C.ar    
  20 C20           -5.2719     4.6568    -4.0620 C.2     
  21 C21           -5.5224     5.7246    -3.3217 C.2     
  22 S22           -4.1841     6.0606    -2.2363 S.3     
  23 C23           -6.2547     4.1404    -5.0811 C.3     
  24 C24            7.1624     4.1229    -0.2998 C.3     
  25 C25            7.5379     4.9825    -1.5076 C.3     
  26 C26            7.6136     6.4463    -1.0676 C.3     
  27 N27            6.5440     6.7096    -0.0839 N.3     
  28 C28            5.2317     6.4131    -0.6573 C.3     
  29 C29            6.7885     6.0695     1.2010 C.3     
  30 C30            7.6157     4.7979     0.9934 C.3     
  31 H31           -1.7914     5.5432    -0.8757 H       
  32 H32            1.3122     2.4427     0.5549 H       
  33 H33            2.7280     5.5698    -0.3798 H       
  34 H34            3.5929     1.4157     0.1571 H       
  35 H35            0.8417     6.9018    -3.2956 H       
  36 H36           -0.8383     6.9010    -3.2849 H       
  37 H37           -1.9093     1.6390    -4.5730 H       
  38 H38           -6.4286     6.3096    -3.3767 H       
  39 H39           -6.9209     3.4178    -4.6098 H       
  40 H40           -6.8401     4.9713    -5.4748 H       
  41 H41           -5.7140     3.6587    -5.8957 H       
  42 H42            7.6503     3.1517    -0.3822 H       
  43 H43            8.5071     4.6666    -1.8936 H       
  44 H44            6.7803     4.8731    -2.2836 H       
  45 H45            8.5843     6.6402    -0.6115 H       
  46 H46            7.4801     7.0947    -1.9336 H       
  47 H47            5.2717     6.5740    -1.7346 H       
  48 H48            4.4957     7.0920    -0.2268 H       
  49 H49            7.3335     6.7550     1.8500 H       
  50 H50            5.8365     5.8113     1.6647 H       
  51 H51            7.4613     4.1202     1.8330 H       
  52 H52            8.6719     5.0570     0.9196 H       
@<TRIPOS>BOND
   1    1    2 1
   2    1    3 2
   3    2   14 1
   4    2    5 1
   5    2   31 1
   6    3    4 1
   7    3    6 1
   8    4    5 2
   9    5   13 1
  10    6    7 1
  11    6   32 1
  12    7    8 ar
  13    7    9 ar
  14    8   12 ar
  15    8   33 1
  16    9   10 ar
  17    9   34 1
  18   10   11 ar
  19   11   12 ar
  20   11   24 1
  21   12   28 1
  22   13   35 1
  23   13   36 1
  24   14   15 ar
  25   14   16 ar
  26   15   19 ar
  27   15   22 1
  28   16   17 ar
  29   17   18 ar
  30   17   37 1
  31   18   19 ar
  32   19   20 1
  33   20   21 2
  34   20   23 1
  35   21   22 1
  36   21   38 1
  37   23   39 1
  38   23   40 1
  39   23   41 1
  40   24   25 1
  41   24   30 1
  42   24   42 1
  43   25   26 1
  44   25   43 1
  45   25   44 1
  46   26   27 1
  47   26   45 1
  48   26   46 1
  49   27   28 1
  50   27   29 1
  51   28   47 1
  52   28   48 1
  53   29   30 1
  54   29   49 1
  55   29   50 1
  56   30   51 1
  57   30   52 1

#	End of record

