#	Name: ASD06170036
#	Creating user name:	WinNT
#	Creation time:	15. 06. 2019 21:05

#	Modifying user name:	WinNT
#	Modification time:	15. 06. 2019 21:05

#	Program:	/corina/corina34_cracker 3.40 0067  02.08.2006

@<TRIPOS>MOLECULE
ASD06170036
  67   71    0    0    0
SMALL
NO_CHARGES


@<TRIPOS>ATOM
   1 N1             0.1036    -2.0147    -0.1493 N.pl3   
   2 N2            -0.0580    -0.6317    -0.2737 N.am    
   3 C3             1.1624    -0.0568    -0.2975 C.2     
   4 C4             2.1409    -1.1482    -0.1809 C.2     
   5 C5             1.4135    -2.3201    -0.0942 C.2     
   6 C6             3.6030    -1.0185    -0.1610 C.2     
   7 O7             4.3005    -2.0104    -0.0596 O.2     
   8 N8             4.1729     0.1993    -0.2551 N.am    
   9 C9            -1.2356     0.0185    -0.3568 C.2     
  10 N10           -2.5972     2.0154    -0.8017 N.3     
  11 C11           -1.2659     1.5252    -0.3610 C.3     
  12 C12           -1.1059     2.0709     1.0742 C.3     
  13 C13           -2.0330     3.3021     1.1405 C.3     
  14 C14           -2.6751     3.3966    -0.2602 C.3     
  15 O15           -2.2707    -0.6088    -0.4281 O.2     
  16 O16            1.4054     1.1310    -0.3965 O.2     
  17 C17            1.9896    -3.7062     0.0395 C.3     
  18 C18           -0.9903    -2.9869    -0.0824 C.3     
  19 C19            5.5553     0.3343    -0.1262 C.ar    
  20 C20            6.1243     1.6029    -0.1165 C.ar    
  21 C21            7.4959     1.7253     0.0123 C.ar    
  22 C22            8.2577     0.5650     0.1279 C.ar    
  23 C23            7.6216    -0.6658     0.1103 C.ar    
  24 N24            6.3101    -0.7462    -0.0090 N.ar    
  25 O25            9.6092     0.6393     0.2560 O.3     
  26 N26           11.1170     2.2744     3.7293 N.ar    
  27 C27            9.8267     2.0722     3.6009 C.ar    
  28 C28            9.2825     1.5239     2.4463 C.ar    
  29 C29           10.1121     1.1767     1.3947 C.ar    
  30 C30           11.4996     1.3989     1.5441 C.ar    
  31 C31           12.4031     1.0729     0.5216 C.ar    
  32 C32           13.7368     1.3018     0.7002 C.ar    
  33 C33           14.2127     1.8595     1.8955 C.ar    
  34 C34           13.3554     2.1855     2.9066 C.ar    
  35 C35           11.9771     1.9623     2.7525 C.ar    
  36 O36           15.5450     2.0779     2.0496 O.3     
  37 C37           15.9698     2.6483     3.2890 C.3     
  38 O38           14.6127     0.9854    -0.2906 O.3     
  39 C39           14.0660     0.4200    -1.4837 C.3     
  40 H40            3.6217     0.9818    -0.4124 H       
  41 H41           -2.6668     2.0172    -1.8083 H       
  42 H42           -0.4824     1.9185    -1.0087 H       
  43 H43           -1.4191     1.3216     1.8013 H       
  44 H44           -0.0720     2.3654     1.2543 H       
  45 H45           -2.8012     3.1571     1.9001 H       
  46 H46           -1.4542     4.2009     1.3531 H       
  47 H47           -2.1120     4.0845    -0.8909 H       
  48 H48           -3.7143     3.7160    -0.1813 H       
  49 H49            2.1506    -4.1299    -0.9518 H       
  50 H50            2.9395    -3.6551     0.5715 H       
  51 H51            1.2952    -4.3362     0.5954 H       
  52 H52           -1.3093    -3.2449    -1.0922 H       
  53 H53           -0.6473    -3.8851     0.4309 H       
  54 H54           -1.8283    -2.5538     0.4638 H       
  55 H55            5.5031     2.4815    -0.2087 H       
  56 H56            7.9653     2.6979     0.0226 H       
  57 H57            8.2058    -1.5698     0.1995 H       
  58 H58            9.1697     2.3394     4.4153 H       
  59 H59            8.2165     1.3686     2.3701 H       
  60 H60           12.0452     0.6426    -0.4021 H       
  61 H61           13.7357     2.6137     3.8222 H       
  62 H62           15.6843     1.9894     4.1090 H       
  63 H63           17.0530     2.7698     3.2808 H       
  64 H64           15.4961     3.6209     3.4227 H       
  65 H65           14.8703     0.2151    -2.1902 H       
  66 H66           13.5494    -0.5088    -1.2419 H       
  67 H67           13.3614     1.1224    -1.9289 H       
@<TRIPOS>BOND
   1    1    2 1
   2    1    5 1
   3    1   18 1
   4    2    3 am
   5    2    9 am
   6    3    4 1
   7    3   16 2
   8    4    5 2
   9    4    6 1
  10    5   17 1
  11    6    7 2
  12    6    8 am
  13    8   19 1
  14    8   40 1
  15    9   15 2
  16    9   11 1
  17   10   11 1
  18   10   14 1
  19   10   41 1
  20   11   12 1
  21   11   42 1
  22   12   13 1
  23   12   43 1
  24   12   44 1
  25   13   14 1
  26   13   45 1
  27   13   46 1
  28   14   47 1
  29   14   48 1
  30   17   49 1
  31   17   50 1
  32   17   51 1
  33   18   52 1
  34   18   53 1
  35   18   54 1
  36   19   20 ar
  37   19   24 ar
  38   20   21 ar
  39   20   55 1
  40   21   22 ar
  41   21   56 1
  42   22   23 ar
  43   22   25 1
  44   23   24 ar
  45   23   57 1
  46   25   29 1
  47   26   27 ar
  48   26   35 ar
  49   27   28 ar
  50   27   58 1
  51   28   29 ar
  52   28   59 1
  53   29   30 ar
  54   30   31 ar
  55   30   35 ar
  56   31   32 ar
  57   31   60 1
  58   32   33 ar
  59   32   38 1
  60   33   34 ar
  61   33   36 1
  62   34   35 ar
  63   34   61 1
  64   36   37 1
  65   37   62 1
  66   37   63 1
  67   37   64 1
  68   38   39 1
  69   39   65 1
  70   39   66 1
  71   39   67 1

#	End of record

