#	Name: ASD01941014
#	Creating user name:	WinNT
#	Creation time:	15. 06. 2019 20:13

#	Modifying user name:	WinNT
#	Modification time:	15. 06. 2019 20:13

#	Program:	/corina/corina34_cracker 3.40 0067  02.08.2006

@<TRIPOS>MOLECULE
ASD01941014
  53   57    0    0    0
SMALL
NO_CHARGES


@<TRIPOS>ATOM
   1 N1             0.2873     1.5603    -0.2792 N.am    
   2 C2             0.5201     0.3940    -0.9031 C.2     
   3 N3            -0.4674    -0.4229    -1.3069 N.am    
   4 C4            -1.7824    -0.0959    -1.0953 C.2     
   5 C5            -2.0793     1.1057    -0.4503 C.2     
   6 C6            -0.9760     1.9667    -0.0212 C.2     
   7 N7            -2.7884    -0.9133    -1.4993 N.am    
   8 C8            -4.0780    -0.5968    -1.2945 C.2     
   9 C9            -4.4535     0.5876    -0.6569 C.2     
  10 C10           -3.4748     1.4672    -0.2175 C.2     
  11 C11           -0.1494    -1.6248    -1.9532 C.ar    
  12 C12            0.2101    -1.6196    -3.2943 C.ar    
  13 C13            0.5229    -2.8059    -3.9286 C.ar    
  14 C14            0.4784    -3.9981    -3.2294 C.ar    
  15 C15            0.1208    -4.0066    -1.8937 C.ar    
  16 C16           -0.1876    -2.8228    -1.2524 C.ar    
  17 C17           -2.4597    -2.1707    -2.1755 C.3     
  18 O18           -4.9456    -1.3656    -1.6768 O.2     
  19 N19           -3.8093     2.6472     0.4166 N.pl3   
  20 C20           -5.1500     3.0316     0.5164 C.ar    
  21 C21           -5.6386     3.5489     1.7093 C.ar    
  22 C22           -6.9632     3.9277     1.8050 C.ar    
  23 C23           -7.8036     3.7921     0.7139 C.ar    
  24 C24           -7.3196     3.2765    -0.4757 C.ar    
  25 C25           -5.9943     2.9019    -0.5789 C.ar    
  26 Cl26          -9.4681     4.2692     0.8378 Cl      
  27 O27            1.6714     0.0640    -1.1115 O.2     
  28 C28            1.3667     2.3628     0.1143 C.ar    
  29 C29            2.0074     2.1233     1.3225 C.ar    
  30 C30            3.0713     2.9155     1.7073 C.ar    
  31 C31            3.4982     3.9467     0.8908 C.ar    
  32 C32            2.8621     4.1877    -0.3131 C.ar    
  33 C33            1.8012     3.3952    -0.7060 C.ar    
  34 O34           -1.1903     3.0227     0.5445 O.2     
  35 H35           -5.4981     0.8168    -0.5066 H       
  36 H36            0.2446    -0.6888    -3.8410 H       
  37 H37            0.8022    -2.8025    -4.9719 H       
  38 H38            0.7231    -4.9245    -3.7277 H       
  39 H39            0.0866    -4.9393    -1.3503 H       
  40 H40           -0.4665    -2.8300    -0.2090 H       
  41 H41           -2.2238    -2.9321    -1.4320 H       
  42 H42           -3.3124    -2.4965    -2.7712 H       
  43 H43           -1.5985    -2.0191    -2.8262 H       
  44 H44           -3.1143     3.2096     0.7929 H       
  45 H45           -4.9833     3.6546     2.5612 H       
  46 H46           -7.3437     4.3297     2.7324 H       
  47 H47           -7.9778     3.1712    -1.3254 H       
  48 H48           -5.6170     2.5000    -1.5076 H       
  49 H49            1.6740     1.3185     1.9609 H       
  50 H50            3.5701     2.7297     2.6470 H       
  51 H51            4.3299     4.5653     1.1942 H       
  52 H52            3.1977     4.9937    -0.9487 H       
  53 H53            1.3048     3.5839    -1.6464 H       
@<TRIPOS>BOND
   1    1    2 am
   2    1   28 1
   3    1    6 am
   4    2    3 am
   5    2   27 2
   6    3    4 1
   7    3   11 1
   8    4    5 2
   9    4    7 1
  10    5    6 1
  11    5   10 1
  12    6   34 2
  13    7    8 am
  14    7   17 1
  15    8    9 1
  16    8   18 2
  17    9   10 2
  18    9   35 1
  19   10   19 1
  20   11   12 ar
  21   11   16 ar
  22   12   13 ar
  23   12   36 1
  24   13   14 ar
  25   13   37 1
  26   14   15 ar
  27   14   38 1
  28   15   16 ar
  29   15   39 1
  30   16   40 1
  31   17   41 1
  32   17   42 1
  33   17   43 1
  34   19   20 1
  35   19   44 1
  36   20   21 ar
  37   20   25 ar
  38   21   22 ar
  39   21   45 1
  40   22   23 ar
  41   22   46 1
  42   23   24 ar
  43   23   26 1
  44   24   25 ar
  45   24   47 1
  46   25   48 1
  47   28   29 ar
  48   28   33 ar
  49   29   30 ar
  50   29   49 1
  51   30   31 ar
  52   30   50 1
  53   31   32 ar
  54   31   51 1
  55   32   33 ar
  56   32   52 1
  57   33   53 1

#	End of record

