#	Name: ASD01812974
#	Creating user name:	WinNT
#	Creation time:	15. 06. 2019 19:29

#	Modifying user name:	WinNT
#	Modification time:	15. 06. 2019 19:29

#	Program:	/corina/corina34_cracker 3.40 0067  02.08.2006

@<TRIPOS>MOLECULE
ASD01812974
  59   63    0    0    0
SMALL
NO_CHARGES


@<TRIPOS>ATOM
   1 N1            -0.0158     1.3147     0.0093 N.ar    
   2 C2             0.0021    -0.0041     0.0020 C.ar    
   3 C3             1.1989    -0.7033    -0.0127 C.ar    
   4 C4             2.3829    -0.0013    -0.0202 C.ar    
   5 C5             2.3448     1.3978    -0.0128 C.ar    
   6 C6             1.0955     2.0332     0.0025 C.ar    
   7 C7             3.8373    -0.3889    -0.0363 C.3     
   8 N8             4.5955     0.8684    -0.0373 N.am    
   9 C9             3.7280     1.8961    -0.0237 C.2     
  10 C10            6.0558     0.9844    -0.0504 C.3     
  11 C11            6.5432     1.0311    -1.4757 C.ar    
  12 O12            1.0255     3.3856     0.0100 O.3     
  13 O13            4.0429     3.0706    -0.0212 O.2     
  14 C14            6.6712     2.2480    -2.1206 C.ar    
  15 C15            7.1171     2.2967    -3.4259 C.ar    
  16 C16            7.4386     1.1168    -4.0939 C.ar    
  17 C17            7.3078    -0.1064    -3.4393 C.ar    
  18 C18            6.8664    -0.1428    -2.1321 C.ar    
  19 C19           -0.2795     3.9677     0.0251 C.3     
  20 C20           -0.1576     5.4928     0.0317 C.3     
  21 C21            7.9181     1.1627    -5.4973 C.ar    
  22 C22           -1.5514     6.1187    -0.0780 C.3     
  23 C23           -1.4264     7.6421     0.0086 C.3     
  24 O24           -0.7853     7.9971     1.2354 O.3     
  25 C25            0.5394     7.4791     1.3727 C.3     
  26 C26            0.4934     5.9492     1.3410 C.3     
  27 C27            8.0549     2.3805    -6.1698 C.ar    
  28 C28            8.5040     2.3780    -7.4742 C.ar    
  29 N29            8.8022     1.2475    -8.0856 N.ar    
  30 C30            8.6871     0.0776    -7.4871 C.ar    
  31 C31            8.2506    -0.0099    -6.1809 C.ar    
  32 C32            9.0430    -1.1797    -8.2378 C.3     
  33 H33           -0.9309    -0.5480     0.0080 H       
  34 H34            1.2023    -1.7833    -0.0178 H       
  35 H35            4.0797    -0.9721     0.8522 H       
  36 H36            4.0624    -0.9631    -0.9351 H       
  37 H37            6.3524     1.8979     0.4651 H       
  38 H38            6.4932     0.1235     0.4552 H       
  39 H39            6.4213     3.1618    -1.6020 H       
  40 H40            7.2163     3.2474    -3.9286 H       
  41 H41            7.5556    -1.0238    -3.9524 H       
  42 H42            6.7688    -1.0899    -1.6223 H       
  43 H43           -0.8289     3.6509    -0.8614 H       
  44 H44           -0.8123     3.6419     0.9185 H       
  45 H45            0.4535     5.8134    -0.8121 H       
  46 H46           -2.0001     5.8437    -1.0325 H       
  47 H47           -2.1780     5.7577     0.7376 H       
  48 H48           -0.8333     8.0064    -0.8302 H       
  49 H49           -2.4192     8.0908    -0.0259 H       
  50 H50            1.1582     7.8413     0.5518 H       
  51 H51            0.9628     7.8105     2.3209 H       
  52 H52           -0.0918     5.5848     2.1852 H       
  53 H53            1.5071     5.5530     1.4012 H       
  54 H54            7.8123     3.3097    -5.6755 H       
  55 H55            8.6126     3.3139    -8.0021 H       
  56 H56            8.1634    -0.9707    -5.6954 H       
  57 H57           10.0980    -1.4076    -8.0853 H       
  58 H58            8.4358    -2.0068    -7.8699 H       
  59 H59            8.8528    -1.0342    -9.3012 H       
@<TRIPOS>BOND
   1    1    2 ar
   2    1    6 ar
   3    2    3 ar
   4    2   33 1
   5    3    4 ar
   6    3   34 1
   7    4    7 1
   8    4    5 ar
   9    5    6 ar
  10    5    9 1
  11    6   12 1
  12    7    8 1
  13    7   35 1
  14    7   36 1
  15    8    9 am
  16    8   10 1
  17    9   13 2
  18   10   11 1
  19   10   37 1
  20   10   38 1
  21   11   14 ar
  22   11   18 ar
  23   12   19 1
  24   14   15 ar
  25   14   39 1
  26   15   16 ar
  27   15   40 1
  28   16   17 ar
  29   16   21 1
  30   17   18 ar
  31   17   41 1
  32   18   42 1
  33   19   20 1
  34   19   43 1
  35   19   44 1
  36   20   22 1
  37   20   26 1
  38   20   45 1
  39   21   27 ar
  40   21   31 ar
  41   22   23 1
  42   22   46 1
  43   22   47 1
  44   23   24 1
  45   23   48 1
  46   23   49 1
  47   24   25 1
  48   25   26 1
  49   25   50 1
  50   25   51 1
  51   26   52 1
  52   26   53 1
  53   27   28 ar
  54   27   54 1
  55   28   29 ar
  56   28   55 1
  57   29   30 ar
  58   30   31 ar
  59   30   32 1
  60   31   56 1
  61   32   57 1
  62   32   58 1
  63   32   59 1

#	End of record

