#	Name: ASD02560513
#	Creating user name:	WinNT
#	Creation time:	15. 06. 2019 20:25

#	Modifying user name:	WinNT
#	Modification time:	15. 06. 2019 20:25

#	Program:	/corina/corina34_cracker 3.40 0067  02.08.2006

@<TRIPOS>MOLECULE
ASD02560513
  45   47    0    0    0
SMALL
NO_CHARGES


@<TRIPOS>ATOM
   1 C1             0.8057    -3.7039    -3.8364 C.2     
   2 C2             1.6233    -4.3699    -2.9058 C.2     
   3 C3             2.4042    -3.6684    -2.0599 C.2     
   4 N4             2.4133    -2.3004    -2.0937 N.pl3   
   5 C5             1.6241    -1.6217    -2.9936 C.2     
   6 C6             0.8034    -2.3452    -3.8830 C.2     
   7 C7             3.0930    -1.3601    -1.3685 C.2     
   8 C8             2.7104    -0.1442    -1.8338 C.2     
   9 N9             1.8212    -0.3248    -2.8169 N.2     
  10 C10            3.2041     1.1866    -1.3277 C.3     
  11 N11            4.0104    -1.6061    -0.3395 N.3     
  12 C12            5.3793    -1.2885    -0.7675 C.3     
  13 C13            4.0607     1.8558    -2.4043 C.3     
  14 C14            2.0083     2.0822    -0.9977 C.3     
  15 C15            6.2799    -1.1541     0.4621 C.3     
  16 C16            5.9060    -2.4098    -1.6654 C.3     
  17 C17            7.3317    -2.0790    -2.1112 C.3     
  18 C18            8.2323    -1.9446    -0.8816 C.3     
  19 C19            7.7056    -0.8233     0.0163 C.3     
  20 C20            3.2743    -4.3970    -1.0684 C.3     
  21 H21            0.1849    -4.2703    -4.5148 H       
  22 H22            1.6254    -5.4493    -2.8685 H       
  23 H23            0.1794    -1.8251    -4.5947 H       
  24 H24            3.8028     1.0344    -0.4296 H       
  25 H25            3.7643    -1.0941     0.4944 H       
  26 H26            5.3782    -0.3497    -1.3214 H       
  27 H27            3.4620     2.0080    -3.3024 H       
  28 H28            4.4178     2.8184    -2.0382 H       
  29 H29            4.9126     1.2178    -2.6394 H       
  30 H30            1.3980     1.6054    -0.2307 H       
  31 H31            2.3653     3.0448    -0.6316 H       
  32 H32            1.4096     2.2344    -1.8957 H       
  33 H33            5.9046    -0.3553     1.1017 H       
  34 H34            6.2810    -2.0929     1.0160 H       
  35 H35            5.9071    -3.3486    -1.1115 H       
  36 H36            5.2644    -2.5055    -2.5413 H       
  37 H37            7.7070    -2.8778    -2.7508 H       
  38 H38            7.3306    -1.1402    -2.6651 H       
  39 H39            8.2334    -2.8834    -0.3277 H       
  40 H40            9.2480    -1.7089    -1.1992 H       
  41 H41            7.7045     0.1155    -0.5376 H       
  42 H42            8.3472    -0.7276     0.8922 H       
  43 H43            3.0686    -5.4661    -1.1213 H       
  44 H44            4.3231    -4.2167    -1.3040 H       
  45 H45            3.0604    -4.0352    -0.0627 H       
@<TRIPOS>BOND
   1    1    2 1
   2    1    6 2
   3    1   21 1
   4    2    3 2
   5    2   22 1
   6    3    4 1
   7    3   20 1
   8    4    5 1
   9    4    7 1
  10    5    6 1
  11    5    9 2
  12    6   23 1
  13    7    8 2
  14    7   11 1
  15    8    9 1
  16    8   10 1
  17   10   13 1
  18   10   14 1
  19   10   24 1
  20   11   12 1
  21   11   25 1
  22   12   16 1
  23   12   15 1
  24   12   26 1
  25   13   27 1
  26   13   28 1
  27   13   29 1
  28   14   30 1
  29   14   31 1
  30   14   32 1
  31   15   19 1
  32   15   33 1
  33   15   34 1
  34   16   17 1
  35   16   35 1
  36   16   36 1
  37   17   18 1
  38   17   37 1
  39   17   38 1
  40   18   19 1
  41   18   39 1
  42   18   40 1
  43   19   41 1
  44   19   42 1
  45   20   43 1
  46   20   44 1
  47   20   45 1

#	End of record

