#	Name: ASD01410267
#	Creating user name:	WinNT
#	Creation time:	15. 06. 2019 19:17

#	Modifying user name:	WinNT
#	Modification time:	15. 06. 2019 19:17

#	Program:	/corina/corina34_cracker 3.40 0067  02.08.2006

@<TRIPOS>MOLECULE
ASD01410267
  30   31    0    0    0
SMALL
NO_CHARGES


@<TRIPOS>ATOM
   1 C1            -0.3495     1.4660    -1.7378 C.ar    
   2 C2            -0.0694     0.2336    -1.1805 C.ar    
   3 C3            -0.9975    -0.3936    -0.3639 C.ar    
   4 C4            -2.2100     0.2071    -0.1003 C.ar    
   5 C5            -2.5059     1.4538    -0.6578 C.ar    
   6 C6            -1.5629     2.0874    -1.4778 C.ar    
   7 O7            -1.8393     3.2981    -2.0245 O.3     
   8 Br8            0.9250     2.3110    -2.8502 Br      
   9 C9            -3.8017     2.1016    -0.3802 C.2     
  10 N10           -4.8721     1.3529    -0.0483 N.am    
  11 C11           -7.2242     1.2032     0.4788 C.ar    
  12 C12           -6.0849     1.9709     0.2750 C.ar    
  13 C13           -6.1516     3.3530     0.3933 C.ar    
  14 C14           -7.3500     3.9604     0.7130 C.ar    
  15 C15           -8.4836     3.1931     0.9159 C.ar    
  16 C16           -8.4199     1.8157     0.7987 C.ar    
  17 Br17          -0.5988    -2.0807     0.3915 Br      
  18 Cl18          -9.9881     3.9598     1.3187 Cl      
  19 O19           -3.9042     3.3113    -0.4508 O.2     
  20 C20           -4.7656    -0.1080    -0.0260 C.3     
  21 H21            0.8778    -0.2443    -1.3825 H       
  22 H22           -2.9305    -0.2855     0.5360 H       
  23 H23           -1.5722     4.0478    -1.4754 H       
  24 H24           -7.1760     0.1285     0.3830 H       
  25 H25           -5.2670     3.9523     0.2357 H       
  26 H26           -7.4024     5.0352     0.8050 H       
  27 H27           -9.3062     1.2192     0.9572 H       
  28 H28           -4.5421    -0.4406     0.9876 H       
  29 H29           -5.7088    -0.5461    -0.3525 H       
  30 H30           -3.9667    -0.4243    -0.6967 H       
@<TRIPOS>BOND
   1    1    2 ar
   2    1    8 1
   3    1    6 ar
   4    2    3 ar
   5    2   21 1
   6    3    4 ar
   7    3   17 1
   8    4    5 ar
   9    4   22 1
  10    5    6 ar
  11    5    9 1
  12    6    7 1
  13    7   23 1
  14    9   10 am
  15    9   19 2
  16   10   20 1
  17   10   12 1
  18   11   12 ar
  19   11   16 ar
  20   11   24 1
  21   12   13 ar
  22   13   14 ar
  23   13   25 1
  24   14   15 ar
  25   14   26 1
  26   15   16 ar
  27   15   18 1
  28   16   27 1
  29   20   28 1
  30   20   29 1
  31   20   30 1

#	End of record

