#	Name: ASD04910057
#	Creating user name:	WinNT
#	Creation time:	15. 06. 2019 20:55

#	Modifying user name:	WinNT
#	Modification time:	15. 06. 2019 20:55

#	Program:	/corina/corina34_cracker 3.40 0067  02.08.2006

@<TRIPOS>MOLECULE
ASD04910057
  59   61    0    0    0
SMALL
NO_CHARGES


@<TRIPOS>ATOM
   1 N1            -0.0178     1.4608     0.0101 N.pl3   
   2 C2             0.0021    -0.0041     0.0020 C.3     
   3 C3             0.1484    -0.5200     1.4349 C.3     
   4 C4            -1.2844    -0.5207    -0.5890 C.ar    
   5 C5             1.5101    -0.0998     1.9917 C.3     
   6 C6             1.6565    -0.6158     3.4247 C.3     
   7 C7            -3.6628    -0.3658    -0.8212 C.ar    
   8 C8            -2.4815     0.1021    -0.2836 C.ar    
   9 C9            -1.2624    -1.6120    -1.4391 C.ar    
  10 C10           -2.4364    -2.0897    -1.9839 C.ar    
  11 C11           -3.6482    -1.4693    -1.6757 C.ar    
  12 C12           -4.9103    -1.9762    -2.2554 C.2     
  13 O13           -5.9636    -1.4316    -1.9882 O.2     
  14 N14           -4.8928    -3.0420    -3.0802 N.am    
  15 C15           -6.1434    -3.5442    -3.6546 C.3     
  16 C16           -5.8462    -4.7507    -4.5473 C.3     
  17 C17           -7.1327    -5.2674    -5.1383 C.2     
  18 O18           -7.1153    -6.3289    -5.9596 O.3     
  19 O19           -8.1798    -4.7261    -4.8727 O.2     
  20 F20            1.5611    -2.0115     3.4298 F       
  21 F21            2.9016    -0.2315     3.9338 F       
  22 F22            0.6405    -0.0760     4.2207 F       
  23 C23            1.1915     2.1811     0.0024 C.2     
  24 C24            1.3166     3.5323     0.0139 C.2     
  25 C25            2.4814     1.6294    -0.0124 C.2     
  26 N26            3.3497     2.6089    -0.0156 N.2     
  27 N27            2.6480     3.8211     0.0006 N.pl3   
  28 C28            3.2147     5.1029     0.0061 C.ar    
  29 C29            4.5949     5.2534    -0.0092 C.ar    
  30 C30            5.1504     6.5179    -0.0037 C.ar    
  31 C31            4.3334     7.6334     0.0175 C.ar    
  32 C32            2.9585     7.4868     0.0327 C.ar    
  33 C33            2.3970     6.2250     0.0210 C.ar    
  34 C34            4.9428     9.0117     0.0244 C.3     
  35 F35            5.1158     9.4518    -1.2923 F       
  36 F36            4.0945     9.8932     0.7031 F       
  37 F37            6.1838     8.9696     0.6689 F       
  38 H38           -0.8643     1.9343     0.0167 H       
  39 H39            0.8431    -0.3527    -0.5974 H       
  40 H40           -0.6432    -0.0995     2.0551 H       
  41 H41            0.0741    -1.6075     1.4389 H       
  42 H42            2.3017    -0.5203     1.3715 H       
  43 H43            1.5844     0.9877     1.9878 H       
  44 H44           -4.5967     0.1208    -0.5815 H       
  45 H45           -2.4914     0.9561     0.3775 H       
  46 H46           -0.3240    -2.0909    -1.6770 H       
  47 H47           -2.4179    -2.9414    -2.6476 H       
  48 H48           -4.0522    -3.4765    -3.2934 H       
  49 H49           -6.8176    -3.8433    -2.8521 H       
  50 H50           -6.6114    -2.7592    -4.2487 H       
  51 H51           -5.1721    -4.4516    -5.3499 H       
  52 H52           -5.3782    -5.5357    -3.9533 H       
  53 H53           -7.9653    -6.6237    -6.3140 H       
  54 H54            0.5082     4.2482     0.0302 H       
  55 H55            2.7177     0.5756    -0.0195 H       
  56 H56            5.2334     4.3825    -0.0250 H       
  57 H57            6.2239     6.6356    -0.0155 H       
  58 H58            2.3230     8.3599     0.0492 H       
  59 H59            1.3230     6.1111     0.0284 H       
@<TRIPOS>BOND
   1    1    2 1
   2    1   23 1
   3    1   38 1
   4    2    3 1
   5    2    4 1
   6    2   39 1
   7    3    5 1
   8    3   40 1
   9    3   41 1
  10    4    9 ar
  11    4    8 ar
  12    5    6 1
  13    5   42 1
  14    5   43 1
  15    6   20 1
  16    6   21 1
  17    6   22 1
  18    7    8 ar
  19    7   11 ar
  20    7   44 1
  21    8   45 1
  22    9   10 ar
  23    9   46 1
  24   10   11 ar
  25   10   47 1
  26   11   12 1
  27   12   13 2
  28   12   14 am
  29   14   15 1
  30   14   48 1
  31   15   16 1
  32   15   49 1
  33   15   50 1
  34   16   17 1
  35   16   51 1
  36   16   52 1
  37   17   18 1
  38   17   19 2
  39   18   53 1
  40   23   25 1
  41   23   24 2
  42   24   27 1
  43   24   54 1
  44   25   26 2
  45   25   55 1
  46   26   27 1
  47   27   28 1
  48   28   29 ar
  49   28   33 ar
  50   29   30 ar
  51   29   56 1
  52   30   31 ar
  53   30   57 1
  54   31   32 ar
  55   31   34 1
  56   32   33 ar
  57   32   58 1
  58   33   59 1
  59   34   35 1
  60   34   36 1
  61   34   37 1

#	End of record

