#	Name: ASD01840529
#	Creating user name:	WinNT
#	Creation time:	15. 06. 2019 19:37

#	Modifying user name:	WinNT
#	Modification time:	15. 06. 2019 19:37

#	Program:	/corina/corina34_cracker 3.40 0067  02.08.2006

@<TRIPOS>MOLECULE
ASD01840529
  53   56    0    0    0
SMALL
NO_CHARGES


@<TRIPOS>ATOM
   1 C1            -4.9437    -4.3837     5.0802 C.3     
   2 O2            -3.9460    -4.6249     4.0860 O.3     
   3 C3            -2.6057    -4.4857     4.5618 C.3     
   4 C4            -1.6420    -4.7609     3.4363 C.2     
   5 N5            -2.1279    -5.0602     2.2693 N.2     
   6 C6            -1.3242    -5.3200     1.2088 C.ar    
   7 N7            -1.8252    -5.6254     0.0163 N.ar    
   8 C8            -1.0359    -5.8777    -1.0153 C.ar    
   9 N9            -1.6021    -6.1916    -2.2390 N.3     
  10 C10           -2.4109    -7.4137    -2.1466 C.3     
  11 C11           -2.9001    -7.8100    -3.5414 C.3     
  12 C12           -3.7333    -6.6674    -4.1285 C.3     
  13 C13           -2.8831    -5.3946    -4.1689 C.3     
  14 C14           -2.3944    -5.0684    -2.7558 C.3     
  15 O15           -4.1453    -7.0087    -5.4536 O.3     
  16 C16           -5.2707    -6.4089    -5.9236 C.ar    
  17 C17           -5.8994    -5.4266    -5.1706 C.ar    
  18 C18           -7.0445    -4.8123    -5.6437 C.ar    
  19 C19           -7.5702    -5.1718    -6.8674 C.ar    
  20 C20           -6.9448    -6.1589    -7.6323 C.ar    
  21 C21           -5.7862    -6.7737    -7.1560 C.ar    
  22 C22           -7.4874    -6.5348    -8.9031 C.1     
  23 N23           -7.9179    -6.8330    -9.9112 N.1     
  24 C24            0.3557    -5.8342    -0.8986 C.ar    
  25 C25            1.2257    -6.1260    -2.0941 C.3     
  26 C26            0.9247    -5.5247     0.3076 C.ar    
  27 C27            0.0768    -5.2613     1.3875 C.ar    
  28 C28            0.5932    -4.9206     2.7173 C.2     
  29 O29            1.7896    -4.8539     2.9333 O.2     
  30 N30           -0.3124    -4.6777     3.6937 N.am    
  31 H31           -4.8408    -3.3668     5.4590 H       
  32 H32           -5.9330    -4.5092     4.6402 H       
  33 H33           -4.8182    -5.0911     5.8999 H       
  34 H34           -2.4544    -3.4709     4.9297 H       
  35 H35           -2.4318    -5.1952     5.3707 H       
  36 H36           -1.8054    -8.2195    -1.7315 H       
  37 H37           -3.2687    -7.2335    -1.4985 H       
  38 H38           -2.0429    -8.0039    -4.1862 H       
  39 H39           -3.5133    -8.7084    -3.4705 H       
  40 H40           -4.6114    -6.4992    -3.5050 H       
  41 H41           -2.0256    -5.5505    -4.8236 H       
  42 H42           -3.4841    -4.5673    -4.5462 H       
  43 H43           -3.2522    -4.8991    -2.1050 H       
  44 H44           -1.7769    -4.1706    -2.7833 H       
  45 H45           -5.4929    -5.1414    -4.2115 H       
  46 H46           -7.5289    -4.0488    -5.0530 H       
  47 H47           -8.4650    -4.6905    -7.2335 H       
  48 H48           -5.2955    -7.5346    -7.7447 H       
  49 H49            1.4421    -5.1969    -2.6214 H       
  50 H50            2.1588    -6.5811    -1.7619 H       
  51 H51            0.7054    -6.8110    -2.7635 H       
  52 H52            1.9980    -5.4854     0.4218 H       
  53 H53           -0.0084    -4.4457     4.5851 H       
@<TRIPOS>BOND
   1    1    2 1
   2    1   31 1
   3    1   32 1
   4    1   33 1
   5    2    3 1
   6    3    4 1
   7    3   34 1
   8    3   35 1
   9    4   30 1
  10    4    5 2
  11    5    6 1
  12    6   27 ar
  13    6    7 ar
  14    7    8 ar
  15    8    9 1
  16    8   24 ar
  17    9   14 1
  18    9   10 1
  19   10   11 1
  20   10   36 1
  21   10   37 1
  22   11   12 1
  23   11   38 1
  24   11   39 1
  25   12   13 1
  26   12   15 1
  27   12   40 1
  28   13   14 1
  29   13   41 1
  30   13   42 1
  31   14   43 1
  32   14   44 1
  33   15   16 1
  34   16   21 ar
  35   16   17 ar
  36   17   18 ar
  37   17   45 1
  38   18   19 ar
  39   18   46 1
  40   19   20 ar
  41   19   47 1
  42   20   21 ar
  43   20   22 1
  44   21   48 1
  45   22   23 3
  46   24   25 1
  47   24   26 ar
  48   25   49 1
  49   25   50 1
  50   25   51 1
  51   26   27 ar
  52   26   52 1
  53   27   28 1
  54   28   29 2
  55   28   30 am
  56   30   53 1

#	End of record

