#	Name: ASD00960120
#	Creating user name:	WinNT
#	Creation time:	15. 06. 2019 18:53

#	Modifying user name:	WinNT
#	Modification time:	15. 06. 2019 18:53

#	Program:	/corina/corina34_cracker 3.40 0067  02.08.2006

@<TRIPOS>MOLECULE
ASD00960120
  36   38    0    0    0
SMALL
NO_CHARGES


@<TRIPOS>ATOM
   1 C1            -0.0189     1.5406     0.0105 C.3     
   2 C2             0.0021    -0.0041     0.0020 C.3     
   3 O3            -0.1198    -0.3671    -1.3905 O.3     
   4 C4            -1.0916     0.5497    -1.9391 C.3     
   5 C5            -0.9496     0.6289    -3.4605 C.3     
   6 C6             1.3035    -0.5142     0.5652 C.2     
   7 C7             1.5656    -0.6996     1.8785 C.2     
   8 N8             2.3898    -0.8634    -0.1677 N.pl3   
   9 C9             3.3838    -1.2804     0.6831 C.2     
  10 C10            2.8875    -1.1865     1.9888 C.2     
  11 N11            2.6489    -0.8697    -1.5463 N.2     
  12 C12            3.8116    -1.2652    -1.9915 C.2     
  13 N13            4.7812    -1.6713    -1.1770 N.2     
  14 C14            4.6162    -1.6948     0.1356 C.2     
  15 N15            5.6391    -2.1206     0.9606 N.pl3   
  16 C16           -0.7549     1.9132    -1.2959 C.3     
  17 O17            1.3126     2.0594     0.0006 O.3     
  18 O18           -1.1932    -0.6592    -4.0293 O.3     
  19 N19           -2.4481     0.1328    -1.5755 N.2     
  20 N20           -2.8397    -0.8645    -1.9155 N.1     
  21 N21           -3.2313    -1.8617    -2.2554 N.pl3   
  22 O22           -1.9512     2.6395    -1.0069 O.3     
  23 *23           -1.7797     4.0388    -0.9782 Du      
  24 C24            3.5817    -1.5185     3.1965 C.1     
  25 N25            4.1323    -1.7819     4.1546 N.1     
  26 H26           -0.5654     1.9103     0.8781 H       
  27 H27           -0.8394    -0.3981     0.5719 H       
  28 H28           -1.6717     1.3432    -3.8561 H       
  29 H29            0.0593     0.9535    -3.7148 H       
  30 H30            0.8866    -0.5097     2.6965 H       
  31 H31            3.9913    -1.2625    -3.0564 H       
  32 H32            6.4841    -2.4046     0.5784 H       
  33 H33            5.5123    -2.1356     1.9222 H       
  34 H34           -0.1032     2.4933    -1.9493 H       
  35 H35            1.3583     3.0253     0.0053 H       
  36 H36           -1.1200    -0.6837    -4.9932 H       
@<TRIPOS>BOND
   1    1    2 1
   2    1   17 1
   3    1   16 1
   4    1   26 1
   5    2    3 1
   6    2    6 1
   7    2   27 1
   8    3    4 1
   9    4    5 1
  10    4   19 1
  11    4   16 1
  12    5   18 1
  13    5   28 1
  14    5   29 1
  15    6    7 2
  16    6    8 1
  17    7   10 1
  18    7   30 1
  19    8    9 1
  20    8   11 1
  21    9   10 2
  22    9   14 1
  23   10   24 1
  24   11   12 2
  25   12   13 1
  26   12   31 1
  27   13   14 2
  28   14   15 1
  29   15   32 1
  30   15   33 1
  31   16   22 1
  32   16   34 1
  33   17   35 1
  34   18   36 1
  35   19   20 2
  36   20   21 2
  37   22   23 1
  38   24   25 3

#	End of record

