#	Name: ASD01913719
#	Creating user name:	WinNT
#	Creation time:	15. 06. 2019 20:02

#	Modifying user name:	WinNT
#	Modification time:	15. 06. 2019 20:02

#	Program:	/corina/corina34_cracker 3.40 0067  02.08.2006

@<TRIPOS>MOLECULE
ASD01913719
  41   43    0    0    0
SMALL
NO_CHARGES


@<TRIPOS>ATOM
   1 O1            -0.0282     1.2029    -0.1341 O.3     
   2 C2             0.0261    -0.1506    -0.1021 C.ar    
   3 N3             1.2029    -0.7555    -0.0532 N.ar    
   4 C4             1.3078    -2.0675    -0.0206 C.ar    
   5 C5             0.1681    -2.8724    -0.0373 C.ar    
   6 C6            -1.0944    -2.2628    -0.0889 C.ar    
   7 C7            -1.1560    -0.8849    -0.1155 C.ar    
   8 C8             0.2890    -4.3429    -0.0017 C.2     
   9 N9             1.5042    -4.9212    -0.0761 N.am    
  10 O10           -0.7077    -5.0328     0.0949 O.2     
  11 C11            1.6283    -6.3101     0.0579 C.ar    
  12 C12            1.2175     1.9028    -0.1123 C.3     
  13 C13            0.9604     3.3872    -0.1533 C.ar    
  14 C14            0.8036     4.1129     1.0176 C.ar    
  15 C15            0.5696     5.4729     0.9408 C.ar    
  16 N16            0.4947     6.0795    -0.2277 N.ar    
  17 C17            0.6389     5.4212    -1.3613 C.ar    
  18 C18            0.8809     4.0606    -1.3627 C.ar    
  19 C19           -2.3522    -3.0926    -0.1087 C.3     
  20 C20            0.6306    -7.1465    -0.4223 C.ar    
  21 C21            0.7547    -8.5163    -0.2892 C.ar    
  22 C22            1.8731    -9.0556     0.3230 C.ar    
  23 C23            2.8710    -8.2241     0.8036 C.ar    
  24 C24            2.7544    -6.8532     0.6673 C.ar    
  25 F25            3.7276    -6.0417     1.1359 F       
  26 F26            1.9910   -10.3953     0.4524 F       
  27 H27            2.2853    -2.5252     0.0191 H       
  28 H28           -2.1109    -0.3818    -0.1553 H       
  29 H29            2.2928    -4.3757    -0.2225 H       
  30 H30            1.7588     1.6529     0.8002 H       
  31 H31            1.8123     1.6130    -0.9785 H       
  32 H32            0.8631     3.6217     1.9775 H       
  33 H33            0.4463     6.0453     1.8482 H       
  34 H34            0.5707     5.9523    -2.2992 H       
  35 H35            0.9984     3.5271    -2.2944 H       
  36 H36           -2.6201    -3.3706     0.9106 H       
  37 H37           -3.1623    -2.5138    -0.5523 H       
  38 H38           -2.1839    -3.9935    -0.6987 H       
  39 H39           -0.2427    -6.7270    -0.8995 H       
  40 H40           -0.0220    -9.1670    -0.6631 H       
  41 H41            3.7427    -8.6470     1.2809 H       
@<TRIPOS>BOND
   1    1    2 1
   2    1   12 1
   3    2    3 ar
   4    2    7 ar
   5    3    4 ar
   6    4    5 ar
   7    4   27 1
   8    5    6 ar
   9    5    8 1
  10    6    7 ar
  11    6   19 1
  12    7   28 1
  13    8    9 am
  14    8   10 2
  15    9   11 1
  16    9   29 1
  17   11   20 ar
  18   11   24 ar
  19   12   13 1
  20   12   30 1
  21   12   31 1
  22   13   14 ar
  23   13   18 ar
  24   14   15 ar
  25   14   32 1
  26   15   16 ar
  27   15   33 1
  28   16   17 ar
  29   17   18 ar
  30   17   34 1
  31   18   35 1
  32   19   36 1
  33   19   37 1
  34   19   38 1
  35   20   21 ar
  36   20   39 1
  37   21   22 ar
  38   21   40 1
  39   22   23 ar
  40   22   26 1
  41   23   24 ar
  42   23   41 1
  43   24   25 1

#	End of record

