#	Name: ASD01028108
#	Creating user name:	WinNT
#	Creation time:	15. 06. 2019 18:56

#	Modifying user name:	WinNT
#	Modification time:	15. 06. 2019 18:56

#	Program:	/corina/corina34_cracker 3.40 0067  02.08.2006

@<TRIPOS>MOLECULE
ASD01028108
  63   67    0    0    0
SMALL
NO_CHARGES


@<TRIPOS>ATOM
   1 C1            -0.0187     1.5256     0.0104 C.3     
   2 C2             0.0021    -0.0041     0.0020 C.3     
   3 C3            -1.3923    -0.5365     0.3385 C.3     
   4 C4             2.0898     1.7682     1.3333 C.3     
   5 C5             1.4114     2.0681    -0.0003 C.3     
   6 N6             2.4858     3.0424     1.9909 N.3     
   7 N7             0.3293     1.6722     4.4513 N.pl3   
   8 C8             1.0512     2.7286     5.0404 C.ar    
   9 C9             1.5350     3.7083     4.1741 C.ar    
  10 C10            1.3031     3.5851     2.6947 C.3     
  11 C11            1.3215     2.8056     6.3959 C.ar    
  12 C12            2.0016     3.9108     6.8993 C.ar    
  13 C13            2.4293     4.9131     6.0392 C.ar    
  14 C14            2.2018     4.8056     4.6817 C.ar    
  15 O15           -1.2879    -1.6763     1.1955 O.3     
  16 C16           -1.5425    -1.4751     2.5162 C.ar    
  17 C17           -0.9061    -0.4440     3.1531 C.ar    
  18 C18           -1.1520    -0.2079     4.5093 C.ar    
  19 C19           -0.5231     0.8664     5.2005 C.ar    
  20 N20           -0.8016     1.0302     6.4743 N.ar    
  21 O21            1.0661     1.9502     7.4265 O.3     
  22 C22            1.4446     2.6031     8.6404 C.3     
  23 O23            2.1317     3.7936     8.2497 O.3     
  24 C24           -2.4324    -2.3022     3.2138 C.ar    
  25 C25           -2.6824    -2.0921     4.5539 C.ar    
  26 C26           -2.0456    -1.0394     5.2238 C.ar    
  27 N27           -2.2510    -0.7832     6.5255 N.ar    
  28 C28           -1.6412     0.2222     7.1099 C.ar    
  29 O29           -3.0559    -3.3197     2.5648 O.3     
  30 C30           -3.9513    -4.1267     3.3323 C.3     
  31 C31           -4.5534    -5.2123     2.4380 C.3     
  32 C32           -5.5121    -6.0763     3.2598 C.3     
  33 C33            3.5284     2.6940     2.9933 C.3     
  34 Br34          -6.2857    -7.4713     2.1106 Br      
  35 H35           -0.5476     1.8848    -0.8729 H       
  36 H36           -0.5324     1.8765     0.9055 H       
  37 H37            0.2986    -0.3590    -0.9846 H       
  38 H38            0.7152    -0.3631     0.7446 H       
  39 H39           -1.9660     0.2428     0.8403 H       
  40 H40           -1.9018    -0.8217    -0.5824 H       
  41 H41            1.4143     1.2298     1.9875 H       
  42 H42            2.9918     1.1812     1.1626 H       
  43 H43            1.9706     1.5907    -0.8070 H       
  44 H44            1.3900     3.1451    -0.1676 H       
  45 H45            0.4351     1.4986     3.4994 H       
  46 H46            1.0955     4.5784     2.2833 H       
  47 H47            0.4477     2.9454     2.4963 H       
  48 H48            2.9404     5.7791     6.4343 H       
  49 H49            2.5440     5.5821     4.0123 H       
  50 H50           -0.2174     0.1759     2.6003 H       
  51 H51            0.5582     2.8554     9.2222 H       
  52 H52            2.1056     1.9614     9.2217 H       
  53 H53           -3.3665    -2.7375     5.0862 H       
  54 H54           -1.8321     0.3993     8.1580 H       
  55 H55           -3.4071    -4.5929     4.1536 H       
  56 H56           -4.7497    -3.5024     3.7336 H       
  57 H57           -5.0976    -4.7460     1.6168 H       
  58 H58           -3.7550    -5.8365     2.0368 H       
  59 H59           -4.9679    -6.5426     4.0810 H       
  60 H60           -6.3105    -5.4521     3.6610 H       
  61 H61            4.3787     2.2354     2.4886 H       
  62 H62            3.8551     3.5981     3.5069 H       
  63 H63            3.1152     1.9931     3.7187 H       
@<TRIPOS>BOND
   1    1    2 1
   2    1    5 1
   3    1   35 1
   4    1   36 1
   5    2    3 1
   6    2   37 1
   7    2   38 1
   8    3   15 1
   9    3   39 1
  10    3   40 1
  11    4    5 1
  12    4    6 1
  13    4   41 1
  14    4   42 1
  15    5   43 1
  16    5   44 1
  17    6   33 1
  18    6   10 1
  19    7    8 1
  20    7   19 1
  21    7   45 1
  22    8    9 ar
  23    8   11 ar
  24    9   10 1
  25    9   14 ar
  26   10   46 1
  27   10   47 1
  28   11   12 ar
  29   11   21 1
  30   12   13 ar
  31   12   23 1
  32   13   14 ar
  33   13   48 1
  34   14   49 1
  35   15   16 1
  36   16   17 ar
  37   16   24 ar
  38   17   18 ar
  39   17   50 1
  40   18   19 ar
  41   18   26 ar
  42   19   20 ar
  43   20   28 ar
  44   21   22 1
  45   22   23 1
  46   22   51 1
  47   22   52 1
  48   24   25 ar
  49   24   29 1
  50   25   26 ar
  51   25   53 1
  52   26   27 ar
  53   27   28 ar
  54   28   54 1
  55   29   30 1
  56   30   31 1
  57   30   55 1
  58   30   56 1
  59   31   32 1
  60   31   57 1
  61   31   58 1
  62   32   34 1
  63   32   59 1
  64   32   60 1
  65   33   61 1
  66   33   62 1
  67   33   63 1

#	End of record

