#	Name: ASD01900280
#	Creating user name:	WinNT
#	Creation time:	15. 06. 2019 19:51

#	Modifying user name:	WinNT
#	Modification time:	15. 06. 2019 19:51

#	Program:	/corina/corina34_cracker 3.40 0067  02.08.2006

@<TRIPOS>MOLECULE
ASD01900280
  64   69    0    0    0
SMALL
NO_CHARGES


@<TRIPOS>ATOM
   1 C1             0.1421     0.8507    -0.2617 C.ar    
   2 C2             0.3209    -0.5030    -0.2968 C.ar    
   3 C3             1.6055    -1.0471    -0.4037 C.ar    
   4 C4             2.7201    -0.2093    -0.4676 C.ar    
   5 C5             2.5434     1.1603    -0.4272 C.ar    
   6 C6             1.2463     1.6996    -0.3342 C.ar    
   7 N7             3.6220     2.0379    -0.4695 N.pl3   
   8 C8             3.4231     3.3761    -1.0379 C.3     
   9 N9             2.1616     3.9461    -0.5638 N.am    
  10 C10            1.0951     3.1641    -0.3051 C.2     
  11 C11            4.5828     4.2817    -0.6131 C.3     
  12 C12            3.3970     3.2782    -2.5658 C.3     
  13 C13            3.2613     4.6822    -3.1594 C.3     
  14 N14            4.3924     5.5112    -2.7237 N.3     
  15 C15            4.4134     5.6570    -1.2627 C.3     
  16 C16            2.0608     5.3301    -0.3751 C.ar    
  17 C17            1.4065     6.1137    -1.3165 C.ar    
  18 C18            1.3076     7.4783    -1.1297 C.ar    
  19 C19            1.8616     8.0664    -0.0020 C.ar    
  20 C20            2.5153     7.2842     0.9388 C.ar    
  21 C21            2.6101     5.9187     0.7563 C.ar    
  22 C22            2.3573     9.9485     1.3644 C.3     
  23 O23            1.7641     9.4102     0.1810 O.3     
  24 C24            4.3683     6.8235    -3.3834 C.3     
  25 C25            5.4777     7.6826    -2.8337 C.ar    
  26 C26            6.7569     7.5696    -3.3458 C.ar    
  27 C27            7.7761     8.3581    -2.8416 C.ar    
  28 C28            7.5127     9.2612    -1.8225 C.ar    
  29 C29            6.2314     9.3718    -1.3121 C.ar    
  30 C30            5.2140     8.5866    -1.8220 C.ar    
  31 O31            0.0159     3.6639    -0.0499 O.2     
  32 C32            1.7829    -2.5133    -0.4486 C.2     
  33 N33            0.8233    -3.3927    -0.3966 N.2     
  34 C34            1.1686    -4.6569    -0.4496 C.2     
  35 C35            2.4813    -4.8994    -0.5520 C.2     
  36 S36            3.3255    -3.3526    -0.5886 S.3     
  37 F37            8.5063    10.0317    -1.3283 F       
  38 F38            9.0265     8.2480    -3.3411 F       
  39 H39           -0.8529     1.2630    -0.1824 H       
  40 H40           -0.5357    -1.1584    -0.2412 H       
  41 H41            3.7123    -0.6282    -0.5475 H       
  42 H42            4.4899     1.7701    -0.1290 H       
  43 H43            4.5824     4.3890     0.4716 H       
  44 H44            5.5260     3.8406    -0.9355 H       
  45 H45            4.3227     2.8224    -2.9171 H       
  46 H46            2.5491     2.6680    -2.8770 H       
  47 H47            3.2563     4.6176    -4.2474 H       
  48 H48            2.3289     5.1321    -2.8183 H       
  49 H49            3.4766     6.1033    -0.9289 H       
  50 H50            5.2448     6.2999    -0.9738 H       
  51 H51            0.9755     5.6561    -2.1947 H       
  52 H52            0.7991     8.0879    -1.8620 H       
  53 H53            2.9463     7.7427     1.8165 H       
  54 H54            3.1152     5.3093     1.4911 H       
  55 H55            1.8912     9.4989     2.2412 H       
  56 H56            3.4250     9.7291     1.3677 H       
  57 H57            2.2081    11.0280     1.3869 H       
  58 H58            4.5074     6.6932    -4.4567 H       
  59 H59            3.4088     7.3061    -3.1974 H       
  60 H60            6.9608     6.8657    -4.1391 H       
  61 H61            6.0251    10.0744    -0.5183 H       
  62 H62            4.2132     8.6765    -1.4263 H       
  63 H63            0.4395    -5.4528    -0.4125 H       
  64 H64            2.9429    -5.8743    -0.6067 H       
@<TRIPOS>BOND
   1    1    2 ar
   2    1    6 ar
   3    1   39 1
   4    2    3 ar
   5    2   40 1
   6    3    4 ar
   7    3   32 1
   8    4    5 ar
   9    4   41 1
  10    5    7 1
  11    5    6 ar
  12    6   10 1
  13    7    8 1
  14    7   42 1
  15    8    9 1
  16    8   12 1
  17    8   11 1
  18    9   10 am
  19    9   16 1
  20   10   31 2
  21   11   15 1
  22   11   43 1
  23   11   44 1
  24   12   13 1
  25   12   45 1
  26   12   46 1
  27   13   14 1
  28   13   47 1
  29   13   48 1
  30   14   15 1
  31   14   24 1
  32   15   49 1
  33   15   50 1
  34   16   17 ar
  35   16   21 ar
  36   17   18 ar
  37   17   51 1
  38   18   19 ar
  39   18   52 1
  40   19   20 ar
  41   19   23 1
  42   20   21 ar
  43   20   53 1
  44   21   54 1
  45   22   23 1
  46   22   55 1
  47   22   56 1
  48   22   57 1
  49   24   25 1
  50   24   58 1
  51   24   59 1
  52   25   26 ar
  53   25   30 ar
  54   26   27 ar
  55   26   60 1
  56   27   28 ar
  57   27   38 1
  58   28   29 ar
  59   28   37 1
  60   29   30 ar
  61   29   61 1
  62   30   62 1
  63   32   33 2
  64   32   36 1
  65   33   34 1
  66   34   35 2
  67   34   63 1
  68   35   36 1
  69   35   64 1

#	End of record

