#	Name: ASD04220034
#	Creating user name:	WinNT
#	Creation time:	15. 06. 2019 20:48

#	Modifying user name:	WinNT
#	Modification time:	15. 06. 2019 20:48

#	Program:	/corina/corina34_cracker 3.40 0067  02.08.2006

@<TRIPOS>MOLECULE
ASD04220034
  54   56    0    0    0
SMALL
NO_CHARGES


@<TRIPOS>ATOM
   1 C1             0.4253     1.4672     0.3618 C.3     
   2 N2             0.3997     0.0009     0.3289 N.am    
   3 C3             0.9281    -0.6567    -0.8779 C.3     
   4 C4             2.4189    -0.3355    -0.9723 C.3     
   5 C5             2.6650     1.1352    -0.7615 C.ar    
   6 C6             3.8736     1.6600    -1.2178 C.ar    
   7 C7             4.1677     3.0014    -1.0480 C.ar    
   8 C8             3.2575     3.8302    -0.4207 C.ar    
   9 C9             2.0552     3.3129     0.0297 C.ar    
  10 C10            1.7567     1.9634    -0.1438 C.ar    
  11 C11            0.7332    -2.1474    -0.7731 C.2     
  12 O12           -0.1256    -2.6983    -1.4405 O.co2   
  13 O13            1.4344    -2.8025    -0.0209 O.co2   
  14 C14           -0.0874    -0.7153     1.3615 C.2     
  15 C15           -0.5017    -0.0192     2.6323 C.3     
  16 O16           -0.1923    -1.9199     1.2681 O.2     
  17 C17           -1.0071    -1.0379     3.6212 C.ar    
  18 C18           -0.1134    -1.7131     4.4395 C.ar    
  19 C19           -0.5786    -2.6502     5.3498 C.ar    
  20 C20           -1.9321    -2.9109     5.4421 C.ar    
  21 C21           -2.8256    -2.2356     4.6243 C.ar    
  22 C22           -2.3607    -1.2951     3.7168 C.ar    
  23 O23           -4.1579    -2.4922     4.7151 O.3     
  24 S24           -4.8909    -1.6124     5.7177 S.o2    
  25 O25           -6.1831    -2.2361     5.9571 O.co2   
  26 O26           -4.0722    -1.5741     6.9195 O.co2   
  27 O27           -5.0235    -0.2995     5.1054 O.co2   
  28 O28            1.2189    -1.4565     4.3487 O.3     
  29 S29            1.6989    -0.3427     5.2683 S.o2    
  30 O30            3.0209     0.0458     4.8020 O.co2   
  31 O31            0.7375     0.7426     5.1498 O.co2   
  32 O32            1.7350    -0.8955     6.6133 O.co2   
  33 O33            1.1587     4.1284     0.6466 O.3     
  34 S34            0.1667     4.7871    -0.3012 S.o2    
  35 O35           -0.4623     5.8712     0.4371 O.co2   
  36 O36            0.9325     5.2734    -1.4384 O.co2   
  37 O37           -0.7903     3.7614    -0.6861 O.co2   
  38 O38            4.7715     0.8462    -1.8349 O.3     
  39 S39            4.5933     0.7594    -3.3439 S.o2    
  40 O40            5.3628    -0.3910    -3.7917 O.co2   
  41 O41            3.1692     0.5927    -3.5893 O.co2   
  42 O42            5.1007     2.0049    -3.8985 O.co2   
  43 H43           -0.3715     1.8581    -0.2709 H       
  44 H44            0.2756     1.8096     1.3857 H       
  45 H45            0.4125    -0.2777    -1.7602 H       
  46 H46            2.9564    -0.9016    -0.2116 H       
  47 H47            2.7857    -0.6227    -1.9578 H       
  48 H48            5.1063     3.3993    -1.4044 H       
  49 H49            3.4831     4.8774    -0.2826 H       
  50 H50            0.3555     0.5042     3.0559 H       
  51 H51           -1.2929     0.6976     2.4127 H       
  52 H52            0.1173    -3.1764     5.9864 H       
  53 H53           -2.2944    -3.6409     6.1507 H       
  54 H54           -3.0569    -0.7662     3.0828 H       
@<TRIPOS>BOND
   1    1    2 1
   2    1   10 1
   3    1   43 1
   4    1   44 1
   5    2    3 1
   6    2   14 am
   7    3    4 1
   8    3   11 1
   9    3   45 1
  10    4    5 1
  11    4   46 1
  12    4   47 1
  13    5    6 ar
  14    5   10 ar
  15    6    7 ar
  16    6   38 1
  17    7    8 ar
  18    7   48 1
  19    8    9 ar
  20    8   49 1
  21    9   10 ar
  22    9   33 1
  23   11   12 ar
  24   11   13 ar
  25   14   15 1
  26   14   16 2
  27   15   17 1
  28   15   50 1
  29   15   51 1
  30   17   18 ar
  31   17   22 ar
  32   18   19 ar
  33   18   28 1
  34   19   20 ar
  35   19   52 1
  36   20   21 ar
  37   20   53 1
  38   21   22 ar
  39   21   23 1
  40   22   54 1
  41   23   24 1
  42   24   25 ar
  43   24   26 ar
  44   24   27 ar
  45   28   29 1
  46   29   30 ar
  47   29   31 ar
  48   29   32 ar
  49   33   34 1
  50   34   35 ar
  51   34   36 ar
  52   34   37 ar
  53   38   39 1
  54   39   40 ar
  55   39   41 ar
  56   39   42 ar

#	End of record

