#	Name: ASD05790019
#	Creating user name:	WinNT
#	Creation time:	15. 06. 2019 21:03

#	Modifying user name:	WinNT
#	Modification time:	15. 06. 2019 21:03

#	Program:	/corina/corina34_cracker 3.40 0067  02.08.2006

@<TRIPOS>MOLECULE
ASD05790019
  45   48    0    0    0
SMALL
NO_CHARGES


@<TRIPOS>ATOM
   1 C1            -0.1753     1.4740    -0.5693 C.2     
   2 C2            -0.1532    -0.0033    -0.5732 C.ar    
   3 C3             0.8981    -0.6870    -1.1872 C.ar    
   4 C4             0.9134    -2.0658    -1.1871 C.ar    
   5 C5            -0.1113    -2.7726    -0.5795 C.ar    
   6 C6            -1.1571    -2.1000     0.0308 C.ar    
   7 C7            -1.1805    -0.7213     0.0423 C.ar    
   8 O8             0.7230     2.0968    -1.1015 O.2     
   9 N9            -1.1942     2.1312     0.0193 N.am    
  10 C10           -1.1619     3.5236     0.1191 C.ar    
  11 C11           -2.3411     4.2538     0.0191 C.ar    
  12 C12           -2.3128     5.6276     0.1176 C.ar    
  13 C13           -1.0980     6.2869     0.3182 C.ar    
  14 C14            0.0844     5.5506     0.4183 C.ar    
  15 C15            0.0486     4.1766     0.3242 C.ar    
  16 O16           -2.1302     8.5749     0.3440 O.3     
  17 C17           -1.0639     7.7601     0.4238 C.2     
  18 N18            0.0114     8.4869     0.6113 N.2     
  19 C19           -0.3500     9.7862     0.6549 C.2     
  20 C20           -1.6953     9.8419     0.4870 C.2     
  21 C21           -2.5435    11.0873     0.4638 C.3     
  22 F22           -2.6389    11.5622    -0.8487 F       
  23 F23           -3.8226    10.7895     0.9461 F       
  24 F24           -1.9565    12.0665     1.2725 F       
  25 C25            0.5583    10.9433     0.8502 C.ar    
  26 C26            1.6703    10.8268     1.6818 C.ar    
  27 C27            2.5117    11.9062     1.8599 C.ar    
  28 C28            2.2528    13.1021     1.2148 C.ar    
  29 C29            1.1504    13.2233     0.3882 C.ar    
  30 C30            0.3055    12.1486     0.1983 C.ar    
  31 Cl31          -0.0850    -4.5084    -0.5835 Cl      
  32 H32            1.6974    -0.1370    -1.6616 H       
  33 H33            1.7258    -2.5958    -1.6620 H       
  34 H34           -1.9536    -2.6564     0.5024 H       
  35 H35           -1.9940    -0.1979     0.5227 H       
  36 H36           -1.9499     1.6369     0.3736 H       
  37 H37           -3.2801     3.7434    -0.1364 H       
  38 H38           -3.2289     6.1942     0.0394 H       
  39 H39            1.0254     6.0574     0.5734 H       
  40 H40            0.9621     3.6063     0.4056 H       
  41 H41            1.8732     9.8936     2.1863 H       
  42 H42            3.3737    11.8171     2.5045 H       
  43 H43            2.9137    13.9443     1.3573 H       
  44 H44            0.9527    14.1595    -0.1128 H       
  45 H45           -0.5523    12.2429    -0.4511 H       
@<TRIPOS>BOND
   1    1    2 1
   2    1    8 2
   3    1    9 am
   4    2    3 ar
   5    2    7 ar
   6    3    4 ar
   7    3   32 1
   8    4    5 ar
   9    4   33 1
  10    5    6 ar
  11    5   31 1
  12    6    7 ar
  13    6   34 1
  14    7   35 1
  15    9   10 1
  16    9   36 1
  17   10   11 ar
  18   10   15 ar
  19   11   12 ar
  20   11   37 1
  21   12   13 ar
  22   12   38 1
  23   13   14 ar
  24   13   17 1
  25   14   15 ar
  26   14   39 1
  27   15   40 1
  28   16   17 1
  29   16   20 1
  30   17   18 2
  31   18   19 1
  32   19   20 2
  33   19   25 1
  34   20   21 1
  35   21   22 1
  36   21   23 1
  37   21   24 1
  38   25   26 ar
  39   25   30 ar
  40   26   27 ar
  41   26   41 1
  42   27   28 ar
  43   27   42 1
  44   28   29 ar
  45   28   43 1
  46   29   30 ar
  47   29   44 1
  48   30   45 1

#	End of record

