#	Name: ASD01150760
#	Creating user name:	WinNT
#	Creation time:	15. 06. 2019 19:05

#	Modifying user name:	WinNT
#	Modification time:	15. 06. 2019 19:05

#	Program:	/corina/corina34_cracker 3.40 0067  02.08.2006

@<TRIPOS>MOLECULE
ASD01150760
  56   59    0    0    0
SMALL
NO_CHARGES


@<TRIPOS>ATOM
   1 C1            -0.0034     1.4275     0.0439 C.2     
   2 C2            -0.5036     1.0184    -1.3175 C.3     
   3 N3             3.5644     2.3089     0.4769 N.ar    
   4 C4             2.4628     1.6142     0.3657 C.ar    
   5 C5             1.2157     2.2341     0.1654 C.ar    
   6 C6             1.1525     3.6368     0.0827 C.ar    
   7 C7             2.3650     4.3592     0.2073 C.ar    
   8 C8             2.3843     5.7578     0.1353 C.ar    
   9 C9             3.5839     6.4278     0.2605 C.ar    
  10 C10            4.7742     5.7199     0.4580 C.ar    
  11 C11            4.7770     4.3612     0.5308 C.ar    
  12 C12            3.5734     3.6472     0.4073 C.ar    
  13 N13            3.6100     7.8221     0.1892 N.3     
  14 C14            4.9784     8.3314     0.3458 C.3     
  15 C15            4.9900     9.8447     0.1178 C.3     
  16 C16            4.0569    10.5155     1.1296 C.3     
  17 C17            2.6491     9.9326     0.9783 C.3     
  18 C18            2.7053     8.4168     1.1813 C.3     
  19 C19            2.5302     0.1112     0.4537 C.3     
  20 C20           -0.1339     4.3329    -0.1274 C.ar    
  21 C21           -1.1322     4.2713     0.8473 C.ar    
  22 C22           -2.3304     4.9238     0.6449 C.ar    
  23 C23           -2.5445     5.6383    -0.5207 C.ar    
  24 C24           -1.5599     5.7032    -1.4909 C.ar    
  25 C25           -0.3548     5.0602    -1.2991 C.ar    
  26 S26           -4.0782     6.4689    -0.7710 S.o2    
  27 O27           -4.2120     6.5396    -2.1839 O.2     
  28 O28           -5.0062     5.7360     0.0170 O.2     
  29 C29           -3.8166     8.1226    -0.0728 C.3     
  30 F30           -1.6221     0.1905    -1.1739 F       
  31 F31           -0.8581     2.1589    -2.0462 F       
  32 F32            0.5050     0.3261    -1.9963 F       
  33 O33           -0.6117     1.0940     1.0391 O.2     
  34 H34            1.4673     6.3076    -0.0175 H       
  35 H35            5.7047     6.2598     0.5537 H       
  36 H36            5.7055     3.8311     0.6837 H       
  37 H37            5.3342     8.1131     1.3526 H       
  38 H38            5.6309     7.8495    -0.3823 H       
  39 H39            6.0031    10.2248     0.2495 H       
  40 H40            4.6474    10.0630    -0.8936 H       
  41 H41            4.4213    10.3299     2.1400 H       
  42 H42            4.0286    11.5891     0.9431 H       
  43 H43            1.9896    10.3755     1.7247 H       
  44 H44            2.2696    10.1523    -0.0196 H       
  45 H45            1.7068     7.9969     1.0600 H       
  46 H46            3.0718     8.1981     2.1842 H       
  47 H47            2.4888    -0.1937     1.4994 H       
  48 H48            1.6877    -0.3224    -0.0849 H       
  49 H49            3.4630    -0.2372     0.0104 H       
  50 H50           -0.9665     3.7137     1.7573 H       
  51 H51           -3.1034     4.8767     1.3976 H       
  52 H52           -1.7337     6.2623    -2.3984 H       
  53 H53            0.4147     5.1157    -2.0549 H       
  54 H54           -2.9975     8.6135    -0.5983 H       
  55 H55           -4.7261     8.7126    -0.1856 H       
  56 H56           -3.5690     8.0353     0.9851 H       
@<TRIPOS>BOND
   1    1    2 1
   2    1    5 1
   3    1   33 2
   4    2   30 1
   5    2   31 1
   6    2   32 1
   7    3    4 ar
   8    3   12 ar
   9    4    5 ar
  10    4   19 1
  11    5    6 ar
  12    6    7 ar
  13    6   20 1
  14    7    8 ar
  15    7   12 ar
  16    8    9 ar
  17    8   34 1
  18    9   10 ar
  19    9   13 1
  20   10   11 ar
  21   10   35 1
  22   11   12 ar
  23   11   36 1
  24   13   14 1
  25   13   18 1
  26   14   15 1
  27   14   37 1
  28   14   38 1
  29   15   16 1
  30   15   39 1
  31   15   40 1
  32   16   17 1
  33   16   41 1
  34   16   42 1
  35   17   18 1
  36   17   43 1
  37   17   44 1
  38   18   45 1
  39   18   46 1
  40   19   47 1
  41   19   48 1
  42   19   49 1
  43   20   21 ar
  44   20   25 ar
  45   21   22 ar
  46   21   50 1
  47   22   23 ar
  48   22   51 1
  49   23   24 ar
  50   23   26 1
  51   24   25 ar
  52   24   52 1
  53   25   53 1
  54   26   27 2
  55   26   28 2
  56   26   29 1
  57   29   54 1
  58   29   55 1
  59   29   56 1

#	End of record

