#	Name: ASD02038055
#	Creating user name:	WinNT
#	Creation time:	15. 06. 2019 20:16

#	Modifying user name:	WinNT
#	Modification time:	15. 06. 2019 20:16

#	Program:	/corina/corina34_cracker 3.40 0067  02.08.2006

@<TRIPOS>MOLECULE
ASD02038055
  55   57    0    0    0
SMALL
NO_CHARGES


@<TRIPOS>ATOM
   1 C1            -0.5782     1.6774    -0.1295 C.3     
   2 N2             1.2783     3.2981     0.0838 N.am    
   3 C3             0.8806     2.0108     0.0487 C.2     
   4 C4             2.0760     6.7931     2.3764 C.3     
   5 O5             1.3130     7.9718     2.1107 O.3     
   6 C6             1.3445     8.9527     3.0518 C.ar    
   7 C7             0.6264    10.1235     2.8573 C.ar    
   8 C8             2.0902     8.7799     4.2087 C.ar    
   9 C9             2.1219     9.7754     5.1653 C.ar    
  10 C10            1.4077    10.9495     4.9687 C.ar    
  11 C11            0.6581    11.1201     3.8126 C.ar    
  12 O12            1.6968     1.1207     0.1604 O.2     
  13 N13            1.4391    11.9600     5.9393 N.am    
  14 C14           -0.7545     0.1808    -0.1347 C.ar    
  15 C15           -0.6815    -0.5193    -1.3245 C.ar    
  16 C16            2.5699    12.1910     6.6353 C.2     
  17 N17            2.6296    13.2222     7.5010 N.am    
  18 O18            3.5362    11.4690     6.4823 O.2     
  19 C19            3.8588    13.4733     8.2576 C.3     
  20 C20           -0.9835    -0.4921     1.0510 C.ar    
  21 C21           -1.1448    -1.8648     1.0468 C.ar    
  22 C22           -1.0771    -2.5654    -0.1442 C.ar    
  23 C23           -0.8426    -1.8920    -1.3299 C.ar    
  24 Cl24          -1.2795    -4.2896    -0.1502 Cl      
  25 C25            2.6970     3.6388     0.2569 C.3     
  26 C26            2.8317     4.6036     1.4392 C.3     
  27 C27            1.9183     5.8107     1.2141 C.3     
  28 C28            0.4630     5.3437     1.1351 C.3     
  29 C29            0.3022     4.3872    -0.0563 C.3     
  30 H30           -1.1521     2.1080     0.6910 H       
  31 H31           -0.9319     2.0883    -1.0751 H       
  32 H32            3.1273     7.0583     2.4879 H       
  33 H33            1.7189     6.3287     3.2956 H       
  34 H34            0.0428    10.2557     1.9582 H       
  35 H35            2.6458     7.8664     4.3615 H       
  36 H36            2.7020     9.6404     6.0662 H       
  37 H37            0.1023    12.0333     3.6591 H       
  38 H38            0.6470    12.4932     6.1102 H       
  39 H39           -0.4988     0.0065    -2.2500 H       
  40 H40            1.8588    13.7982     7.6231 H       
  41 H41            4.0933    12.6021     8.8692 H       
  42 H42            4.6792    13.6627     7.5654 H       
  43 H43            3.7184    14.3419     8.9010 H       
  44 H44           -1.0359     0.0549     1.9807 H       
  45 H45           -1.3233    -2.3904     1.9733 H       
  46 H46           -0.7897    -2.4384    -2.2600 H       
  47 H47            3.2686     2.7327     0.4578 H       
  48 H48            3.0713     4.1162    -0.6487 H       
  49 H49            2.5422     4.0948     2.3587 H       
  50 H50            3.8656     4.9395     1.5187 H       
  51 H51            2.1923     6.3045     0.2818 H       
  52 H52            0.1959     4.8280     2.0575 H       
  53 H53           -0.1890     6.2064     0.9981 H       
  54 H54            0.4809     4.9279    -0.9857 H       
  55 H55           -0.7065     3.9741    -0.0596 H       
@<TRIPOS>BOND
   1    1   14 1
   2    1    3 1
   3    1   30 1
   4    1   31 1
   5    2    3 am
   6    2   25 1
   7    2   29 1
   8    3   12 2
   9    4    5 1
  10    4   27 1
  11    4   32 1
  12    4   33 1
  13    5    6 1
  14    6    7 ar
  15    6    8 ar
  16    7   11 ar
  17    7   34 1
  18    8    9 ar
  19    8   35 1
  20    9   10 ar
  21    9   36 1
  22   10   11 ar
  23   10   13 1
  24   11   37 1
  25   13   16 am
  26   13   38 1
  27   14   20 ar
  28   14   15 ar
  29   15   23 ar
  30   15   39 1
  31   16   17 am
  32   16   18 2
  33   17   19 1
  34   17   40 1
  35   19   41 1
  36   19   42 1
  37   19   43 1
  38   20   21 ar
  39   20   44 1
  40   21   22 ar
  41   21   45 1
  42   22   23 ar
  43   22   24 1
  44   23   46 1
  45   25   26 1
  46   25   47 1
  47   25   48 1
  48   26   27 1
  49   26   49 1
  50   26   50 1
  51   27   28 1
  52   27   51 1
  53   28   29 1
  54   28   52 1
  55   28   53 1
  56   29   54 1
  57   29   55 1

#	End of record

