#	Name: ASD01900666
#	Creating user name:	WinNT
#	Creation time:	15. 06. 2019 19:52

#	Modifying user name:	WinNT
#	Modification time:	15. 06. 2019 19:52

#	Program:	/corina/corina34_cracker 3.40 0067  02.08.2006

@<TRIPOS>MOLECULE
ASD01900666
  44   48    0    0    0
SMALL
NO_CHARGES


@<TRIPOS>ATOM
   1 C1            -0.0185     1.4142     0.1355 C.ar    
   2 C2            -0.0084     0.0183     0.1244 C.ar    
   3 C3             1.1956    -0.6774     0.0646 C.ar    
   4 C4             2.3938     0.0178     0.0149 C.ar    
   5 C5             2.3730     1.4204     0.0303 C.ar    
   6 O6             3.5683    -0.6451    -0.0551 O.3     
   7 C7             4.7405    -0.0353     0.1918 C.2     
   8 C8             4.8738     1.3114     0.2226 C.2     
   9 C9             3.6730     2.1364    -0.0104 C.2     
  10 C10            5.9330    -0.8698     0.4403 C.ar    
  11 N11            7.1053    -0.2782     0.6872 N.ar    
  12 C12            8.2033    -0.9540     0.9166 C.ar    
  13 C13            8.1841    -2.3598     0.9105 C.ar    
  14 C14            6.9575    -3.0277     0.6522 C.ar    
  15 C15            5.8116    -2.2504     0.4183 C.ar    
  16 C16            9.3404    -3.1173     1.1509 C.ar    
  17 C17            9.2689    -4.4776     1.1330 C.ar    
  18 C18            8.0650    -5.1321     0.8796 C.ar    
  19 C19            6.9216    -4.4305     0.6422 C.ar    
  20 C20            1.1689     2.1123     0.0885 C.ar    
  21 C21           -1.2890    -0.7283     0.1773 C.ar    
  22 C22           -2.4987    -0.0387     0.2378 C.ar    
  23 C23           -1.2873    -2.1220     0.1608 C.ar    
  24 C24           -2.4819    -2.8114     0.2097 C.ar    
  25 C25           -3.6793    -2.1218     0.2750 C.ar    
  26 C26           -3.6872    -0.7386     0.2863 C.ar    
  27 N27            3.7494     3.4252    -0.2390 N.2     
  28 O28            2.5885     4.1496    -0.6035 O.3     
  29 H29           -0.9570     1.9471     0.1763 H       
  30 H30            1.1963    -1.7574     0.0573 H       
  31 H31            5.8332     1.7696     0.4126 H       
  32 H32            9.1271    -0.4294     1.1108 H       
  33 H33            4.8588    -2.7178     0.2179 H       
  34 H34           10.2811    -2.6251     1.3486 H       
  35 H35           10.1603    -5.0586     1.3180 H       
  36 H36            8.0379    -6.2118     0.8716 H       
  37 H37            5.9949    -4.9499     0.4475 H       
  38 H38            1.1638     3.1923     0.0969 H       
  39 H39           -2.5060     1.0412     0.2470 H       
  40 H40           -0.3531    -2.6613     0.1095 H       
  41 H41           -2.4818    -3.8913     0.1967 H       
  42 H42           -4.6117    -2.6654     0.3127 H       
  43 H43           -4.6249    -0.2054     0.3373 H       
  44 H44            2.7436     5.0926    -0.7513 H       
@<TRIPOS>BOND
   1    1    2 ar
   2    1   20 ar
   3    1   29 1
   4    2    3 ar
   5    2   21 1
   6    3    4 ar
   7    3   30 1
   8    4    5 ar
   9    4    6 1
  10    5   20 ar
  11    5    9 1
  12    6    7 1
  13    7    8 2
  14    7   10 1
  15    8    9 1
  16    8   31 1
  17    9   27 2
  18   10   11 ar
  19   10   15 ar
  20   11   12 ar
  21   12   13 ar
  22   12   32 1
  23   13   14 ar
  24   13   16 ar
  25   14   15 ar
  26   14   19 ar
  27   15   33 1
  28   16   17 ar
  29   16   34 1
  30   17   18 ar
  31   17   35 1
  32   18   19 ar
  33   18   36 1
  34   19   37 1
  35   20   38 1
  36   21   22 ar
  37   21   23 ar
  38   22   26 ar
  39   22   39 1
  40   23   24 ar
  41   23   40 1
  42   24   25 ar
  43   24   41 1
  44   25   26 ar
  45   25   42 1
  46   26   43 1
  47   27   28 1
  48   28   44 1

#	End of record

