#	Name: ASD06340026
#	Creating user name:	WinNT
#	Creation time:	15. 06. 2019 21:05

#	Modifying user name:	WinNT
#	Modification time:	15. 06. 2019 21:05

#	Program:	/corina/corina34_cracker 3.40 0067  02.08.2006

@<TRIPOS>MOLECULE
ASD06340026
  36   38    0    0    0
SMALL
NO_CHARGES


@<TRIPOS>ATOM
   1 S1            -0.0210     1.6939     0.0114 S.3     
   2 N2             0.0021    -0.0041     0.0020 N.am    
   3 C3             1.2962    -0.3594    -0.0122 C.2     
   4 N4             2.1856     0.6226    -0.0155 N.am    
   5 C5             1.6912     1.8721    -0.0040 C.2     
   6 O6             1.6365    -1.5276    -0.0214 O.2     
   7 O7             2.3224     2.9128    -0.0052 O.2     
   8 C8             3.6269     0.3610    -0.0302 C.3     
   9 C9             4.1080     0.2785    -1.4559 C.ar    
  10 C10            4.5424     1.4190    -2.1053 C.ar    
  11 C11            4.9842     1.3446    -3.4127 C.ar    
  12 C12            4.9917     0.1271    -4.0721 C.ar    
  13 C13            4.5563    -1.0145    -3.4206 C.ar    
  14 C14            4.1199    -0.9385    -2.1116 C.ar    
  15 F15            5.4229     0.0532    -5.3503 F       
  16 C16           -1.1051    -0.8602     0.0084 C.ar    
  17 C17           -2.3264    -0.4205    -0.4859 C.ar    
  18 C18           -3.4181    -1.2659    -0.4792 C.ar    
  19 C19           -3.2956    -2.5538     0.0215 C.ar    
  20 C20           -2.0763    -2.9937     0.5158 C.ar    
  21 C21           -0.9818    -2.1520     0.5038 C.ar    
  22 O22           -4.3713    -3.3855     0.0282 O.3     
  23 C23           -4.1736    -4.6977     0.5583 C.3     
  24 H24            4.1482     1.1691     0.4830 H       
  25 H25            3.8302    -0.5822     0.4770 H       
  26 H26            4.5362     2.3686    -1.5909 H       
  27 H27            5.3232     2.2357    -3.9199 H       
  28 H28            4.5617    -1.9647    -3.9340 H       
  29 H29            3.7842    -1.8295    -1.6019 H       
  30 H30           -2.4222     0.5823    -0.8751 H       
  31 H31           -4.3679    -0.9242    -0.8635 H       
  32 H32           -1.9819    -3.9964     0.9058 H       
  33 H33           -0.0314    -2.4962     0.8843 H       
  34 H34           -3.8530    -4.6252     1.5975 H       
  35 H35           -5.1083    -5.2559     0.5044 H       
  36 H36           -3.4088    -5.2129    -0.0228 H       
@<TRIPOS>BOND
   1    1    2 1
   2    1    5 1
   3    2    3 am
   4    2   16 1
   5    3    4 am
   6    3    6 2
   7    4    5 am
   8    4    8 1
   9    5    7 2
  10    8    9 1
  11    8   24 1
  12    8   25 1
  13    9   10 ar
  14    9   14 ar
  15   10   11 ar
  16   10   26 1
  17   11   12 ar
  18   11   27 1
  19   12   13 ar
  20   12   15 1
  21   13   14 ar
  22   13   28 1
  23   14   29 1
  24   16   17 ar
  25   16   21 ar
  26   17   18 ar
  27   17   30 1
  28   18   19 ar
  29   18   31 1
  30   19   20 ar
  31   19   22 1
  32   20   21 ar
  33   20   32 1
  34   21   33 1
  35   22   23 1
  36   23   34 1
  37   23   35 1
  38   23   36 1

#	End of record

