#	Name: ASD03092449
#	Creating user name:	WinNT
#	Creation time:	15. 06. 2019 20:32

#	Modifying user name:	WinNT
#	Modification time:	15. 06. 2019 20:32

#	Program:	/corina/corina34_cracker 3.40 0067  02.08.2006

@<TRIPOS>MOLECULE
ASD03092449
  57   60    0    0    0
SMALL
NO_CHARGES


@<TRIPOS>ATOM
   1 S1             0.7723     1.4805     0.3045 S.3     
   2 N2             0.9984    -0.0685     0.3606 N.2     
   3 N3             2.2452    -0.3231     0.3145 N.2     
   4 C4             3.1134     0.6577     0.2328 C.2     
   5 C5             2.4942     1.8934     0.2080 C.2     
   6 C6             3.1128     3.2261     0.1226 C.2     
   7 O7             4.3229     3.3321     0.0622 O.2     
   8 N8             2.3384     4.3291     0.1111 N.am    
   9 C9             4.6062     0.4604     0.1730 C.3     
  10 C10            2.9542     5.6556     0.0260 C.3     
  11 S11            0.1532     8.4316    -0.6423 S.3     
  12 C12            0.4247     8.0893     1.0103 C.2     
  13 N13            1.3452     7.1814     1.1372 N.2     
  14 C14            1.8778     6.7104     0.0306 C.2     
  15 C15            1.3786     7.2516    -1.1003 C.2     
  16 C16            2.4602     7.5590    -4.6836 C.ar    
  17 C17            2.0821     7.9195    -3.4084 C.ar    
  18 C18            1.7870     6.9142    -2.4779 C.ar    
  19 C19            1.8909     5.5795    -2.8920 C.ar    
  20 C20            2.2761     5.3103    -4.1874 C.ar    
  21 N21            2.5454     6.2885    -5.0321 N.ar    
  22 C22            2.3919     3.8795    -4.6461 C.3     
  23 C23            2.7744     8.6300    -5.6962 C.3     
  24 N24           -0.2401     8.6931     2.0621 N.3     
  25 C25           -1.2189     9.6748     1.5726 C.3     
  26 C26           -1.8874    10.3601     2.7673 C.3     
  27 O27           -2.4877     9.3684     3.6048 O.3     
  28 C28           -1.5627     8.3964     4.0999 C.3     
  29 C29           -0.8909     7.6912     2.9187 C.3     
  30 C30           -2.3095     7.3679     4.9515 C.3     
  31 C31           -2.9638    11.3251     2.2661 C.3     
  32 H32            1.3733     4.2446     0.1592 H       
  33 H33            4.9193     0.3693    -0.8671 H       
  34 H34            5.1043     1.3162     0.6287 H       
  35 H35            4.8748    -0.4468     0.7141 H       
  36 H36            3.6135     5.8057     0.8810 H       
  37 H37            3.5316     5.7297    -0.8955 H       
  38 H38            2.0149     8.9609    -3.1303 H       
  39 H39            1.6728     4.7741    -2.2062 H       
  40 H40            1.4358     3.5496    -5.0524 H       
  41 H41            3.1590     3.8060    -5.4170 H       
  42 H42            2.6647     3.2478    -3.8007 H       
  43 H43            3.8346     8.8781    -5.6456 H       
  44 H44            2.5335     8.2671    -6.6954 H       
  45 H45            2.1824     9.5193    -5.4801 H       
  46 H46           -0.7114    10.4214     0.9618 H       
  47 H47           -1.9754     9.1671     0.9741 H       
  48 H48           -1.1390    10.9122     3.3358 H       
  49 H49           -0.8049     8.8914     4.7071 H       
  50 H50           -1.6421     7.1518     2.3417 H       
  51 H51           -0.1440     6.9898     3.2905 H       
  52 H52           -3.0657     6.8723     4.3427 H       
  53 H53           -1.6040     6.6274     5.3285 H       
  54 H54           -2.7907     7.8711     5.7901 H       
  55 H55           -3.7126    10.7716     1.6994 H       
  56 H56           -3.4393    11.8127     3.1171 H       
  57 H57           -2.5063    12.0784     1.6247 H       
@<TRIPOS>BOND
   1    1    2 1
   2    1    5 1
   3    2    3 2
   4    3    4 1
   5    4    5 2
   6    4    9 1
   7    5    6 1
   8    6    7 2
   9    6    8 am
  10    8   10 1
  11    8   32 1
  12    9   33 1
  13    9   34 1
  14    9   35 1
  15   10   14 1
  16   10   36 1
  17   10   37 1
  18   11   12 1
  19   11   15 1
  20   12   13 2
  21   12   24 1
  22   13   14 1
  23   14   15 2
  24   15   18 1
  25   16   17 ar
  26   16   21 ar
  27   16   23 1
  28   17   18 ar
  29   17   38 1
  30   18   19 ar
  31   19   20 ar
  32   19   39 1
  33   20   21 ar
  34   20   22 1
  35   22   40 1
  36   22   41 1
  37   22   42 1
  38   23   43 1
  39   23   44 1
  40   23   45 1
  41   24   25 1
  42   24   29 1
  43   25   26 1
  44   25   46 1
  45   25   47 1
  46   26   27 1
  47   26   31 1
  48   26   48 1
  49   27   28 1
  50   28   29 1
  51   28   30 1
  52   28   49 1
  53   29   50 1
  54   29   51 1
  55   30   52 1
  56   30   53 1
  57   30   54 1
  58   31   55 1
  59   31   56 1
  60   31   57 1

#	End of record

