#	Name: ASD00960199
#	Creating user name:	WinNT
#	Creation time:	15. 06. 2019 18:53

#	Modifying user name:	WinNT
#	Modification time:	15. 06. 2019 18:53

#	Program:	/corina/corina34_cracker 3.40 0067  02.08.2006

@<TRIPOS>MOLECULE
ASD00960199
  34   36    0    0    0
SMALL
NO_CHARGES


@<TRIPOS>ATOM
   1 C1            -0.0169     1.3952     0.0097 C.2     
   2 C2             0.0021    -0.0041     0.0020 C.2     
   3 N3             1.2814     1.8373    -0.0003 N.pl3   
   4 C4             2.1142     0.7470    -0.0141 C.2     
   5 C5             1.3348    -0.4012    -0.0128 C.2     
   6 N6             1.8538     3.1171     0.0011 N.2     
   7 C7             3.1532     3.2528    -0.0106 C.2     
   8 N8             3.9734     2.2058    -0.0240 N.2     
   9 C9             3.5140     0.9672    -0.0256 C.2     
  10 N10            4.3887    -0.1017    -0.0393 N.pl3   
  11 N11           -1.1098    -0.8448     0.0088 N.pl3   
  12 C12           -1.1708     2.2094     0.0198 C.2     
  13 O13           -2.2760     1.6989     0.0229 O.2     
  14 O14           -1.0483     3.5539     0.0260 O.3     
  15 C15           -2.2574     4.3155     0.0361 C.3     
  16 C16           -1.9251     5.7854     0.0419 C.ar    
  17 C17           -1.7789     6.4656    -1.1526 C.ar    
  18 C18           -1.4741     7.8139    -1.1473 C.ar    
  19 C19           -1.3159     8.4821     0.0524 C.ar    
  20 C20           -1.4630     7.8021     1.2469 C.ar    
  21 C21           -1.7721     6.4547     1.2417 C.ar    
  22 H22            1.6974    -1.4184    -0.0218 H       
  23 H23            3.5748     4.2471    -0.0096 H       
  24 H24            5.3459     0.0550    -0.0478 H       
  25 H25            4.0457    -1.0090    -0.0404 H       
  26 H26           -2.0032    -0.4673     0.0199 H       
  27 H27           -0.9900    -1.8073     0.0024 H       
  28 H28           -2.8432     4.0789    -0.8521 H       
  29 H29           -2.8340     4.0698     0.9279 H       
  30 H30           -1.9025     5.9436    -2.0899 H       
  31 H31           -1.3592     8.3452    -2.0806 H       
  32 H32           -1.0771     9.5353     0.0566 H       
  33 H33           -1.3391     8.3240     2.1843 H       
  34 H34           -1.8907     5.9242     2.1749 H       
@<TRIPOS>BOND
   1    1    2 2
   2    1    3 1
   3    1   12 1
   4    2   11 1
   5    2    5 1
   6    3    4 1
   7    3    6 1
   8    4    5 2
   9    4    9 1
  10    5   22 1
  11    6    7 2
  12    7    8 1
  13    7   23 1
  14    8    9 2
  15    9   10 1
  16   10   24 1
  17   10   25 1
  18   11   26 1
  19   11   27 1
  20   12   13 2
  21   12   14 1
  22   14   15 1
  23   15   16 1
  24   15   28 1
  25   15   29 1
  26   16   17 ar
  27   16   21 ar
  28   17   18 ar
  29   17   30 1
  30   18   19 ar
  31   18   31 1
  32   19   20 ar
  33   19   32 1
  34   20   21 ar
  35   20   33 1
  36   21   34 1

#	End of record

