#	Name: ASD00431014
#	Creating user name:	WinNT
#	Creation time:	15. 06. 2019 18:35

#	Modifying user name:	WinNT
#	Modification time:	15. 06. 2019 18:35

#	Program:	/corina/corina34_cracker 3.40 0067  02.08.2006

@<TRIPOS>MOLECULE
ASD00431014
  24   24    0    0    0
SMALL
NO_CHARGES


@<TRIPOS>ATOM
   1 C1            -0.0187     1.5297     0.0105 C.3     
   2 C2             0.0021    -0.0041     0.0020 C.3     
   3 C3             0.5528    -0.4732    -1.3464 C.3     
   4 C4             1.8278     0.2516    -1.6644 C.2     
   5 C5             2.2056     1.3442    -1.0821 C.2     
   6 C6             1.4262     2.0334    -0.0006 C.3     
   7 C7             3.5093     1.9623    -1.5170 C.3     
   8 C8             3.2379     3.0344    -2.5743 C.3     
   9 N9             4.5088     3.6370    -2.9982 N.3     
  10 H10           -0.5405     1.8939    -0.8745 H       
  11 H11           -0.5235     1.8843     0.9091 H       
  12 H12            0.6432    -0.3662     0.8057 H       
  13 H13           -1.0103    -0.3850     0.1369 H       
  14 H14            0.7473    -1.5449    -1.3041 H       
  15 H15           -0.1815    -0.2718    -2.1264 H       
  16 H16            2.4704    -0.1645    -2.4262 H       
  17 H17            1.4327     3.1085    -0.1798 H       
  18 H18            1.8881     1.8273     0.9649 H       
  19 H19            4.0009     2.4166    -0.6567 H       
  20 H20            4.1542     1.1913    -1.9386 H       
  21 H21            2.7464     2.5801    -3.4345 H       
  22 H22            2.5930     3.8054    -2.1526 H       
  23 H23            4.3562     4.3488    -3.6968 H       
  24 H24            5.0142     4.0084    -2.2078 H       
@<TRIPOS>BOND
   1    1    2 1
   2    1    6 1
   3    1   10 1
   4    1   11 1
   5    2    3 1
   6    2   12 1
   7    2   13 1
   8    3    4 1
   9    3   14 1
  10    3   15 1
  11    4    5 2
  12    4   16 1
  13    5    6 1
  14    5    7 1
  15    6   17 1
  16    6   18 1
  17    7    8 1
  18    7   19 1
  19    7   20 1
  20    8    9 1
  21    8   21 1
  22    8   22 1
  23    9   23 1
  24    9   24 1

#	End of record

