#	Name: ASD01813269
#	Creating user name:	WinNT
#	Creation time:	15. 06. 2019 19:30

#	Modifying user name:	WinNT
#	Modification time:	15. 06. 2019 19:30

#	Program:	/corina/corina34_cracker 3.40 0067  02.08.2006

@<TRIPOS>MOLECULE
ASD01813269
  54   57    0    0    0
SMALL
NO_CHARGES


@<TRIPOS>ATOM
   1 N1            -0.0162     1.3436     0.0094 N.am    
   2 C2             0.0021    -0.0041     0.0020 C.2     
   3 O3             1.0628    -0.5974    -0.0113 O.2     
   4 C4            -1.2681    -0.7606     0.0101 C.ar    
   5 C5            -2.4879    -0.0823     0.0195 C.ar    
   6 C6            -3.6696    -0.7943     0.0265 C.ar    
   7 C7            -3.6472    -2.1777     0.0247 C.ar    
   8 C8            -4.9419    -2.9489     0.0329 C.3     
   9 N9            -5.3712    -3.1971    -1.3456 N.pl3   
  10 C10           -6.2390    -2.4192    -2.0371 C.2     
  11 C11           -6.4212    -2.9309    -3.2877 C.2     
  12 C12           -7.2827    -2.3842    -4.3447 C.2     
  13 O13           -7.3532    -2.9443    -5.4225 O.2     
  14 N14           -7.9949    -1.2622    -4.1205 N.am    
  15 C15           -8.8540    -0.7170    -5.1745 C.3     
  16 H16           -8.3886    -0.8849    -6.1457 H       
  17 C17          -10.2155    -1.4138    -5.1341 C.3     
  18 C18          -11.1127    -0.8444    -6.2349 C.3     
  19 C19          -11.3017     0.6576    -6.0129 C.3     
  20 C20           -9.9402     1.3544    -6.0532 C.3     
  21 C21           -9.0430     0.7850    -4.9524 C.3     
  22 H22           -9.5084     0.9530    -3.9812 H       
  23 O23           -7.7713     1.4358    -4.9902 O.3     
  24 C24           -5.5828    -4.1411    -3.3702 C.ar    
  25 C25           -5.3406    -5.0856    -4.3668 C.ar    
  26 F26           -5.9491    -4.9768    -5.5681 F       
  27 C27           -4.4754    -6.1320    -4.1194 C.ar    
  28 C28           -3.8494    -6.2451    -2.8869 C.ar    
  29 C29           -4.0804    -5.3182    -1.8938 C.ar    
  30 C30           -4.9445    -4.2525    -2.1250 C.ar    
  31 C31           -2.4415    -2.8563     0.0149 C.ar    
  32 C32           -1.2527    -2.1563     0.0024 C.ar    
  33 H33            0.8172     1.8399     0.0041 H       
  34 H34           -0.8627     1.8171     0.0160 H       
  35 H35           -2.5067     0.9975     0.0217 H       
  36 H36           -4.6141    -0.2707     0.0339 H       
  37 H37           -4.7950    -3.9001     0.5445 H       
  38 H38           -5.7059    -2.3709     0.5528 H       
  39 H39           -6.7146    -1.5280    -1.6551 H       
  40 H40           -7.9387    -0.8156    -3.2612 H       
  41 H41          -10.0809    -2.4838    -5.2923 H       
  42 H42          -10.6810    -1.2458    -4.1629 H       
  43 H43          -10.6472    -1.0123    -7.2061 H       
  44 H44          -12.0827    -1.3408    -6.2062 H       
  45 H45          -11.9408     1.0632    -6.7971 H       
  46 H46          -11.7671     0.8255    -5.0416 H       
  47 H47           -9.4747     1.1864    -7.0245 H       
  48 H48          -10.0748     2.4244    -5.8950 H       
  49 H49           -7.8150     2.3925    -4.8563 H       
  50 H50           -4.2853    -6.8660    -4.8885 H       
  51 H51           -3.1744    -7.0680    -2.7036 H       
  52 H52           -3.5877    -5.4165    -0.9378 H       
  53 H53           -2.4309    -3.9362     0.0131 H       
  54 H54           -0.3122    -2.6871    -0.0094 H       
@<TRIPOS>BOND
   1    1    2 am
   2    1   33 1
   3    1   34 1
   4    2    3 2
   5    2    4 1
   6    4   32 ar
   7    4    5 ar
   8    5    6 ar
   9    5   35 1
  10    6    7 ar
  11    6   36 1
  12    7    8 1
  13    7   31 ar
  14    8    9 1
  15    8   37 1
  16    8   38 1
  17    9   30 1
  18    9   10 1
  19   10   11 2
  20   10   39 1
  21   11   12 1
  22   11   24 1
  23   12   13 2
  24   12   14 am
  25   14   15 1
  26   14   40 1
  27   15   16 1
  28   15   21 1
  29   15   17 1
  30   17   18 1
  31   17   41 1
  32   17   42 1
  33   18   19 1
  34   18   43 1
  35   18   44 1
  36   19   20 1
  37   19   45 1
  38   19   46 1
  39   20   21 1
  40   20   47 1
  41   20   48 1
  42   21   22 1
  43   21   23 1
  44   23   49 1
  45   24   30 ar
  46   24   25 ar
  47   25   26 1
  48   25   27 ar
  49   27   28 ar
  50   27   50 1
  51   28   29 ar
  52   28   51 1
  53   29   30 ar
  54   29   52 1
  55   31   32 ar
  56   31   53 1
  57   32   54 1

#	End of record

