#	Name: ASD01884046
#	Creating user name:	WinNT
#	Creation time:	15. 06. 2019 19:47

#	Modifying user name:	WinNT
#	Modification time:	15. 06. 2019 19:47

#	Program:	/corina/corina34_cracker 3.40 0067  02.08.2006

@<TRIPOS>MOLECULE
ASD01884046
  44   47    0    0    0
SMALL
NO_CHARGES


@<TRIPOS>ATOM
   1 C1             1.9111     2.1504     0.4404 C.3     
   2 C2             1.0666     0.9042     0.1671 C.3     
   3 H3             1.3933     0.4409    -0.7639 H       
   4 O4            -0.3089     1.2757     0.0572 O.3     
   5 C5            -0.7631     1.6028    -1.1825 C.ar    
   6 C6            -0.6955     2.9174    -1.6236 C.ar    
   7 F7            -0.1780     3.8739    -0.8221 F       
   8 C8            -1.1584     3.2469    -2.8853 C.ar    
   9 C9            -1.6882     2.2687    -3.7061 C.ar    
  10 C10           -1.7572     0.9587    -3.2696 C.ar    
  11 C11           -1.2899     0.6216    -2.0115 C.ar    
  12 F12           -1.3522    -0.6597    -1.5879 F       
  13 C13            1.2335    -0.0744     1.3008 C.2     
  14 C14            0.7515     0.2420     2.5826 C.2     
  15 C15            0.8984    -0.6308     3.6014 C.2     
  16 N16            1.5159    -1.8303     3.4018 N.pl3   
  17 C17            1.8034    -2.8851     4.2118 C.2     
  18 C18            1.4753    -2.9978     5.6784 C.3     
  19 C19            0.0945    -3.6355     5.8446 C.3     
  20 C20            0.0227    -4.9910     6.5506 C.3     
  21 C21           -0.4737    -3.7307     7.2620 C.3     
  22 N22            2.4161    -3.7837     3.4852 N.2     
  23 N23            2.5360    -3.3708     2.2723 N.2     
  24 C24            1.9972    -2.1676     2.1606 C.2     
  25 C25            1.8464    -1.2696     1.0863 C.2     
  26 C26            2.3631    -1.6263    -0.2836 C.3     
  27 F27            3.2698    -0.6495    -0.7089 F       
  28 F28            3.0058    -2.8678    -0.2310 F       
  29 F29            1.2934    -1.6927    -1.1828 F       
  30 H30            2.9603     1.8670     0.5242 H       
  31 H31            1.7904     2.8582    -0.3796 H       
  32 H32            1.5844     2.6137     1.3714 H       
  33 H33           -1.1062     4.2694    -3.2290 H       
  34 H34           -2.0491     2.5284    -4.6903 H       
  35 H35           -2.1719     0.1968    -3.9130 H       
  36 H36            0.2611     1.1890     2.7532 H       
  37 H37            0.5245    -0.3772     4.5823 H       
  38 H38            2.2237    -3.6181     6.1715 H       
  39 H39            1.4733    -2.0046     6.1276 H       
  40 H40           -0.6085    -3.4532     5.0317 H       
  41 H41           -0.7275    -5.7008     6.2021 H       
  42 H42            0.9592    -5.4284     6.8966 H       
  43 H43            0.1362    -3.3390     8.0760 H       
  44 H44           -1.5505    -3.6114     7.3816 H       
@<TRIPOS>BOND
   1    1    2 1
   2    1   30 1
   3    1   31 1
   4    1   32 1
   5    2    3 1
   6    2    4 1
   7    2   13 1
   8    4    5 1
   9    5   11 ar
  10    5    6 ar
  11    6    7 1
  12    6    8 ar
  13    8    9 ar
  14    8   33 1
  15    9   10 ar
  16    9   34 1
  17   10   11 ar
  18   10   35 1
  19   11   12 1
  20   13   25 2
  21   13   14 1
  22   14   15 2
  23   14   36 1
  24   15   16 1
  25   15   37 1
  26   16   24 1
  27   16   17 1
  28   17   18 1
  29   17   22 2
  30   18   19 1
  31   18   38 1
  32   18   39 1
  33   19   21 1
  34   19   20 1
  35   19   40 1
  36   20   21 1
  37   20   41 1
  38   20   42 1
  39   21   43 1
  40   21   44 1
  41   22   23 1
  42   23   24 2
  43   24   25 1
  44   25   26 1
  45   26   27 1
  46   26   28 1
  47   26   29 1

#	End of record

