#	Name: ASD01948048
#	Creating user name:	WinNT
#	Creation time:	15. 06. 2019 20:13

#	Modifying user name:	WinNT
#	Modification time:	15. 06. 2019 20:13

#	Program:	/corina/corina34_cracker 3.40 0067  02.08.2006

@<TRIPOS>MOLECULE
ASD01948048
  29   30    0    0    0
SMALL
NO_CHARGES


@<TRIPOS>ATOM
   1 C1             0.3629     1.7469     0.7362 C.3     
   2 S2             0.2822     0.0759     0.0349 S.o2    
   3 O3            -1.0476    -0.2371    -0.3560 O.2     
   4 O4             1.3763    -0.1497    -0.8433 O.2     
   5 O5             0.5529    -0.8451     1.2160 O.3     
   6 F6             1.3790     2.4701     0.1023 F       
   7 F7            -0.8618     2.3943     0.5409 F       
   8 F8             0.6339     1.6650     2.1063 F       
   9 C9             0.3324    -0.2358     4.7944 C.2     
  10 C10            0.7621    -0.7353     3.5949 C.2     
  11 C11            0.1291    -0.3547     2.4057 C.2     
  12 C12           -0.9364     0.5306     2.4602 C.2     
  13 C13           -1.3440     1.0214     3.7012 C.2     
  14 N14           -0.7089     0.6439     4.8258 N.am    
  15 O15            0.8033    -0.4986     6.0403 O.3     
  16 C16           -0.9310     1.0360     6.2322 C.3     
  17 C17            0.3690     0.5558     6.9173 C.3     
  18 O18           -2.2837     1.7991     3.7671 O.2     
  19 N19            1.8999    -1.6814     3.5549 N.pl3   
  20 O20            2.4521    -2.0140     4.5883 O.2     
  21 O21            2.2840    -2.1272     2.4884 O.2     
  22 C22           -1.6430     0.9565     1.1991 C.3     
  23 H23           -1.0395     2.1169     6.3208 H       
  24 H24           -1.7993     0.5228     6.6452 H       
  25 H25            0.1619     0.1698     7.9154 H       
  26 H26            1.1065     1.3575     6.9554 H       
  27 H27           -2.3629     0.1909     0.9098 H       
  28 H28           -2.1642     1.8976     1.3748 H       
  29 H29           -0.9129     1.0891     0.4007 H       
@<TRIPOS>BOND
   1    1    2 1
   2    1    6 1
   3    1    7 1
   4    1    8 1
   5    2    3 2
   6    2    4 2
   7    2    5 1
   8    5   11 1
   9    9   10 2
  10    9   14 1
  11    9   15 1
  12   10   11 1
  13   10   19 1
  14   11   12 2
  15   12   13 1
  16   12   22 1
  17   13   14 am
  18   13   18 2
  19   14   16 1
  20   15   17 1
  21   16   17 1
  22   16   23 1
  23   16   24 1
  24   17   25 1
  25   17   26 1
  26   19   20 2
  27   19   21 2
  28   22   27 1
  29   22   28 1
  30   22   29 1

#	End of record

