#	Name: ASD02770067
#	Creating user name:	WinNT
#	Creation time:	15. 06. 2019 20:26

#	Modifying user name:	WinNT
#	Modification time:	15. 06. 2019 20:26

#	Program:	/corina/corina34_cracker 3.40 0067  02.08.2006

@<TRIPOS>MOLECULE
ASD02770067
  45   45    0    0    0
SMALL
NO_CHARGES


@<TRIPOS>ATOM
   1 C1            -0.0184     1.5028     0.0103 C.2     
   2 C2             0.0021    -0.0041     0.0020 C.3     
   3 O3             1.0236     2.1234     0.0037 O.2     
   4 N4            -1.1946     2.1607     0.0195 N.am    
   5 O5             1.3556    -0.4620    -0.0134 O.3     
   6 C6             1.5521    -1.8079    -0.0225 C.ar    
   7 C7             1.6410    -2.4891    -1.2270 C.ar    
   8 C8             1.8408    -3.8579    -1.2339 C.ar    
   9 C9             1.9517    -4.5492    -0.0417 C.ar    
  10 C10            1.8635    -3.8757     1.1622 C.ar    
  11 C11            1.6700    -2.5034     1.1765 C.ar    
  12 C12            2.1688    -6.0404    -0.0547 C.3     
  13 N13            3.6099    -6.3253    -0.0707 N.3     
  14 C14            3.8602    -7.7727    -0.0837 C.3     
  15 O15            5.9667    -7.5895     1.1386 O.3     
  16 C16            5.3684    -8.0293    -0.1001 C.3     
  17 C17            5.6553    -9.5461    -0.1604 C.3     
  18 C18            6.9021    -9.7282     0.7339 C.3     
  19 C19            7.2210    -8.2999     1.2286 C.3     
  20 O20            1.5895    -1.8389     2.3603 O.3     
  21 C21            1.7194    -2.6175     3.5515 C.3     
  22 Cl22           1.5011    -1.6245    -2.7258 Cl      
  23 H23           -0.4983    -0.3791     0.8948 H       
  24 H24           -0.5153    -0.3696    -0.8850 H       
  25 H25           -2.0280     1.6644     0.0207 H       
  26 H26           -1.2077     3.1306     0.0248 H       
  27 H27            1.9100    -4.3877    -2.1725 H       
  28 H28            1.9497    -4.4184     2.0920 H       
  29 H29            1.7213    -6.4805     0.8364 H       
  30 H30            1.7042    -6.4674    -0.9434 H       
  31 H31            4.0591    -5.8736    -0.8531 H       
  32 H32            3.4244    -8.2249     0.8072 H       
  33 H33            3.4073    -8.2118    -0.9726 H       
  34 H34            5.8300    -7.5202    -0.9462 H       
  35 H35            4.8128   -10.1103     0.2395 H       
  36 H36            5.8710    -9.8536    -1.1836 H       
  37 H37            6.6759   -10.3824     1.5758 H       
  38 H38            7.7341   -10.1258     0.1528 H       
  39 H39            7.9680    -7.8338     0.5862 H       
  40 H40            7.5696    -8.3250     2.2611 H       
  41 H41            2.6910    -3.1117     3.5584 H       
  42 H42            1.6366    -1.9667     4.4219 H       
  43 H43            0.9298    -3.3683     3.5827 H       
  44 Cl44          12.9680     8.1306     9.4219 Cl      
  45 H45           12.9680     9.5006     9.4219 H       
@<TRIPOS>BOND
   1    1    2 1
   2    1    3 2
   3    1    4 am
   4    2    5 1
   5    2   23 1
   6    2   24 1
   7    4   25 1
   8    4   26 1
   9    5    6 1
  10    6    7 ar
  11    6   11 ar
  12    7    8 ar
  13    7   22 1
  14    8    9 ar
  15    8   27 1
  16    9   10 ar
  17    9   12 1
  18   10   11 ar
  19   10   28 1
  20   11   20 1
  21   12   13 1
  22   12   29 1
  23   12   30 1
  24   13   14 1
  25   13   31 1
  26   14   16 1
  27   14   32 1
  28   14   33 1
  29   15   16 1
  30   15   19 1
  31   16   17 1
  32   16   34 1
  33   17   18 1
  34   17   35 1
  35   17   36 1
  36   18   19 1
  37   18   37 1
  38   18   38 1
  39   19   39 1
  40   19   40 1
  41   20   21 1
  42   21   41 1
  43   21   42 1
  44   21   43 1
  45   44   45 1

#	End of record

