#	Name: ASD03430994
#	Creating user name:	WinNT
#	Creation time:	15. 06. 2019 20:41

#	Modifying user name:	WinNT
#	Modification time:	15. 06. 2019 20:41

#	Program:	/corina/corina34_cracker 3.40 0067  02.08.2006

@<TRIPOS>MOLECULE
ASD03430994
  42   47    0    0    0
SMALL
NO_CHARGES


@<TRIPOS>ATOM
   1 N1            -0.0144     1.2109     0.0087 N.2     
   2 O2             0.0021    -0.0041     0.0020 O.3     
   3 N3             1.0983    -0.5274    -0.0116 N.2     
   4 C4             2.0194     0.4063    -0.0156 C.ar    
   5 C5             1.2154     1.6545    -0.0007 C.ar    
   6 C6             3.4209     0.5026    -0.0311 C.ar    
   7 C7             4.0350     1.7222    -0.0154 C.ar    
   8 C8             3.2764     2.9163    -0.0079 C.ar    
   9 C9             1.9247     2.9219    -0.0003 C.ar    
  10 O10            5.3958     1.5945     0.0043 O.3     
  11 C11            4.5095    -0.5384    -0.0782 C.3     
  12 C12            5.7565     0.2756    -0.4464 C.3     
  13 N13            4.4964    -2.5641     0.9799 N.am    
  14 C14            4.6715    -1.2516     1.2329 C.2     
  15 C15            4.2230    -1.6137    -1.0837 C.ar    
  16 C16            3.9821    -1.6084    -2.4395 C.ar    
  17 C17            3.7419    -2.7972    -3.1051 C.ar    
  18 C18            3.7448    -3.9903    -2.4056 C.ar    
  19 C19            3.9868    -4.0009    -1.0477 C.ar    
  20 C20            4.2301    -2.8091    -0.3694 C.ar    
  21 O21            4.9132    -0.7461     2.3086 O.2     
  22 C22            4.5768    -3.6117     2.0008 C.3     
  23 C23            3.2124    -3.8339     2.6011 C.ar    
  24 C24            2.4024    -4.8374     2.1036 C.ar    
  25 C25            1.1494    -5.0338     2.6631 C.ar    
  26 C26            0.7561    -4.2098     3.7068 C.ar    
  27 C27            1.6200    -3.2272     4.1513 C.ar    
  28 N28            2.8073    -3.0723     3.5983 N.ar    
  29 H29            3.7985     3.8617    -0.0076 H       
  30 H30            1.3805     3.8547     0.0053 H       
  31 H31            5.9247     0.2645    -1.5233 H       
  32 H32            6.6330    -0.0921     0.0870 H       
  33 H33            3.9803    -0.6755    -2.9835 H       
  34 H34            3.5522    -2.7935    -4.1683 H       
  35 H35            3.5563    -4.9182    -2.9251 H       
  36 H36            3.9872    -4.9367    -0.5085 H       
  37 H37            4.9282    -4.5372     1.5449 H       
  38 H38            5.2719    -3.3048     2.7823 H       
  39 H39            2.7414    -5.4604     1.2891 H       
  40 H40            0.4949    -5.8099     2.2947 H       
  41 H41           -0.2134    -4.3341     4.1662 H       
  42 H42            1.3212    -2.5813     4.9636 H       
@<TRIPOS>BOND
   1    1    2 1
   2    1    5 2
   3    2    3 1
   4    3    4 2
   5    4    5 ar
   6    4    6 ar
   7    5    9 ar
   8    6    7 ar
   9    6   11 1
  10    7    8 ar
  11    7   10 1
  12    8    9 ar
  13    8   29 1
  14    9   30 1
  15   10   12 1
  16   11   12 1
  17   11   14 1
  18   11   15 1
  19   12   31 1
  20   12   32 1
  21   13   14 am
  22   13   20 1
  23   13   22 1
  24   14   21 2
  25   15   16 ar
  26   15   20 ar
  27   16   17 ar
  28   16   33 1
  29   17   18 ar
  30   17   34 1
  31   18   19 ar
  32   18   35 1
  33   19   20 ar
  34   19   36 1
  35   22   23 1
  36   22   37 1
  37   22   38 1
  38   23   24 ar
  39   23   28 ar
  40   24   25 ar
  41   24   39 1
  42   25   26 ar
  43   25   40 1
  44   26   27 ar
  45   26   41 1
  46   27   28 ar
  47   27   42 1

#	End of record

