#	Name: ASD03240913
#	Creating user name:	WinNT
#	Creation time:	15. 06. 2019 20:35

#	Modifying user name:	WinNT
#	Modification time:	15. 06. 2019 20:35

#	Program:	/corina/corina34_cracker 3.40 0067  02.08.2006

@<TRIPOS>MOLECULE
ASD03240913
  61   66    0    0    0
SMALL
NO_CHARGES


@<TRIPOS>ATOM
   1 C1            -0.0188     1.5336     0.0105 C.3     
   2 C2             0.0021    -0.0041     0.0020 C.3     
   3 C3             1.3815     0.0967    -0.6702 C.3     
   4 C4             1.5179     1.4762    -0.0045 C.3     
   5 O5            -0.5818     2.1049    -1.1721 O.3     
   6 C6            -0.5973     2.1316     1.2944 C.3     
   7 C7             2.3746    -0.9181    -0.1653 C.ar    
   8 C8             3.3681    -1.3872    -1.0061 C.ar    
   9 C9             4.2807    -2.3160    -0.5495 C.ar    
  10 C10            4.2000    -2.7820     0.7628 C.ar    
  11 C11            3.1960    -2.3051     1.6056 C.ar    
  12 C12            2.2926    -1.3725     1.1389 C.ar    
  13 N13            6.9708    -6.5925    -0.0339 N.pl3   
  14 C14            7.8725    -7.5239     0.4048 C.2     
  15 N15            8.3293    -7.5334     1.6696 N.2     
  16 C16            7.9387    -6.6531     2.5548 C.2     
  17 C17            6.9763    -5.6270     2.1591 C.ar    
  18 C18            6.5203    -4.6593     3.0606 C.ar    
  19 C19            5.6043    -3.7197     2.5995 C.ar    
  20 C20            5.1759    -3.7791     1.2589 C.ar    
  21 N21            5.6297    -4.7109     0.4342 N.ar    
  22 C22            6.5012    -5.6222     0.8304 C.ar    
  23 C23            8.1507    -8.3509    -0.6752 C.2     
  24 C24            7.4046    -7.8994    -1.7566 C.2     
  25 N25            6.6985    -6.8600    -1.3810 N.2     
  26 C26            5.0842    -2.6698     3.5079 C.ar    
  27 C27            5.3765    -1.3283     3.2668 C.ar    
  28 C28            4.8892    -0.3553     4.1155 C.ar    
  29 C29            4.1121    -0.7090     5.2038 C.ar    
  30 C30            3.8191    -2.0387     5.4483 C.ar    
  31 C31            4.2961    -3.0198     4.6032 C.ar    
  32 C32            7.0068    -4.6354     4.4868 C.3     
  33 C33            7.4026    -8.5083    -3.1351 C.3     
  34 N34            1.3186     0.1546    -2.1367 N.3     
  35 H35            0.0329    -0.4458     0.9980 H       
  36 H36           -0.7629    -0.4476    -0.6353 H       
  37 H37            1.9766     2.2276    -0.6471 H       
  38 H38            1.9632     1.4391     0.9897 H       
  39 H39           -0.5977     3.0718    -1.1727 H       
  40 H40            0.0010     1.8098     2.1469 H       
  41 H41           -0.5800     3.2195     1.2285 H       
  42 H42           -1.6249     1.7917     1.4227 H       
  43 H43            3.4293    -1.0259    -2.0220 H       
  44 H44            5.0555    -2.6817    -1.2070 H       
  45 H45            3.1282    -2.6625     2.6226 H       
  46 H46            1.5173    -0.9995     1.7917 H       
  47 H47            8.3217    -6.6844     3.5641 H       
  48 H48            8.8260    -9.1936    -0.6747 H       
  49 H49            5.9834    -1.0510     2.4176 H       
  50 H50            5.1153     0.6843     3.9298 H       
  51 H51            3.7329     0.0558     5.8653 H       
  52 H52            3.2124    -2.3091     6.3000 H       
  53 H53            4.0630    -4.0572     4.7925 H       
  54 H54            7.8969    -4.0101     4.5566 H       
  55 H55            6.2262    -4.2294     5.1302 H       
  56 H56            7.2492    -5.6493     4.8051 H       
  57 H57            6.6293    -9.2742    -3.1928 H       
  58 H58            7.2020    -7.7329    -3.8745 H       
  59 H59            8.3752    -8.9580    -3.3351 H       
  60 H60            2.2430     0.2199    -2.5360 H       
  61 H61            0.8193    -0.6393    -2.5089 H       
@<TRIPOS>BOND
   1    1    2 1
   2    1    4 1
   3    1    5 1
   4    1    6 1
   5    2    3 1
   6    2   35 1
   7    2   36 1
   8    3    4 1
   9    3    7 1
  10    3   34 1
  11    4   37 1
  12    4   38 1
  13    5   39 1
  14    6   40 1
  15    6   41 1
  16    6   42 1
  17    7    8 ar
  18    7   12 ar
  19    8    9 ar
  20    8   43 1
  21    9   10 ar
  22    9   44 1
  23   10   11 ar
  24   10   20 1
  25   11   12 ar
  26   11   45 1
  27   12   46 1
  28   13   14 1
  29   13   22 1
  30   13   25 1
  31   14   15 1
  32   14   23 2
  33   15   16 2
  34   16   17 1
  35   16   47 1
  36   17   18 ar
  37   17   22 ar
  38   18   19 ar
  39   18   32 1
  40   19   20 ar
  41   19   26 1
  42   20   21 ar
  43   21   22 ar
  44   23   24 1
  45   23   48 1
  46   24   25 2
  47   24   33 1
  48   26   27 ar
  49   26   31 ar
  50   27   28 ar
  51   27   49 1
  52   28   29 ar
  53   28   50 1
  54   29   30 ar
  55   29   51 1
  56   30   31 ar
  57   30   52 1
  58   31   53 1
  59   32   54 1
  60   32   55 1
  61   32   56 1
  62   33   57 1
  63   33   58 1
  64   33   59 1
  65   34   60 1
  66   34   61 1

#	End of record

