#	Name: ASD01148774
#	Creating user name:	WinNT
#	Creation time:	15. 06. 2019 19:03

#	Modifying user name:	WinNT
#	Modification time:	15. 06. 2019 19:03

#	Program:	/corina/corina34_cracker 3.40 0067  02.08.2006

@<TRIPOS>MOLECULE
ASD01148774
  55   58    0    0    0
SMALL
NO_CHARGES


@<TRIPOS>ATOM
   1 N1             0.0231     1.3690    -0.2560 N.pl3   
   2 C2             0.0187     0.0049    -0.2113 C.2     
   3 C3             1.3068    -0.4140     0.1201 C.2     
   4 C4             2.0931     0.7539     0.2745 C.2     
   5 C5             1.2879     1.8225     0.0403 C.2     
   6 C6             1.7613    -1.8014     0.2791 C.2     
   7 O7             0.9802    -2.7192     0.1180 O.2     
   8 O8             3.0447    -2.0574     0.6037 O.3     
   9 C9            -1.0799     2.1763    -0.5602 C.ar    
  10 C10           -1.6461     2.9795     0.4212 C.ar    
  11 C11           -2.7335     3.7749     0.1179 C.ar    
  12 C12           -3.2587     3.7721    -1.1615 C.ar    
  13 C13           -2.6973     2.9736    -2.1407 C.ar    
  14 C14           -1.6062     2.1797    -1.8451 C.ar    
  15 S15           -3.4529     4.7939     1.3624 S.o2    
  16 O16           -4.8021     4.9553     0.9464 O.2     
  17 O17           -3.1358     4.1354     2.5810 O.2     
  18 C18           -2.5554     6.3651     1.2355 C.3     
  19 C19           -1.1408    -0.8695    -0.4670 C.ar    
  20 C20           -1.9828    -1.2472     0.5853 C.ar    
  21 C21           -3.0670    -2.0668     0.3365 C.ar    
  22 C22           -3.3198    -2.5128    -0.9484 C.ar    
  23 C23           -2.4909    -2.1428    -1.9930 C.ar    
  24 C24           -1.4080    -1.3206    -1.7620 C.ar    
  25 F25           -1.7361    -0.8122     1.8404 F       
  26 C26            1.7027     3.2403     0.0938 C.ar    
  27 C27            2.8421     3.6104     0.8104 C.ar    
  28 C28            3.2244     4.9349     0.8563 C.ar    
  29 C29            2.4803     5.8966     0.1938 C.ar    
  30 C30            1.3491     5.5356    -0.5187 C.ar    
  31 C31            0.9600     4.2135    -0.5767 C.ar    
  32 Cl32           2.9672     7.5618     0.2571 Cl      
  33 C33            3.4235    -3.4520     0.7444 C.3     
  34 C34            4.9058    -3.5433     1.1124 C.3     
  35 H35            3.1413     0.7885     0.5321 H       
  36 H36           -1.2367     2.9819     1.4205 H       
  37 H37           -4.1094     4.3948    -1.3962 H       
  38 H38           -3.1097     2.9736    -3.1389 H       
  39 H39           -1.1653     1.5596    -2.6115 H       
  40 H40           -2.6928     6.7826     0.2381 H       
  41 H41           -2.9399     7.0642     1.9782 H       
  42 H42           -1.4940     6.1927     1.4141 H       
  43 H43           -3.7181    -2.3600     1.1467 H       
  44 H44           -4.1685    -3.1536    -1.1372 H       
  45 H45           -2.6951    -2.4957    -2.9931 H       
  46 H46           -0.7655    -1.0294    -2.5798 H       
  47 H47            3.4228     2.8614     1.3281 H       
  48 H48            4.1057     5.2226     1.4104 H       
  49 H49            0.7726     6.2902    -1.0331 H       
  50 H50            0.0799     3.9326    -1.1361 H       
  51 H51            2.8250    -3.9136     1.5297 H       
  52 H52            3.2503    -3.9723    -0.1977 H       
  53 H53            5.5042    -3.0816     0.3270 H       
  54 H54            5.0789    -3.0230     2.0544 H       
  55 H55            5.1901    -4.5902     1.2179 H       
@<TRIPOS>BOND
   1    1    2 1
   2    1    5 1
   3    1    9 1
   4    2    3 2
   5    2   19 1
   6    3    4 1
   7    3    6 1
   8    4    5 2
   9    4   35 1
  10    5   26 1
  11    6    7 2
  12    6    8 1
  13    8   33 1
  14    9   10 ar
  15    9   14 ar
  16   10   11 ar
  17   10   36 1
  18   11   12 ar
  19   11   15 1
  20   12   13 ar
  21   12   37 1
  22   13   14 ar
  23   13   38 1
  24   14   39 1
  25   15   16 2
  26   15   17 2
  27   15   18 1
  28   18   40 1
  29   18   41 1
  30   18   42 1
  31   19   20 ar
  32   19   24 ar
  33   20   21 ar
  34   20   25 1
  35   21   22 ar
  36   21   43 1
  37   22   23 ar
  38   22   44 1
  39   23   24 ar
  40   23   45 1
  41   24   46 1
  42   26   27 ar
  43   26   31 ar
  44   27   28 ar
  45   27   47 1
  46   28   29 ar
  47   28   48 1
  48   29   30 ar
  49   29   32 1
  50   30   31 ar
  51   30   49 1
  52   31   50 1
  53   33   34 1
  54   33   51 1
  55   33   52 1
  56   34   53 1
  57   34   54 1
  58   34   55 1

#	End of record

