#	Name: ASD03240175
#	Creating user name:	WinNT
#	Creation time:	15. 06. 2019 20:34

#	Modifying user name:	WinNT
#	Modification time:	15. 06. 2019 20:34

#	Program:	/corina/corina34_cracker 3.40 0067  02.08.2006

@<TRIPOS>MOLECULE
ASD03240175
  88   95    0    0    0
SMALL
NO_CHARGES


@<TRIPOS>ATOM
   1 C1             0.7175     1.5717    -0.6715 C.ar    
   2 C2             0.4698     0.2126    -0.9910 C.ar    
   3 N3             1.9401     2.0845    -0.8275 N.ar    
   4 C4             2.9191     1.3221    -1.2806 C.ar    
   5 C5             2.6753    -0.0354    -1.6006 C.ar    
   6 N6             1.4683    -0.5509    -1.4497 N.ar    
   7 C7             3.7795    -0.8820    -2.1085 C.ar    
   8 C8             4.2765     1.8894    -1.4549 C.ar    
   9 C9             4.4425     3.1337    -2.0624 C.ar    
  10 C10            5.7093     3.6569    -2.2220 C.ar    
  11 C11            6.8134     2.9495    -1.7811 C.ar    
  12 C12            6.6551     1.7148    -1.1776 C.ar    
  13 C13            5.3929     1.1840    -1.0069 C.ar    
  14 C14            3.9575    -2.1730    -1.6115 C.ar    
  15 C15            4.9876    -2.9570    -2.0890 C.ar    
  16 C16            5.8430    -2.4650    -3.0586 C.ar    
  17 C17            5.6718    -1.1851    -3.5552 C.ar    
  18 C18            4.6419    -0.3935    -3.0899 C.ar    
  19 C19            6.9661    -3.3265    -3.5758 C.3     
  20 N20            6.4962    -4.1019    -4.7316 N.3     
  21 C21            7.6156    -4.7706    -5.4070 C.3     
  22 C22            7.1121    -5.4465    -6.6843 C.3     
  23 C23            6.0273    -6.4651    -6.3234 C.3     
  24 C24            4.8957    -5.7516    -5.5786 C.3     
  25 C25            5.4635    -5.0669    -4.3333 C.3     
  26 C26            5.4853    -7.0910    -7.5826 C.2     
  27 N27            5.8787    -8.2181    -8.1163 N.2     
  28 N28            5.2061    -8.4563    -9.1858 N.2     
  29 C29            4.3437    -7.4852    -9.3885 C.2     
  30 N30            4.4996    -6.5920    -8.3626 N.pl3   
  31 C31            3.3836    -7.3801   -10.5089 C.ar    
  32 N32            3.3515    -8.3380   -11.4269 N.ar    
  33 C33            2.5057    -8.2741   -12.4403 C.ar    
  34 C34            1.6458    -7.1898   -12.5370 C.ar    
  35 C35            1.7055    -6.2062   -11.5606 C.ar    
  36 N36            2.5708    -6.3327   -10.5698 N.ar    
  37 N37           -0.7566    -0.2962    -0.8319 N.ar    
  38 C38           -1.7516     0.4407    -0.3811 C.ar    
  39 C39           -1.5710     1.7919    -0.0478 C.ar    
  40 C40           -0.3431     2.3652    -0.1835 C.ar    
  41 N41           -3.0046    -0.1313    -0.2331 N.3     
  42 C42           -2.9885    -1.5454    -0.6328 C.3     
  43 C43           -4.3673    -2.1599    -0.3801 C.3     
  44 N44           -5.3802    -1.4128    -1.1386 N.3     
  45 C45           -5.3963     0.0013    -0.7389 C.3     
  46 C46           -4.0175     0.6158    -0.9916 C.3     
  47 C47           -6.7089    -2.0193    -0.9817 C.3     
  48 C48           -7.7495    -1.1620    -1.7048 C.3     
  49 O49           -7.4549    -1.1335    -3.1028 O.3     
  50 H50            3.5813     3.6864    -2.4077 H       
  51 H51            5.8391     4.6203    -2.6924 H       
  52 H52            7.8030     3.3628    -1.9088 H       
  53 H53            7.5209     1.1670    -0.8358 H       
  54 H54            5.2705     0.2201    -0.5353 H       
  55 H55            3.2906    -2.5580    -0.8543 H       
  56 H56            5.1267    -3.9567    -1.7047 H       
  57 H57            6.3430    -0.8064    -4.3119 H       
  58 H58            4.5092     0.6055    -3.4782 H       
  59 H59            7.8003    -2.6933    -3.8779 H       
  60 H60            7.2929    -4.0076    -2.7900 H       
  61 H61            8.3780    -4.0344    -5.6619 H       
  62 H62            8.0438    -5.5217    -4.7432 H       
  63 H63            6.6962    -4.6941    -7.3545 H       
  64 H64            7.9401    -5.9559    -7.1772 H       
  65 H65            6.4526    -7.2392    -5.6846 H       
  66 H66            4.4450    -5.0040    -6.2313 H       
  67 H67            4.1403    -6.4790    -5.2814 H       
  68 H68            5.9017    -5.8166    -3.6745 H       
  69 H69            4.6627    -4.5459    -3.8083 H       
  70 H70            4.0078    -5.7672    -8.2264 H       
  71 H71            2.4844    -9.0565   -13.1845 H       
  72 H72            0.9451    -7.1129   -13.3553 H       
  73 H73            1.0495    -5.3494   -11.6072 H       
  74 H74           -2.4029     2.3748     0.3190 H       
  75 H75           -0.1865     3.4036     0.0684 H       
  76 H76           -2.7454    -1.6210    -1.6926 H       
  77 H77           -2.2395    -2.0800    -0.0485 H       
  78 H78           -4.3660    -3.2011    -0.7028 H       
  79 H79           -4.5987    -2.1089     0.6838 H       
  80 H80           -6.1453     0.5359    -1.3232 H       
  81 H81           -5.6394     0.0769     0.3209 H       
  82 H82           -4.0187     1.6570    -0.6689 H       
  83 H83           -3.7861     0.5648    -2.0555 H       
  84 H84           -6.7034    -3.0219    -1.4094 H       
  85 H85           -6.9589    -2.0776     0.0777 H       
  86 H86           -8.7411    -1.5876    -1.5511 H       
  87 H87           -7.7240    -0.1474    -1.3074 H       
  88 H88           -8.0755    -0.6069    -3.6249 H       
@<TRIPOS>BOND
   1    1    2 ar
   2    1    3 ar
   3    1   40 ar
   4    2   37 ar
   5    2    6 ar
   6    3    4 ar
   7    4    5 ar
   8    4    8 1
   9    5    6 ar
  10    5    7 1
  11    7   14 ar
  12    7   18 ar
  13    8    9 ar
  14    8   13 ar
  15    9   10 ar
  16    9   50 1
  17   10   11 ar
  18   10   51 1
  19   11   12 ar
  20   11   52 1
  21   12   13 ar
  22   12   53 1
  23   13   54 1
  24   14   15 ar
  25   14   55 1
  26   15   16 ar
  27   15   56 1
  28   16   17 ar
  29   16   19 1
  30   17   18 ar
  31   17   57 1
  32   18   58 1
  33   19   20 1
  34   19   59 1
  35   19   60 1
  36   20   21 1
  37   20   25 1
  38   21   22 1
  39   21   61 1
  40   21   62 1
  41   22   23 1
  42   22   63 1
  43   22   64 1
  44   23   24 1
  45   23   26 1
  46   23   65 1
  47   24   25 1
  48   24   66 1
  49   24   67 1
  50   25   68 1
  51   25   69 1
  52   26   27 2
  53   26   30 1
  54   27   28 1
  55   28   29 2
  56   29   30 1
  57   29   31 1
  58   30   70 1
  59   31   32 ar
  60   31   36 ar
  61   32   33 ar
  62   33   34 ar
  63   33   71 1
  64   34   35 ar
  65   34   72 1
  66   35   36 ar
  67   35   73 1
  68   37   38 ar
  69   38   39 ar
  70   38   41 1
  71   39   40 ar
  72   39   74 1
  73   40   75 1
  74   41   42 1
  75   41   46 1
  76   42   43 1
  77   42   76 1
  78   42   77 1
  79   43   44 1
  80   43   78 1
  81   43   79 1
  82   44   45 1
  83   44   47 1
  84   45   46 1
  85   45   80 1
  86   45   81 1
  87   46   82 1
  88   46   83 1
  89   47   48 1
  90   47   84 1
  91   47   85 1
  92   48   49 1
  93   48   86 1
  94   48   87 1
  95   49   88 1

#	End of record

