#	Name: ASD01200402
#	Creating user name:	WinNT
#	Creation time:	15. 06. 2019 19:09

#	Modifying user name:	WinNT
#	Modification time:	15. 06. 2019 19:09

#	Program:	/corina/corina34_cracker 3.40 0067  02.08.2006

@<TRIPOS>MOLECULE
ASD01200402
  82   84    0    0    0
SMALL
NO_CHARGES


@<TRIPOS>ATOM
   1 N1            -0.0178     1.4608     0.0101 N.pl3   
   2 C2             0.0235     0.0158     0.2482 C.3     
   3 C3            -0.9861    -0.3505     1.3379 C.3     
   4 P4            -0.3970    -0.8659    -1.2910 P.3     
   5 C5             1.1735     2.1776    -0.1526 C.ar    
   6 O6            -0.2244    -2.4507    -1.0659 O.3     
   7 O7            -1.7989    -0.5701    -1.6618 O.2     
   8 O8             0.5842    -0.3816    -2.4721 O.3     
   9 C9             0.4417    -0.8112    -3.8275 C.3     
  10 C10            1.5324    -0.1656    -4.6844 C.3     
  11 C11           -0.5779    -3.4203    -2.0544 C.3     
  12 C12           -0.2880    -4.8238    -1.5187 C.3     
  13 C13            2.3819     1.5065    -0.2168 C.ar    
  14 C14            3.5680     2.2255    -0.3797 C.ar    
  15 C15            3.5294     3.6182    -0.4771 C.ar    
  16 C16            2.3219     4.2814    -0.4124 C.ar    
  17 C17            1.1425     3.5684    -0.2560 C.ar    
  18 N18           -2.3356     0.0361     0.9051 N.3     
  19 O19           -0.0447     4.2268    -0.1928 O.3     
  20 C20            4.8606     1.5147    -0.4483 C.2     
  21 N21            6.0200     2.0930    -0.5985 N.2     
  22 C22            7.0729     1.3219    -0.6404 C.2     
  23 C23            6.7919    -0.0132    -0.5170 C.2     
  24 S24            5.0474    -0.1805    -0.3348 S.3     
  25 C25            7.7666    -1.1045    -0.5283 C.2     
  26 C26            8.4728     1.8533    -0.8104 C.3     
  27 O27            7.3513    -2.3813    -0.3966 O.3     
  28 O28            8.9514    -0.8605    -0.6565 O.2     
  29 C29            8.3572    -3.3961    -0.4164 C.3     
  30 C30            7.7004    -4.7685    -0.2553 C.3     
  31 C31           -3.3337    -0.3012     1.9288 C.3     
  32 C32           -4.7234     0.1155     1.4431 C.3     
  33 C33           -5.7473    -0.2306     2.4934 C.ar    
  34 C34           -6.0673     0.6896     3.4743 C.ar    
  35 C35           -7.0062     0.3771     4.4397 C.ar    
  36 C36           -7.6288    -0.8607     4.4255 C.ar    
  37 C37           -7.3067    -1.7869     3.4382 C.ar    
  38 C38           -6.3686    -1.4653     2.4704 C.ar    
  39 O39           -8.5523    -1.1699     5.3747 O.3     
  40 O40           -7.9147    -3.0032     3.4204 O.3     
  41 C41           -8.8324    -0.1707     6.3571 C.3     
  42 C42           -7.5345    -3.9033     2.3776 C.3     
  43 H43           -0.8707     1.9201    -0.0388 H       
  44 H44            1.0248    -0.2710     0.5693 H       
  45 H45           -0.9554    -1.4256     1.5150 H       
  46 H46           -0.7347     0.1767     2.2582 H       
  47 H47            0.5356    -1.8961    -3.8766 H       
  48 H48           -0.5379    -0.5141    -4.2018 H       
  49 H49            2.5121    -0.4628    -4.3102 H       
  50 H50            1.4238    -0.4933    -5.7183 H       
  51 H51            1.4385     0.9192    -4.6354 H       
  52 H52           -1.6392    -3.3321    -2.2866 H       
  53 H53            0.0073    -3.2481    -2.9577 H       
  54 H54            0.7733    -4.9120    -1.2864 H       
  55 H55           -0.8731    -4.9959    -0.6153 H       
  56 H56           -0.5576    -5.5633    -2.2726 H       
  57 H57            2.4078     0.4295    -0.1408 H       
  58 H58            4.4455     4.1761    -0.6027 H       
  59 H59            2.2943     5.3584    -0.4876 H       
  60 H60           -2.3736     1.0172     0.6725 H       
  61 H61           -0.4684     4.3573    -1.0522 H       
  62 H62            8.9060     2.0559     0.1691 H       
  63 H63            9.0815     1.1139    -1.3309 H       
  64 H64            8.4436     2.7745    -1.3923 H       
  65 H65            8.8924    -3.3587    -1.3652 H       
  66 H66            9.0571    -3.2299     0.4024 H       
  67 H67            7.0004    -4.9347    -1.0741 H       
  68 H68            8.4676    -5.5426    -0.2704 H       
  69 H69            7.1651    -4.8060     0.6935 H       
  70 H70           -3.3193    -1.3759     2.1101 H       
  71 H71           -3.0986     0.2263     2.8532 H       
  72 H72           -4.7378     1.1902     1.2619 H       
  73 H73           -4.9585    -0.4121     0.5187 H       
  74 H74           -5.5825     1.6546     3.4866 H       
  75 H75           -7.2541     1.0976     5.2050 H       
  76 H76           -6.1200    -2.1807     1.7005 H       
  77 H77           -7.9197     0.0679     6.9032 H       
  78 H78           -9.2069     0.7272     5.8656 H       
  79 H79           -9.5842    -0.5450     7.0520 H       
  80 H80           -8.0928    -4.8340     2.4795 H       
  81 H81           -7.7540    -3.4520     1.4100 H       
  82 H82           -6.4667    -4.1107     2.4479 H       
@<TRIPOS>BOND
   1    1    2 1
   2    1    5 1
   3    1   43 1
   4    2    3 1
   5    2    4 1
   6    2   44 1
   7    3   18 1
   8    3   45 1
   9    3   46 1
  10    4    6 1
  11    4    7 2
  12    4    8 1
  13    5   13 ar
  14    5   17 ar
  15    6   11 1
  16    8    9 1
  17    9   10 1
  18    9   47 1
  19    9   48 1
  20   10   49 1
  21   10   50 1
  22   10   51 1
  23   11   12 1
  24   11   52 1
  25   11   53 1
  26   12   54 1
  27   12   55 1
  28   12   56 1
  29   13   14 ar
  30   13   57 1
  31   14   15 ar
  32   14   20 1
  33   15   16 ar
  34   15   58 1
  35   16   17 ar
  36   16   59 1
  37   17   19 1
  38   18   31 1
  39   18   60 1
  40   19   61 1
  41   20   21 2
  42   20   24 1
  43   21   22 1
  44   22   23 2
  45   22   26 1
  46   23   24 1
  47   23   25 1
  48   25   27 1
  49   25   28 2
  50   26   62 1
  51   26   63 1
  52   26   64 1
  53   27   29 1
  54   29   30 1
  55   29   65 1
  56   29   66 1
  57   30   67 1
  58   30   68 1
  59   30   69 1
  60   31   32 1
  61   31   70 1
  62   31   71 1
  63   32   33 1
  64   32   72 1
  65   32   73 1
  66   33   34 ar
  67   33   38 ar
  68   34   35 ar
  69   34   74 1
  70   35   36 ar
  71   35   75 1
  72   36   37 ar
  73   36   39 1
  74   37   38 ar
  75   37   40 1
  76   38   76 1
  77   39   41 1
  78   40   42 1
  79   41   77 1
  80   41   78 1
  81   41   79 1
  82   42   80 1
  83   42   81 1
  84   42   82 1

#	End of record

