#	Name: ASD01915209
#	Creating user name:	WinNT
#	Creation time:	15. 06. 2019 20:05

#	Modifying user name:	WinNT
#	Modification time:	15. 06. 2019 20:05

#	Program:	/corina/corina34_cracker 3.40 0067  02.08.2006

@<TRIPOS>MOLECULE
ASD01915209
  29   30    0    0    0
SMALL
NO_CHARGES


@<TRIPOS>ATOM
   1 C1            -0.0169     1.3923     0.0097 C.ar    
   2 C2             0.0021    -0.0041     0.0020 C.ar    
   3 C3            -1.1847    -0.7146     0.0090 C.ar    
   4 C4            -2.3958    -0.0477     0.0241 C.ar    
   5 C5            -2.4269     1.3492     0.0324 C.ar    
   6 C6            -1.2343     2.0699     0.0308 C.ar    
   7 F7            -1.1603    -2.0653     0.0006 F       
   8 C8             1.2524     2.1501     0.0016 C.2     
   9 N9             2.4292     1.4934    -0.0131 N.am    
  10 O10            1.2346     3.3655     0.0083 O.2     
  11 C11            3.6254     2.2076    -0.0207 C.ar    
  12 C12            4.8358     1.5239    -0.0359 C.ar    
  13 C13            6.0166     2.2456    -0.0433 C.ar    
  14 C14            5.9455     3.6318    -0.0352 C.ar    
  15 C15            4.7082     4.2453    -0.0201 C.ar    
  16 N16            3.5991     3.5313    -0.0188 N.ar    
  17 C17            4.8616     0.0171    -0.0438 C.3     
  18 C18           -3.6819     2.0387     0.0480 C.1     
  19 N19           -4.6774     2.5857     0.0605 N.1     
  20 H20            0.9452    -0.5302    -0.0098 H       
  21 H21           -3.3194    -0.6075     0.0292 H       
  22 H22           -1.2535     3.1498     0.0371 H       
  23 H23            2.4434     0.5235    -0.0185 H       
  24 H24            6.9717     1.7417    -0.0548 H       
  25 H25            6.8483     4.2244    -0.0403 H       
  26 H26            4.6479     5.3236    -0.0137 H       
  27 H27            4.8579    -0.3410    -1.0733 H       
  28 H28            5.7627    -0.3334     0.4595 H       
  29 H29            3.9831    -0.3641     0.4767 H       
@<TRIPOS>BOND
   1    1    2 ar
   2    1    8 1
   3    1    6 ar
   4    2    3 ar
   5    2   20 1
   6    3    4 ar
   7    3    7 1
   8    4    5 ar
   9    4   21 1
  10    5    6 ar
  11    5   18 1
  12    6   22 1
  13    8    9 am
  14    8   10 2
  15    9   11 1
  16    9   23 1
  17   11   12 ar
  18   11   16 ar
  19   12   13 ar
  20   12   17 1
  21   13   14 ar
  22   13   24 1
  23   14   15 ar
  24   14   25 1
  25   15   16 ar
  26   15   26 1
  27   17   27 1
  28   17   28 1
  29   17   29 1
  30   18   19 3

#	End of record

