#	Name: ASD03081149
#	Creating user name:	WinNT
#	Creation time:	15. 06. 2019 20:27

#	Modifying user name:	WinNT
#	Modification time:	15. 06. 2019 20:27

#	Program:	/corina/corina34_cracker 3.40 0067  02.08.2006

@<TRIPOS>MOLECULE
ASD03081149
  29   32    0    0    0
SMALL
NO_CHARGES


@<TRIPOS>ATOM
   1 O1            -0.0144     1.2085     0.0087 O.3     
   2 N2             0.0021    -0.0041     0.0020 N.2     
   3 C3             1.2354    -0.4419    -0.0121 C.2     
   4 N4             2.0458     0.6373    -0.0141 N.2     
   5 C5             1.2409     1.6830    -0.0008 C.2     
   6 C6             2.9947     3.4594    -0.0093 C.ar    
   7 C7             1.6448     3.1051     0.0021 C.ar    
   8 C8             0.6799     4.1189     0.0158 C.ar    
   9 C9             1.1105     5.4343     0.0174 C.ar    
  10 C10            2.4672     5.7025     0.0056 C.ar    
  11 N11            3.3545     4.7260    -0.0076 N.ar    
  12 C12            2.4412    -4.5006    -0.0433 C.2     
  13 C13            3.4235    -3.4881    -0.0476 C.2     
  14 C14            3.0407    -2.1856    -0.0378 C.2     
  15 C15            1.6636    -1.8626    -0.0234 C.2     
  16 C16            0.7312    -2.8540    -0.0194 C.2     
  17 N17            1.1126    -4.1619    -0.0292 N.pl3   
  18 N18            2.5270    -5.8230    -0.0451 N.2     
  19 C19            1.2969    -6.3427    -0.0389 C.2     
  20 C20            0.4013    -5.3318    -0.0282 C.2     
  21 H21            3.7506     2.6881    -0.0154 H       
  22 H22           -0.3735     3.8809     0.0245 H       
  23 H23            0.3945     6.2427     0.0274 H       
  24 H24            2.8059     6.7280     0.0068 H       
  25 H25            4.4720    -3.7471    -0.0583 H       
  26 H26            3.7829    -1.4011    -0.0406 H       
  27 H27           -0.3189    -2.6020    -0.0080 H       
  28 H28            1.0581    -7.3960    -0.0389 H       
  29 H29           -0.6743    -5.4282    -0.0186 H       
@<TRIPOS>BOND
   1    1    2 1
   2    1    5 1
   3    2    3 2
   4    3    4 1
   5    3   15 1
   6    4    5 2
   7    5    7 1
   8    6    7 ar
   9    6   11 ar
  10    6   21 1
  11    7    8 ar
  12    8    9 ar
  13    8   22 1
  14    9   10 ar
  15    9   23 1
  16   10   11 ar
  17   10   24 1
  18   12   13 1
  19   12   17 1
  20   12   18 2
  21   13   14 2
  22   13   25 1
  23   14   15 1
  24   14   26 1
  25   15   16 2
  26   16   17 1
  27   16   27 1
  28   17   20 1
  29   18   19 1
  30   19   20 2
  31   19   28 1
  32   20   29 1

#	End of record

