#	Name: ASD08710100
#	Creating user name:	WinNT
#	Creation time:	15. 06. 2019 21:19

#	Modifying user name:	WinNT
#	Modification time:	15. 06. 2019 21:19

#	Program:	/corina/corina34_cracker 3.40 0067  02.08.2006

@<TRIPOS>MOLECULE
ASD08710100
  54   55    0    0    0
SMALL
NO_CHARGES


@<TRIPOS>ATOM
   1 N1             0.1169     1.3498     0.8247 N.am    
   2 C2             0.0582    -0.0239     0.3058 C.3     
   3 C3             0.6533    -0.0397    -1.1077 C.3     
   4 N4             1.9498     0.6518    -1.0791 N.am    
   5 C5             2.0086     2.0255    -0.5601 C.3     
   6 C6             1.4134     2.0413     0.8533 C.3     
   7 S7            -1.2544     2.1075     1.3612 S.o2    
   8 O8            -0.9609     3.4977     1.3865 O.2     
   9 O9            -2.3340     1.5544     0.6211 O.2     
  10 C10           -1.4982     1.6198     3.0367 C.ar    
  11 C11           -0.9361     2.3593     4.0605 C.ar    
  12 C12           -1.1274     1.9766     5.3750 C.ar    
  13 C13           -1.8810     0.8548     5.6657 C.ar    
  14 C14           -2.4438     0.1159     4.6419 C.ar    
  15 C15           -2.2562     0.5010     3.3276 C.ar    
  16 C16           -2.0887     0.4371     7.0987 C.3     
  17 F17           -3.2394     1.0533     7.6020 F       
  18 F18           -2.2379    -0.9524     7.1625 F       
  19 F19           -0.9814     0.8228     7.8620 F       
  20 C20            3.0650     0.0369    -1.5204 C.2     
  21 O21            3.0234    -1.1310    -1.8546 O.2     
  22 C22            5.5547     0.1373    -1.3683 C.ar    
  23 C23            4.3390     0.7830    -1.5981 C.ar    
  24 C24            4.3462     2.1491    -1.9039 C.ar    
  25 C25            5.5655     2.8011    -1.9648 C.ar    
  26 C26            6.7266     2.0892    -1.7240 C.ar    
  27 N27            6.6893     0.8016    -1.4379 N.ar    
  28 C28            8.0562     2.7957    -1.7895 C.3     
  29 C29           -1.3976    -0.4919     0.2552 C.3     
  30 H30            0.6351    -0.6844     0.9530 H       
  31 H31            0.7954    -1.0702    -1.4332 H       
  32 H32           -0.0201     0.4738    -1.7939 H       
  33 H33            3.0457     2.3589    -0.5241 H       
  34 H34            1.4317     2.6860    -1.2074 H       
  35 H35            1.2713     3.0718     1.1789 H       
  36 H36            2.0869     1.5278     1.5395 H       
  37 H37           -0.3473     3.2357     3.8334 H       
  38 H38           -0.6877     2.5539     6.1749 H       
  39 H39           -3.0323    -0.7607     4.8690 H       
  40 H40           -2.6989    -0.0741     2.5279 H       
  41 H41            5.5645    -0.9154    -1.1270 H       
  42 H42            3.4242     2.6804    -2.0879 H       
  43 H43            5.6098     3.8546    -2.1983 H       
  44 H44            8.3068     3.1903    -0.8048 H       
  45 H45            8.8263     2.0921    -2.1057 H       
  46 H46            7.9971     3.6156    -2.5052 H       
  47 H47           -1.9334     0.0696    -0.5102 H       
  48 H48           -1.4295    -1.5546     0.0153 H       
  49 H49           -1.8671    -0.3240     1.2245 H       
  50 C50           14.7688    10.0627    12.8693 C.2     
  51 O51           14.7852     8.8546    12.8626 O.2     
  52 O52           15.9220    10.7496    12.8620 O.3     
  53 H53           13.8263    10.5900    12.8766 H       
  54 H54           15.8583    11.7145    12.8678 H       
@<TRIPOS>BOND
   1    1    2 1
   2    1    6 1
   3    1    7 am
   4    2    3 1
   5    2   29 1
   6    2   30 1
   7    3    4 1
   8    3   31 1
   9    3   32 1
  10    4    5 1
  11    4   20 am
  12    5    6 1
  13    5   33 1
  14    5   34 1
  15    6   35 1
  16    6   36 1
  17    7    8 2
  18    7    9 2
  19    7   10 1
  20   10   11 ar
  21   10   15 ar
  22   11   12 ar
  23   11   37 1
  24   12   13 ar
  25   12   38 1
  26   13   14 ar
  27   13   16 1
  28   14   15 ar
  29   14   39 1
  30   15   40 1
  31   16   17 1
  32   16   18 1
  33   16   19 1
  34   20   21 2
  35   20   23 1
  36   22   23 ar
  37   22   27 ar
  38   22   41 1
  39   23   24 ar
  40   24   25 ar
  41   24   42 1
  42   25   26 ar
  43   25   43 1
  44   26   27 ar
  45   26   28 1
  46   28   44 1
  47   28   45 1
  48   28   46 1
  49   29   47 1
  50   29   48 1
  51   29   49 1
  52   50   51 2
  53   50   52 1
  54   50   53 1
  55   52   54 1

#	End of record

