#	Name: ASD01948222
#	Creating user name:	WinNT
#	Creation time:	15. 06. 2019 20:14

#	Modifying user name:	WinNT
#	Modification time:	15. 06. 2019 20:14

#	Program:	/corina/corina34_cracker 3.40 0067  02.08.2006

@<TRIPOS>MOLECULE
ASD01948222
  45   48    0    0    0
SMALL
NO_CHARGES


@<TRIPOS>ATOM
   1 C1             0.1164     1.1115    -0.3549 C.ar    
   2 C2             0.1671    -0.2382    -0.1109 C.ar    
   3 C3             1.3546    -0.8404     0.3224 C.ar    
   4 C4             2.4952    -0.0634     0.5078 C.ar    
   5 C5             2.4514     1.3026     0.2627 C.ar    
   6 C6             1.2573     1.8983    -0.1710 C.ar    
   7 C7            -0.8540    -1.3417    -0.2074 C.3     
   8 N8            -0.1755    -2.5766     0.1914 N.am    
   9 C9             1.1015    -2.2867     0.4978 C.2     
  10 C10            2.7699     2.7812     2.6076 C.ar    
  11 C11            3.7298     2.8486     1.6071 C.ar    
  12 N12            3.5888     2.0790     0.4473 N.pl3   
  13 C13            2.9113     3.5427     3.7519 C.ar    
  14 C14            4.0077     4.3725     3.9020 C.ar    
  15 C15            4.9676     4.4427     2.9074 C.ar    
  16 C16            4.8322     3.6835     1.7601 C.ar    
  17 F17            5.7690     3.7519     0.7891 F       
  18 Br18           4.1959     5.4128     5.4699 Br      
  19 O19            1.9289    -3.0972     0.8658 O.2     
  20 C20            1.2062     3.3501    -0.4331 C.2     
  21 O21            2.2224     4.0148    -0.3732 O.2     
  22 N22            0.0330     3.9388    -0.7388 N.am    
  23 O23           -0.0161     5.3314    -0.9903 O.3     
  24 C24           -1.3223     5.8202    -1.3015 C.3     
  25 C25           -1.2561     7.3279    -1.5531 C.3     
  26 O26           -0.4695     7.5823    -2.7188 O.3     
  27 C27           -2.3187    -1.0948     0.1484 C.3     
  28 C28           -1.9141    -1.3422    -1.3068 C.3     
  29 H29           -0.8035     1.5649    -0.6933 H       
  30 H30            3.4134    -0.5230     0.8423 H       
  31 H31           -0.5800    -3.4574     0.2283 H       
  32 H32            1.9109     2.1374     2.4897 H       
  33 H33            4.2850     2.0875    -0.2280 H       
  34 H34            2.1644     3.4901     4.5302 H       
  35 H35            5.8224     5.0918     3.0272 H       
  36 H36           -0.7778     3.4085    -0.7866 H       
  37 H37           -1.6945     5.3188    -2.1949 H       
  38 H38           -1.9936     5.6204    -0.4664 H       
  39 H39           -2.2636     7.7159    -1.7029 H       
  40 H40           -0.8013     7.8201    -0.6934 H       
  41 H41           -0.3844     8.5200    -2.9389 H       
  42 H42           -2.8526    -1.8924     0.6650 H       
  43 H43           -2.6052    -0.0804     0.4257 H       
  44 H44           -1.9346    -0.4905    -1.9868 H       
  45 H45           -2.1819    -2.3025    -1.7475 H       
@<TRIPOS>BOND
   1    1    2 ar
   2    1    6 ar
   3    1   29 1
   4    2    3 ar
   5    2    7 1
   6    3    4 ar
   7    3    9 1
   8    4    5 ar
   9    4   30 1
  10    5    6 ar
  11    5   12 1
  12    6   20 1
  13    7    8 1
  14    7   27 1
  15    7   28 1
  16    8    9 am
  17    8   31 1
  18    9   19 2
  19   10   11 ar
  20   10   13 ar
  21   10   32 1
  22   11   12 1
  23   11   16 ar
  24   12   33 1
  25   13   14 ar
  26   13   34 1
  27   14   15 ar
  28   14   18 1
  29   15   16 ar
  30   15   35 1
  31   16   17 1
  32   20   21 2
  33   20   22 am
  34   22   23 1
  35   22   36 1
  36   23   24 1
  37   24   25 1
  38   24   37 1
  39   24   38 1
  40   25   26 1
  41   25   39 1
  42   25   40 1
  43   26   41 1
  44   27   28 1
  45   27   42 1
  46   27   43 1
  47   28   44 1
  48   28   45 1

#	End of record

