#	Name: ASD01560017
#	Creating user name:	WinNT
#	Creation time:	15. 06. 2019 19:22

#	Modifying user name:	WinNT
#	Modification time:	15. 06. 2019 19:22

#	Program:	/corina/corina34_cracker 3.40 0067  02.08.2006

@<TRIPOS>MOLECULE
ASD01560017
  63   68    0    0    0
SMALL
NO_CHARGES


@<TRIPOS>ATOM
   1 C1             3.2051     3.0769     1.6529 C.3     
   2 C2             4.4922     2.6676     0.8962 C.3     
   3 C3             4.2404     3.1267    -0.5531 C.3     
   4 O4             2.9180     3.6882    -0.5999 O.3     
   5 C5             2.6186     4.1727     0.7268 C.3     
   6 C6             4.3311     1.9294    -1.5013 C.3     
   7 O7             4.2124     2.3812    -2.8518 O.3     
   8 C8             4.4202     1.3580    -3.8275 C.3     
   9 C9             3.4244     0.2478    -3.6110 C.ar    
  10 C10            4.2371     1.9351    -5.2075 C.ar    
  11 C11            5.8183     0.8120    -3.6927 C.ar    
  12 C12            6.8374     1.6266    -3.2357 C.ar    
  13 C13            8.1199     1.1258    -3.1122 C.ar    
  14 C14            8.3833    -0.1897    -3.4453 C.ar    
  15 C15            7.3640    -1.0046    -3.9014 C.ar    
  16 C16            6.0806    -0.5049    -4.0208 C.ar    
  17 C17            3.6106    -0.6570    -2.5827 C.ar    
  18 C18            2.6972    -1.6754    -2.3842 C.ar    
  19 C19            1.5972    -1.7887    -3.2138 C.ar    
  20 C20            1.4105    -0.8833    -4.2415 C.ar    
  21 C21            2.3216     0.1377    -4.4373 C.ar    
  22 C22            3.8188     3.2439    -5.3594 C.ar    
  23 C23            3.6508     3.7733    -6.6253 C.ar    
  24 C24            3.9015     2.9940    -7.7392 C.ar    
  25 C25            4.3206     1.6855    -7.5873 C.ar    
  26 C26            4.4928     1.1575    -6.3214 C.ar    
  27 O27            2.3071     1.9712     1.7668 O.3     
  28 N28            1.1710     4.2898     0.9188 N.pl3   
  29 C29            0.5352     5.1038     1.8222 C.ar    
  30 C30           -0.8441     4.8782     1.6430 C.ar    
  31 N31           -0.9711     3.9558     0.6581 N.2     
  32 C32            0.2092     3.6146     0.2289 C.2     
  33 N33            0.9310     5.9751     2.7405 N.ar    
  34 N34           -1.2531     6.4384     3.3375 N.ar    
  35 C35           -1.7393     5.5885     2.4469 C.ar    
  36 Cl36          -3.4523     5.3615     2.2808 Cl      
  37 C37            0.0478     6.6200     3.4741 C.ar    
  38 O38            4.6737     1.2511     0.9477 O.3     
  39 H39            3.4443     3.4841     2.6352 H       
  40 H40            5.3596     3.1779     1.3150 H       
  41 H41            4.9739     3.8820    -0.8354 H       
  42 H42            3.1092     5.1294     0.9058 H       
  43 H43            5.2918     1.4321    -1.3677 H       
  44 H44            3.5256     1.2291    -1.2803 H       
  45 H45            6.6316     2.6544    -2.9755 H       
  46 H46            8.9162     1.7624    -2.7558 H       
  47 H47            9.3854    -0.5808    -3.3494 H       
  48 H48            7.5698    -2.0322    -4.1620 H       
  49 H49            5.2843    -1.1416    -4.3772 H       
  50 H50            4.4700    -0.5685    -1.9346 H       
  51 H51            2.8431    -2.3828    -1.5813 H       
  52 H52            0.8840    -2.5847    -3.0591 H       
  53 H53            0.5513    -0.9720    -4.8898 H       
  54 H54            2.1757     0.8451    -5.2403 H       
  55 H55            3.6230     3.8527    -4.4892 H       
  56 H56            3.3233     4.7955    -6.7440 H       
  57 H57            3.7696     3.4074    -8.7282 H       
  58 H58            4.5162     1.0766    -8.4575 H       
  59 H59            4.8203     0.1352    -6.2026 H       
  60 H60            2.6659     1.2225     2.2625 H       
  61 H61            0.3989     2.8955    -0.5542 H       
  62 H62            0.4002     7.3237     4.2137 H       
  63 H63            4.7782     0.9003     1.8428 H       
@<TRIPOS>BOND
   1    1   27 1
   2    1    2 1
   3    1    5 1
   4    1   39 1
   5    2   38 1
   6    2    3 1
   7    2   40 1
   8    3    4 1
   9    3    6 1
  10    3   41 1
  11    4    5 1
  12    5   28 1
  13    5   42 1
  14    6    7 1
  15    6   43 1
  16    6   44 1
  17    7    8 1
  18    8    9 1
  19    8   10 1
  20    8   11 1
  21    9   17 ar
  22    9   21 ar
  23   10   22 ar
  24   10   26 ar
  25   11   12 ar
  26   11   16 ar
  27   12   13 ar
  28   12   45 1
  29   13   14 ar
  30   13   46 1
  31   14   15 ar
  32   14   47 1
  33   15   16 ar
  34   15   48 1
  35   16   49 1
  36   17   18 ar
  37   17   50 1
  38   18   19 ar
  39   18   51 1
  40   19   20 ar
  41   19   52 1
  42   20   21 ar
  43   20   53 1
  44   21   54 1
  45   22   23 ar
  46   22   55 1
  47   23   24 ar
  48   23   56 1
  49   24   25 ar
  50   24   57 1
  51   25   26 ar
  52   25   58 1
  53   26   59 1
  54   27   60 1
  55   28   29 1
  56   28   32 1
  57   29   30 ar
  58   29   33 ar
  59   30   31 1
  60   30   35 ar
  61   31   32 2
  62   32   61 1
  63   33   37 ar
  64   34   35 ar
  65   34   37 ar
  66   35   36 1
  67   37   62 1
  68   38   63 1

#	End of record

