#	Name: ASD01917022
#	Creating user name:	WinNT
#	Creation time:	15. 06. 2019 20:08

#	Modifying user name:	WinNT
#	Modification time:	15. 06. 2019 20:08

#	Program:	/corina/corina34_cracker 3.40 0067  02.08.2006

@<TRIPOS>MOLECULE
ASD01917022
  38   40    0    0    0
SMALL
NO_CHARGES


@<TRIPOS>ATOM
   1 C1            -0.0187     1.5258     0.0104 C.3     
   2 C2             0.0021    -0.0041     0.0020 C.3     
   3 C3             1.3951     2.0474    -0.0003 C.2     
   4 N4             2.0915     2.3928     1.0502 N.2     
   5 C5             3.3069     2.8103     0.6713 C.2     
   6 N6             3.3903     2.7313    -0.6386 N.2     
   7 N7             2.1587     2.2318    -1.0923 N.pl3   
   8 C8             4.3810     3.2834     1.5795 C.ar    
   9 C9             4.1667     3.3196     2.9557 C.ar    
  10 C10           -1.4333    -0.5336     0.0129 C.3     
  11 C11           -2.1733    -0.0268    -1.2266 C.3     
  12 C12           -2.1940     1.5030    -1.2182 C.3     
  13 C13           -0.7587     2.0326    -1.2291 C.3     
  14 C14            5.6081     3.6871     1.0590 C.ar    
  15 C15            6.6066     4.1278     1.9117 C.ar    
  16 C16            6.3832     4.1658     3.2814 C.ar    
  17 C17            5.1675     3.7602     3.7987 C.ar    
  18 O18            7.8054     4.5225     1.4076 O.3     
  19 C19            8.7892     4.9652     2.3447 C.3     
  20 H20           -0.5289     1.8773     0.9072 H       
  21 H21            0.5123    -0.3556    -0.8948 H       
  22 H22            0.5293    -0.3651     0.8851 H       
  23 H23            1.9059     2.0596    -2.0129 H       
  24 H24            3.2178     3.0034     3.3630 H       
  25 H25           -1.4185    -1.6235     0.0069 H       
  26 H26           -1.9435    -0.1821     0.9097 H       
  27 H27           -1.6631    -0.3783    -2.1234 H       
  28 H28           -3.1959    -0.4041    -1.2189 H       
  29 H29           -2.7212     1.8641    -2.1013 H       
  30 H30           -2.7042     1.8545    -0.3214 H       
  31 H31           -0.7734     3.1225    -1.2231 H       
  32 H32           -0.2485     1.6811    -2.1259 H       
  33 H33            5.7807     3.6564    -0.0067 H       
  34 H34            7.1632     4.5090     3.9449 H       
  35 H35            4.9984     3.7920     4.8649 H       
  36 H36            8.4059     5.8242     2.8954 H       
  37 H37            9.0160     4.1585     3.0417 H       
  38 H38            9.6962     5.2506     1.8117 H       
@<TRIPOS>BOND
   1    1    2 1
   2    1    3 1
   3    1   13 1
   4    1   20 1
   5    2   10 1
   6    2   21 1
   7    2   22 1
   8    3    4 2
   9    3    7 1
  10    4    5 1
  11    5    6 2
  12    5    8 1
  13    6    7 1
  14    7   23 1
  15    8    9 ar
  16    8   14 ar
  17    9   17 ar
  18    9   24 1
  19   10   11 1
  20   10   25 1
  21   10   26 1
  22   11   12 1
  23   11   27 1
  24   11   28 1
  25   12   13 1
  26   12   29 1
  27   12   30 1
  28   13   31 1
  29   13   32 1
  30   14   15 ar
  31   14   33 1
  32   15   16 ar
  33   15   18 1
  34   16   17 ar
  35   16   34 1
  36   17   35 1
  37   18   19 1
  38   19   36 1
  39   19   37 1
  40   19   38 1

#	End of record

