#	Name: ASD02320044
#	Creating user name:	WinNT
#	Creation time:	15. 06. 2019 20:20

#	Modifying user name:	WinNT
#	Modification time:	15. 06. 2019 20:20

#	Program:	/corina/corina34_cracker 3.40 0067  02.08.2006

@<TRIPOS>MOLECULE
ASD02320044
  86   93    0    0    0
SMALL
NO_CHARGES


@<TRIPOS>ATOM
   1 C1             1.9785     3.1018     0.8438 C.ar    
   2 C2             1.8918     1.7424     0.9490 C.ar    
   3 C3             3.0464     0.9618     0.8389 C.ar    
   4 C4             4.2910     1.5951     0.6193 C.ar    
   5 C5             4.3563     2.9833     0.5152 C.ar    
   6 C6             3.2007     3.7255     0.6282 C.ar    
   7 N7             3.0008    -0.3817     0.9376 N.2     
   8 C8             4.0801    -1.1153     0.8353 C.2     
   9 N9             5.3244    -0.5869     0.6230 N.am    
  10 C10            5.4897     0.7515     0.5077 C.2     
  11 O11            6.5892     1.2381     0.3183 O.2     
  12 C12            3.9489    -2.5810     0.9551 C.ar    
  13 C13            4.7115    -3.2779     1.8956 C.ar    
  14 C14            4.5857    -4.6453     2.0045 C.ar    
  15 C15            3.7023    -5.3315     1.1802 C.ar    
  16 C16            2.9420    -4.6421     0.2435 C.ar    
  17 C17            3.0576    -3.2739     0.1322 C.ar    
  18 C18            6.4848    -1.4753     0.5204 C.3     
  19 C19            6.6035    -1.9854    -0.8927 C.2     
  20 N20            5.9731    -3.0420    -1.4178 N.2     
  21 C21            7.3642    -1.4611    -1.8818 C.2     
  22 N22            7.1577    -2.2395    -2.9691 N.pl3   
  23 N23            6.3242    -3.1667    -2.6490 N.2     
  24 C24            7.7741    -2.0564    -4.2855 C.3     
  25 C25            8.4813    -3.3478    -4.7016 C.3     
  26 N26            9.0977    -3.1647    -6.0179 N.pl3   
  27 C27           10.4010    -3.3697    -6.3185 C.2     
  28 C28           10.5338    -3.0839    -7.6348 C.2     
  29 N29            9.3212    -2.7228    -8.0693 N.2     
  30 N30            8.4914    -2.7864    -7.0885 N.2     
  31 C31           11.7990    -3.1572    -8.4503 C.3     
  32 N32           11.8707    -4.4558    -9.1246 N.am    
  33 C33           11.2403    -4.6340   -10.3260 C.2     
  34 N34           11.2627    -5.7659   -10.9833 N.2     
  35 C35           11.9181    -6.8451   -10.5118 C.ar    
  36 C36           12.5987    -6.7529    -9.2763 C.ar    
  37 C37           12.5647    -5.4705    -8.5583 C.2     
  38 C38           11.9397    -8.0528   -11.2159 C.ar    
  39 C39           12.6150    -9.1249   -10.7048 C.ar    
  40 C40           13.2842    -9.0357    -9.4910 C.ar    
  41 C41           13.2812    -7.8592    -8.7736 C.ar    
  42 O42           13.1315    -5.3292    -7.4903 O.2     
  43 C43           10.5000    -3.4968   -10.9079 C.ar    
  44 C44           11.1420    -2.2723   -11.1087 C.ar    
  45 C45           10.4479    -1.2139   -11.6522 C.ar    
  46 C46            9.1109    -1.3627   -12.0002 C.ar    
  47 C47            8.4687    -2.5789   -11.8021 C.ar    
  48 C48            9.1573    -3.6439   -11.2645 C.ar    
  49 O49            3.5819    -6.6794     1.2901 O.3     
  50 S50            2.5183    -7.1271     2.2824 S.o2    
  51 O51            2.6646    -8.5338     2.4201 O.2     
  52 O52            2.5893    -6.2272     3.3799 O.2     
  53 O53            1.1645    -6.8981     1.6257 O.3     
  54 Na54           0.7120    -8.2299     0.2180 Du      
  55 O55            8.4301    -0.3168   -12.5349 O.3     
  56 S56            8.4968    -0.2462   -14.0538 S.o2    
  57 O57            7.9144     0.9960   -14.4237 O.2     
  58 O58            9.8182    -0.6234   -14.4153 O.2     
  59 O59            7.5767    -1.3307   -14.5960 O.3     
  60 Na60           5.6402    -0.8964   -14.4506 Du      
  61 H61            1.0830     3.7000     0.9251 H       
  62 H62            0.9342     1.2722     1.1171 H       
  63 H63            5.3040     3.4731     0.3472 H       
  64 H64            3.2458     4.8016     0.5483 H       
  65 H65            5.3989    -2.7454     2.5361 H       
  66 H66            5.1749    -5.1849     2.7313 H       
  67 H67            2.2567    -5.1791    -0.3955 H       
  68 H68            2.4664    -2.7388    -0.5961 H       
  69 H69            7.3879    -0.9255     0.7852 H       
  70 H70            6.3592    -2.3172     1.2012 H       
  71 H71            8.0064    -0.5952    -1.8165 H       
  72 H72            7.0035    -1.8124    -5.0167 H       
  73 H73            8.4994    -1.2442    -4.2372 H       
  74 H74            9.2519    -3.5918    -3.9703 H       
  75 H75            7.7560    -4.1600    -4.7498 H       
  76 H76           11.1788    -3.6953    -5.6438 H       
  77 H77           11.7982    -2.3609    -9.1946 H       
  78 H78           12.6615    -3.0405    -7.7941 H       
  79 H79           11.4239    -8.1380   -12.1609 H       
  80 H80           12.6283   -10.0556   -11.2525 H       
  81 H81           13.8112    -9.8961    -9.1058 H       
  82 H82           13.8034    -7.7949    -7.8305 H       
  83 H83           12.1809    -2.1556   -10.8378 H       
  84 H84           10.9435    -0.2670   -11.8078 H       
  85 H85            7.4294    -2.6905   -12.0736 H       
  86 H86            8.6575    -4.5889   -11.1108 H       
@<TRIPOS>BOND
   1    1    2 ar
   2    1    6 ar
   3    1   61 1
   4    2    3 ar
   5    2   62 1
   6    3    4 ar
   7    3    7 1
   8    4    5 ar
   9    4   10 1
  10    5    6 ar
  11    5   63 1
  12    6   64 1
  13    7    8 2
  14    8    9 1
  15    8   12 1
  16    9   10 am
  17    9   18 1
  18   10   11 2
  19   12   13 ar
  20   12   17 ar
  21   13   14 ar
  22   13   65 1
  23   14   15 ar
  24   14   66 1
  25   15   16 ar
  26   15   49 1
  27   16   17 ar
  28   16   67 1
  29   17   68 1
  30   18   19 1
  31   18   69 1
  32   18   70 1
  33   19   20 1
  34   19   21 2
  35   20   23 2
  36   21   22 1
  37   21   71 1
  38   22   23 1
  39   22   24 1
  40   24   25 1
  41   24   72 1
  42   24   73 1
  43   25   26 1
  44   25   74 1
  45   25   75 1
  46   26   27 1
  47   26   30 1
  48   27   28 2
  49   27   76 1
  50   28   29 1
  51   28   31 1
  52   29   30 2
  53   31   32 1
  54   31   77 1
  55   31   78 1
  56   32   33 1
  57   32   37 am
  58   33   34 2
  59   33   43 1
  60   34   35 1
  61   35   36 ar
  62   35   38 ar
  63   36   37 1
  64   36   41 ar
  65   37   42 2
  66   38   39 ar
  67   38   79 1
  68   39   40 ar
  69   39   80 1
  70   40   41 ar
  71   40   81 1
  72   41   82 1
  73   43   44 ar
  74   43   48 ar
  75   44   45 ar
  76   44   83 1
  77   45   46 ar
  78   45   84 1
  79   46   47 ar
  80   46   55 1
  81   47   48 ar
  82   47   85 1
  83   48   86 1
  84   49   50 1
  85   50   51 2
  86   50   52 2
  87   50   53 1
  88   53   54 1
  89   55   56 1
  90   56   57 2
  91   56   58 2
  92   56   59 1
  93   59   60 1

#	End of record

