#	Name: ASD03330917
#	Creating user name:	WinNT
#	Creation time:	15. 06. 2019 20:38

#	Modifying user name:	WinNT
#	Modification time:	15. 06. 2019 20:38

#	Program:	/corina/corina34_cracker 3.40 0067  02.08.2006

@<TRIPOS>MOLECULE
ASD03330917
  69   71    0    0    0
SMALL
NO_CHARGES


@<TRIPOS>ATOM
   1 N1             0.2556     0.8533     0.4293 N.pl3   
   2 C2             0.1380    -0.4996     0.3386 C.2     
   3 C3             1.2764    -1.4848     0.3895 C.3     
   4 N4             2.1552    -1.1487     1.5206 N.3     
   5 C5             3.1921    -0.1954     1.1212 C.3     
   6 C6             2.6680     0.7691     0.0612 C.3     
   7 C7             1.5076     1.5880     0.6331 C.3     
   8 C8            -0.9954     1.3835     0.3080 C.2     
   9 N9            -1.8555     0.4023     0.1664 N.2     
  10 C10           -1.1849    -0.7783     0.1840 C.2     
  11 C11           -1.7819    -2.1192     0.0577 C.2     
  12 O12           -1.0719    -3.1063     0.0878 O.2     
  13 N13           -3.1148    -2.2522    -0.0912 N.am    
  14 C14            2.7492    -2.3591     2.1036 C.3     
  15 N15           -2.3967     4.7219     0.1008 N.pl3   
  16 N16           -1.1403     4.9923     0.6559 N.2     
  17 C17           -0.4960     3.8650     0.7971 C.2     
  18 C18           -1.3275     2.8250     0.3322 C.2     
  19 C19           -2.4966     3.3926    -0.0914 C.2     
  20 C20           -3.4284     5.7140    -0.2115 C.3     
  21 C21           -3.7435     6.5339     1.0412 C.3     
  22 C22           -4.7281     7.6498     0.6861 C.3     
  23 C23           -4.3649     5.6243     2.1030 C.3     
  24 C24           -5.0174    -3.4850    -0.9568 C.2     
  25 C25           -3.7084    -3.5856    -0.2168 C.3     
  26 C26           -3.9537    -4.1679     1.1766 C.3     
  27 C27           -4.9754    -3.3034     1.9181 C.3     
  28 O28           -5.6514    -2.4515    -0.9297 O.2     
  29 N29           -5.4833    -4.5436    -1.6487 N.am    
  30 C30           -6.8019    -4.4805    -2.2841 C.3     
  31 C31           -4.4919    -5.5942     1.0458 C.3     
  32 C32           -2.6393    -4.1886     1.9594 C.3     
  33 H33            0.8810    -2.4919     0.5222 H       
  34 H34            1.8436    -1.4346    -0.5399 H       
  35 H35            3.5123     0.3723     1.9949 H       
  36 H36            4.0448    -0.7418     0.7180 H       
  37 H37            3.4695     1.4413    -0.2451 H       
  38 H38            2.3207     0.2034    -0.8034 H       
  39 H39            1.4534     2.5493     0.1222 H       
  40 H40            1.6661     1.7492     1.6994 H       
  41 H41           -3.6810    -1.4649    -0.1152 H       
  42 H42            3.2792    -2.9131     1.3288 H       
  43 H43            3.4479    -2.0777     2.8915 H       
  44 H44            1.9613    -2.9847     2.5231 H       
  45 H45            0.4997     3.7495     1.1992 H       
  46 H46           -3.3462     2.8699    -0.5053 H       
  47 H47           -3.0686     6.3768    -0.9985 H       
  48 H48           -4.3312     5.2053    -0.5494 H       
  49 H49           -2.8238     6.9709     1.4303 H       
  50 H50           -5.6477     7.2128     0.2971 H       
  51 H51           -4.9526     8.2339     1.5787 H       
  52 H52           -4.2854     8.2978    -0.0703 H       
  53 H53           -5.2845     5.1872     1.7140 H       
  54 H54           -3.6635     4.8292     2.3560 H       
  55 H55           -4.5894     6.2083     2.9955 H       
  56 H56           -3.0286    -4.2355    -0.7677 H       
  57 H57           -5.9118    -3.2887     1.3604 H       
  58 H58           -5.1501    -3.7183     2.9107 H       
  59 H59           -4.5920    -2.2873     2.0113 H       
  60 H60           -4.9457    -5.3473    -1.7260 H       
  61 H61           -7.0051    -5.4224    -2.7936 H       
  62 H62           -7.5635    -4.3068    -1.5240 H       
  63 H63           -6.8179    -3.6653    -3.0075 H       
  64 H64           -3.7345    -6.2273     0.5836 H       
  65 H65           -4.7360    -5.9825     2.0345 H       
  66 H66           -5.3885    -5.5888     0.4260 H       
  67 H67           -2.2559    -3.1725     2.0526 H       
  68 H68           -2.8141    -4.6035     2.9521 H       
  69 H69           -1.9115    -4.8045     1.4312 H       
@<TRIPOS>BOND
   1    1    2 1
   2    1    7 1
   3    1    8 1
   4    2    3 1
   5    2   10 2
   6    3    4 1
   7    3   33 1
   8    3   34 1
   9    4    5 1
  10    4   14 1
  11    5    6 1
  12    5   35 1
  13    5   36 1
  14    6    7 1
  15    6   37 1
  16    6   38 1
  17    7   39 1
  18    7   40 1
  19    8    9 2
  20    8   18 1
  21    9   10 1
  22   10   11 1
  23   11   12 2
  24   11   13 am
  25   13   25 1
  26   13   41 1
  27   14   42 1
  28   14   43 1
  29   14   44 1
  30   15   16 1
  31   15   19 1
  32   15   20 1
  33   16   17 2
  34   17   18 1
  35   17   45 1
  36   18   19 2
  37   19   46 1
  38   20   21 1
  39   20   47 1
  40   20   48 1
  41   21   22 1
  42   21   23 1
  43   21   49 1
  44   22   50 1
  45   22   51 1
  46   22   52 1
  47   23   53 1
  48   23   54 1
  49   23   55 1
  50   24   28 2
  51   24   29 am
  52   24   25 1
  53   25   26 1
  54   25   56 1
  55   26   27 1
  56   26   31 1
  57   26   32 1
  58   27   57 1
  59   27   58 1
  60   27   59 1
  61   29   30 1
  62   29   60 1
  63   30   61 1
  64   30   62 1
  65   30   63 1
  66   31   64 1
  67   31   65 1
  68   31   66 1
  69   32   67 1
  70   32   68 1
  71   32   69 1

#	End of record

