#	Name: ASD09560001
#	Creating user name:	WinNT
#	Creation time:	15. 06. 2019 21:22

#	Modifying user name:	WinNT
#	Modification time:	15. 06. 2019 21:22

#	Program:	/corina/corina34_cracker 3.40 0067  02.08.2006

@<TRIPOS>MOLECULE
ASD09560001
  62   63    0    0    0
SMALL
NO_CHARGES


@<TRIPOS>ATOM
   1 C1            -0.0184     1.5028     0.0103 C.2     
   2 C2             0.0021    -0.0041     0.0020 C.3     
   3 C3            -0.7241    -0.5171    -1.2431 C.3     
   4 O4             1.0197     2.1211     0.0037 O.2     
   5 O5            -1.1898     2.1580     0.0194 O.3     
   6 C6            -0.8113    -2.0207    -1.1900 C.ar    
   7 C7            -1.8999    -2.6263    -0.5876 C.ar    
   8 C8            -1.9863    -4.0018    -0.5348 C.ar    
   9 C9            -0.9713    -4.7840    -1.0920 C.ar    
  10 C10            0.1247    -4.1653    -1.6991 C.ar    
  11 C11            0.1949    -2.7888    -1.7489 C.ar    
  12 C12           -1.0537    -6.2127    -1.0407 C.1     
  13 C13           -1.1212    -7.3840    -0.9986 C.1     
  14 C14           -1.2036    -8.8127    -0.9473 C.ar    
  15 C15           -0.1886    -9.5950    -1.5045 C.ar    
  16 C16           -0.2748   -10.9704    -1.4514 C.ar    
  17 C17           -1.3630   -11.5761    -0.8482 C.ar    
  18 C18           -2.3722   -10.8079    -0.2946 C.ar    
  19 C19           -2.2966    -9.4314    -0.3347 C.ar    
  20 N20            1.3897    -0.4735    -0.0138 N.am    
  21 C21            2.0717    -0.5994     1.1419 C.2     
  22 O22            1.5367    -0.3240     2.1949 O.2     
  23 C23            3.4992    -1.0823     1.1257 C.3     
  24 C24            4.0362    -1.1344     2.5573 C.3     
  25 C25            5.4406    -1.7416     2.5535 C.3     
  26 N26            5.9072    -1.9018     3.9329 N.pl3   
  27 C27            5.6538    -3.0694     4.6131 C.2     
  28 N28            4.9985    -4.0339     4.0306 N.2     
  29 N29            6.0917    -3.2197     5.9076 N.pl3   
  30 C30            6.6437    -0.8177     4.5876 C.3     
  31 C31            4.0948     0.2824     3.1319 C.3     
  32 C32           -1.1335     3.6089     0.0270 C.3     
  33 H33           -0.4983    -0.3791     0.8948 H       
  34 H34           -1.7288    -0.0959    -1.2772 H       
  35 H35           -0.1736    -0.2164    -2.1345 H       
  36 H36           -2.6836    -2.0204    -0.1573 H       
  37 H37           -2.8362    -4.4731    -0.0636 H       
  38 H38            0.9131    -4.7636    -2.1315 H       
  39 H39            1.0395    -2.3092    -2.2214 H       
  40 H40            0.6611    -9.1236    -1.9759 H       
  41 H41            0.5088   -11.5763    -1.8819 H       
  42 H42           -1.4252   -12.6536    -0.8095 H       
  43 H43           -3.2187   -11.2875     0.1742 H       
  44 H44           -3.0826    -8.8331     0.1019 H       
  45 H45            1.8177    -0.6938    -0.8559 H       
  46 H46            3.5407    -2.0787     0.6856 H       
  47 H47            4.1075    -0.3982     0.5340 H       
  48 H48            3.3767    -1.7483     3.1707 H       
  49 H49            5.4142    -2.7149     2.0635 H       
  50 H50            6.1203    -1.0817     2.0143 H       
  51 H51            4.8198    -4.8577     4.5105 H       
  52 H52            6.5794    -2.5020     6.3411 H       
  53 H53            5.9130    -4.0435     6.3875 H       
  54 H54            5.9416    -0.1560     5.0948 H       
  55 H55            7.3377    -1.2379     5.3155 H       
  56 H56            7.1998    -0.2527     3.8395 H       
  57 H57            3.0943     0.7150     3.1347 H       
  58 H58            4.4774     0.2453     4.1519 H       
  59 H59            4.7544     0.8963     2.5185 H       
  60 H60           -0.6017     3.9472     0.9164 H       
  61 H61           -0.6102     3.9569    -0.8636 H       
  62 H62           -2.1463     4.0118     0.0340 H       
@<TRIPOS>BOND
   1    1    2 1
   2    1    4 2
   3    1    5 1
   4    2    3 1
   5    2   20 1
   6    2   33 1
   7    3    6 1
   8    3   34 1
   9    3   35 1
  10    5   32 1
  11    6    7 ar
  12    6   11 ar
  13    7    8 ar
  14    7   36 1
  15    8    9 ar
  16    8   37 1
  17    9   10 ar
  18    9   12 1
  19   10   11 ar
  20   10   38 1
  21   11   39 1
  22   12   13 3
  23   13   14 1
  24   14   15 ar
  25   14   19 ar
  26   15   16 ar
  27   15   40 1
  28   16   17 ar
  29   16   41 1
  30   17   18 ar
  31   17   42 1
  32   18   19 ar
  33   18   43 1
  34   19   44 1
  35   20   21 am
  36   20   45 1
  37   21   22 2
  38   21   23 1
  39   23   24 1
  40   23   46 1
  41   23   47 1
  42   24   25 1
  43   24   31 1
  44   24   48 1
  45   25   26 1
  46   25   49 1
  47   25   50 1
  48   26   27 1
  49   26   30 1
  50   27   28 2
  51   27   29 1
  52   28   51 1
  53   29   52 1
  54   29   53 1
  55   30   54 1
  56   30   55 1
  57   30   56 1
  58   31   57 1
  59   31   58 1
  60   31   59 1
  61   32   60 1
  62   32   61 1
  63   32   62 1

#	End of record

