#	Name: ASD02448162
#	Creating user name:	WinNT
#	Creation time:	15. 06. 2019 20:21

#	Modifying user name:	WinNT
#	Modification time:	15. 06. 2019 20:21

#	Program:	/corina/corina34_cracker 3.40 0067  02.08.2006

@<TRIPOS>MOLECULE
ASD02448162
  52   56    0    0    0
SMALL
NO_CHARGES


@<TRIPOS>ATOM
   1 C1            -0.2417     1.0706     0.2863 C.ar    
   2 C2            -0.1363    -0.3019     0.1824 C.ar    
   3 C3             1.1152    -0.8989     0.1139 C.ar    
   4 C4             2.2611    -0.1160     0.1498 C.ar    
   5 C5             2.1566     1.2565     0.2541 C.ar    
   6 C6             0.9046     1.8543     0.3223 C.ar    
   7 N7             0.7982     3.2444     0.4275 N.am    
   8 C8            -0.3266     4.0969     0.0210 C.3     
   9 C9            -0.0468     5.5375     0.3043 C.2     
  10 N10            1.1479     5.7784     0.8625 N.am    
  11 S11            1.9169     4.3140     1.0502 S.o2    
  12 O12           -0.8388     6.4198     0.0488 O.2     
  13 O13            2.0125     4.0666     2.4462 O.2     
  14 O14            3.0291     4.3082     0.1658 O.2     
  15 N15            1.2220    -2.2945     0.0088 N.pl3   
  16 C16            0.6849    -3.2164     0.8664 C.2     
  17 C17            1.8727    -2.9813    -0.9663 C.2     
  18 N18            1.7516    -4.2588    -0.7349 N.2     
  19 C19            1.0255    -4.4412     0.3866 C.2     
  20 C20            0.6634    -5.7473     0.9899 C.ar    
  21 C21            0.1279    -6.7607     0.1958 C.ar    
  22 C22            0.8624    -5.9683     2.3522 C.ar    
  23 C23            0.5231    -7.1865     2.9081 C.ar    
  24 C24           -0.0125    -8.1861     2.1163 C.ar    
  25 C25           -0.2074    -7.9747     0.7634 C.ar    
  26 Cl26          -0.1174    -6.4973    -1.5025 Cl      
  27 C27            1.7049    -2.3050    -3.3265 C.ar    
  28 C28            0.9942    -1.1504    -3.5963 C.ar    
  29 C29            0.1650    -1.0911    -4.7005 C.ar    
  30 C30            0.0463    -2.1874    -5.5357 C.ar    
  31 C31            0.7577    -3.3425    -5.2653 C.ar    
  32 C32            1.5867    -3.4008    -4.1609 C.ar    
  33 Br33          -1.0884    -2.1072    -7.0462 Br      
  34 C34            2.6136    -2.3669    -2.1259 C.3     
  35 Cl35           1.5356    -4.7154     3.3475 Cl      
  36 H36           -1.2154     1.5352     0.3351 H       
  37 H37           -1.0274    -0.9114     0.1548 H       
  38 H38            3.2345    -0.5808     0.0965 H       
  39 H39            3.0481     1.8654     0.2828 H       
  40 H40           -0.5023     3.9707    -1.0473 H       
  41 H41           -1.2202     3.7928     0.5661 H       
  42 H42            1.4989     6.6470     1.1139 H       
  43 H43            0.1035    -3.0103     1.7529 H       
  44 H44            0.6768    -7.3590     3.9632 H       
  45 H45           -0.2759    -9.1370     2.5554 H       
  46 H46           -0.6263    -8.7589     0.1502 H       
  47 H47            1.0866    -0.2946    -2.9439 H       
  48 H48           -0.3905    -0.1892    -4.9110 H       
  49 H49            0.6651    -4.1988    -5.9169 H       
  50 H50            2.1421    -4.3026    -3.9497 H       
  51 H51            2.9335    -1.3594    -1.8599 H       
  52 H52            3.4869    -2.9749    -2.3622 H       
@<TRIPOS>BOND
   1    1    2 ar
   2    1    6 ar
   3    1   36 1
   4    2    3 ar
   5    2   37 1
   6    3    4 ar
   7    3   15 1
   8    4    5 ar
   9    4   38 1
  10    5    6 ar
  11    5   39 1
  12    6    7 1
  13    7    8 1
  14    7   11 am
  15    8    9 1
  16    8   40 1
  17    8   41 1
  18    9   10 am
  19    9   12 2
  20   10   11 am
  21   10   42 1
  22   11   13 2
  23   11   14 2
  24   15   16 1
  25   15   17 1
  26   16   19 2
  27   16   43 1
  28   17   18 2
  29   17   34 1
  30   18   19 1
  31   19   20 1
  32   20   21 ar
  33   20   22 ar
  34   21   26 1
  35   21   25 ar
  36   22   23 ar
  37   22   35 1
  38   23   24 ar
  39   23   44 1
  40   24   25 ar
  41   24   45 1
  42   25   46 1
  43   27   28 ar
  44   27   32 ar
  45   27   34 1
  46   28   29 ar
  47   28   47 1
  48   29   30 ar
  49   29   48 1
  50   30   31 ar
  51   30   33 1
  52   31   32 ar
  53   31   49 1
  54   32   50 1
  55   34   51 1
  56   34   52 1

#	End of record

