#	Name: ASD04660031
#	Creating user name:	WinNT
#	Creation time:	15. 06. 2019 20:52

#	Modifying user name:	WinNT
#	Modification time:	15. 06. 2019 20:52

#	Program:	/corina/corina34_cracker 3.40 0067  02.08.2006

@<TRIPOS>MOLECULE
ASD04660031
  48   52    0    0    0
SMALL
NO_CHARGES


@<TRIPOS>ATOM
   1 N1             0.1757    -2.2761    -1.7469 N.am    
   2 C2             0.0294    -1.3155    -0.7963 C.2     
   3 C3             1.3681    -0.8687    -0.3935 C.ar    
   4 C4             2.2393    -1.6399    -1.1774 C.ar    
   5 C5             3.6308    -1.5491    -1.1272 C.ar    
   6 C6             4.3568    -2.3952    -1.9816 C.ar    
   7 C7             3.6651    -3.2458    -2.8006 C.ar    
   8 C8             2.2728    -3.3152    -2.8302 C.ar    
   9 C9             1.5225    -2.4989    -2.0042 C.ar    
  10 C10            4.1819    -0.6201    -0.2280 C.ar    
  11 C11            3.3396     0.1373     0.5413 C.ar    
  12 C12            1.9503     0.0339     0.4789 C.ar    
  13 O13           -1.0261    -0.8993    -0.3565 O.2     
  14 S14            5.9287    -0.4336    -0.0922 S.o2    
  15 O15            6.1492     0.6012     0.8564 O.2     
  16 O16            6.4624    -1.7431     0.0479 O.2     
  17 N17            6.4748     0.1408    -1.5462 N.am    
  18 C18            7.2642     2.1338    -2.7257 C.3     
  19 C19            6.0925     1.4822    -1.9942 C.3     
  20 C20            4.9102     1.3848    -2.9657 C.3     
  21 C21            4.3824     2.7945    -3.2246 C.3     
  22 C22            5.5060     3.7165    -3.6203 C.ar    
  23 C23            5.1723     4.9133    -4.2417 C.ar    
  24 C24            6.1550     5.8023    -4.6243 C.ar    
  25 C25            7.4834     5.5009    -4.3877 C.ar    
  26 C26            7.8169     4.3123    -3.7724 C.ar    
  27 C27            6.8289     3.4148    -3.3879 C.ar    
  28 N28            5.7886     7.0744    -5.2866 N.pl3   
  29 O29            4.6177     7.3376    -5.4944 O.2     
  30 O30            6.6581     7.8579    -5.6236 O.2     
  31 O31            8.3054     2.4178    -1.7890 O.3     
  32 H32           -0.5559    -2.7424    -2.1807 H       
  33 H33            5.4366    -2.3747    -1.9922 H       
  34 H34            4.2254    -3.8954    -3.4568 H       
  35 H35            1.7805    -4.0060    -3.4987 H       
  36 H36            3.7719     0.8487     1.2294 H       
  37 H37            1.3313     0.6562     1.1083 H       
  38 H38            7.0479    -0.4109    -2.1013 H       
  39 H39            7.6411     1.4473    -3.4839 H       
  40 H40            5.8126     2.0906    -1.1342 H       
  41 H41            5.2414     0.9388    -3.9035 H       
  42 H42            4.1227     0.7731    -2.5255 H       
  43 H43            3.6456     2.7607    -4.0271 H       
  44 H44            3.9090     3.1731    -2.3186 H       
  45 H45            4.1348     5.1494    -4.4269 H       
  46 H46            8.2573     6.1936    -4.6838 H       
  47 H47            8.8549     4.0774    -3.5884 H       
  48 H48            9.0850     2.8338    -2.1816 H       
@<TRIPOS>BOND
   1    1    2 am
   2    1    9 1
   3    1   32 1
   4    2    3 1
   5    2   13 2
   6    3    4 ar
   7    3   12 ar
   8    4    5 ar
   9    4    9 ar
  10    5    6 ar
  11    5   10 ar
  12    6    7 ar
  13    6   33 1
  14    7    8 ar
  15    7   34 1
  16    8    9 ar
  17    8   35 1
  18   10   11 ar
  19   10   14 1
  20   11   12 ar
  21   11   36 1
  22   12   37 1
  23   14   15 2
  24   14   16 2
  25   14   17 am
  26   17   19 1
  27   17   38 1
  28   18   19 1
  29   18   27 1
  30   18   31 1
  31   18   39 1
  32   19   20 1
  33   19   40 1
  34   20   21 1
  35   20   41 1
  36   20   42 1
  37   21   22 1
  38   21   43 1
  39   21   44 1
  40   22   23 ar
  41   22   27 ar
  42   23   24 ar
  43   23   45 1
  44   24   25 ar
  45   24   28 1
  46   25   26 ar
  47   25   46 1
  48   26   27 ar
  49   26   47 1
  50   28   29 2
  51   28   30 2
  52   31   48 1

#	End of record

