#	Name: ASD09270001
#	Creating user name:	WinNT
#	Creation time:	15. 06. 2019 21:21

#	Modifying user name:	WinNT
#	Modification time:	15. 06. 2019 21:21

#	Program:	/corina/corina34_cracker 3.40 0067  02.08.2006

@<TRIPOS>MOLECULE
ASD09270001
  50   49    0    0    0
SMALL
NO_CHARGES


@<TRIPOS>ATOM
   1 C1            -0.0161     1.3381     0.0094 C.2     
   2 O2             0.0021    -0.0041     0.0020 O.3     
   3 O3             1.0219     1.9564     0.0028 O.2     
   4 C4            -1.3313     2.0738     0.0196 C.3     
   5 C5            -1.0722     3.5816     0.0266 C.3     
   6 C6            -2.4074     4.3285     0.0370 C.3     
   7 C7            -2.1483     5.8364     0.0440 C.3     
   8 C8            -3.4836     6.5833     0.0544 C.3     
   9 C9            -3.2244     8.0912     0.0613 C.3     
  10 C10           -4.5597     8.8381     0.0717 C.3     
  11 C11           -4.3005    10.3460     0.0787 C.3     
  12 C12           -5.6358    11.0929     0.0891 C.3     
  13 C13           -5.3767    12.6008     0.0960 C.3     
  14 C14           -6.7119    13.3477     0.1064 C.3     
  15 C15           -6.4528    14.8556     0.1134 C.3     
  16 C16           -7.7880    15.6025     0.1238 C.3     
  17 C17           -7.5289    17.1104     0.1308 C.3     
  18 C18           -8.8641    17.8573     0.1412 C.3     
  19 H19            0.8695    -0.4313    -0.0086 H       
  20 H20           -1.9035     1.8075    -0.8691 H       
  21 H21           -1.8950     1.7979     0.9108 H       
  22 H22           -0.5000     3.8479     0.9153 H       
  23 H23           -0.5085     3.8575    -0.8646 H       
  24 H24           -2.9796     4.0623    -0.8517 H       
  25 H25           -2.9712     4.0526     0.9282 H       
  26 H26           -1.5761     6.1027     0.9327 H       
  27 H27           -1.5846     6.1123    -0.8472 H       
  28 H28           -4.0557     6.3171    -0.8344 H       
  29 H29           -4.0473     6.3074     0.9455 H       
  30 H30           -2.6523     8.3574     0.9501 H       
  31 H31           -2.6607     8.3671    -0.8299 H       
  32 H32           -5.1318     8.5719    -0.8170 H       
  33 H33           -5.1234     8.5622     0.9629 H       
  34 H34           -3.7284    10.6122     0.9674 H       
  35 H35           -3.7368    10.6219    -0.8125 H       
  36 H36           -6.2080    10.8267    -0.7997 H       
  37 H37           -6.1995    10.8170     0.9803 H       
  38 H38           -4.8045    12.8670     0.9848 H       
  39 H39           -4.8129    12.8767    -0.7951 H       
  40 H40           -7.2841    13.0815    -0.7823 H       
  41 H41           -7.2756    13.0718     0.9976 H       
  42 H42           -5.8806    15.1218     1.0021 H       
  43 H43           -5.8891    15.1315    -0.7778 H       
  44 H44           -8.3602    15.3363    -0.7649 H       
  45 H45           -8.3517    15.3266     1.0150 H       
  46 H46           -6.9567    17.3766     1.0195 H       
  47 H47           -6.9652    17.3863    -0.7604 H       
  48 H48           -9.4363    17.5910    -0.7476 H       
  49 H49           -9.4279    17.5814     1.0323 H       
  50 H50           -8.6795    18.9315     0.1461 H       
@<TRIPOS>BOND
   1    1    2 1
   2    1    3 2
   3    1    4 1
   4    2   19 1
   5    4    5 1
   6    4   20 1
   7    4   21 1
   8    5    6 1
   9    5   22 1
  10    5   23 1
  11    6    7 1
  12    6   24 1
  13    6   25 1
  14    7    8 1
  15    7   26 1
  16    7   27 1
  17    8    9 1
  18    8   28 1
  19    8   29 1
  20    9   10 1
  21    9   30 1
  22    9   31 1
  23   10   11 1
  24   10   32 1
  25   10   33 1
  26   11   12 1
  27   11   34 1
  28   11   35 1
  29   12   13 1
  30   12   36 1
  31   12   37 1
  32   13   14 1
  33   13   38 1
  34   13   39 1
  35   14   15 1
  36   14   40 1
  37   14   41 1
  38   15   16 1
  39   15   42 1
  40   15   43 1
  41   16   17 1
  42   16   44 1
  43   16   45 1
  44   17   18 1
  45   17   46 1
  46   17   47 1
  47   18   48 1
  48   18   49 1
  49   18   50 1

#	End of record

