#	Name: ASD05430245
#	Creating user name:	WinNT
#	Creation time:	15. 06. 2019 21:00

#	Modifying user name:	WinNT
#	Modification time:	15. 06. 2019 21:00

#	Program:	/corina/corina34_cracker 3.40 0067  02.08.2006

@<TRIPOS>MOLECULE
ASD05430245
  63   68    0    0    0
SMALL
NO_CHARGES


@<TRIPOS>ATOM
   1 C1            -0.0286     2.7976    -0.9963 C.ar    
   2 C2            -0.1790     1.6220    -1.7311 C.ar    
   3 C3             0.9397     0.9183    -2.1586 C.ar    
   4 C4             2.2033     1.3786    -1.8587 C.ar    
   5 C5             2.3618     2.5569    -1.1221 C.ar    
   6 C6             1.2358     3.2652    -0.6918 C.ar    
   7 C7             4.4068     0.7034    -0.3486 C.3     
   8 C8             4.6975     2.1778    -0.5218 C.2     
   9 C9             3.7110     3.0499    -0.8002 C.2     
  10 C10            4.9957     0.2216     0.9799 C.3     
  11 S11            6.7668     0.5496     1.2153 S.o2    
  12 N12            6.9999     2.0111     0.4836 N.am    
  13 C13            6.0938     2.6323    -0.3761 C.2     
  14 N14            6.6671     3.6202    -0.9895 N.2     
  15 N15           -1.4619     1.1491    -2.0386 N.pl3   
  16 C16           -1.9158     0.7694    -3.2752 C.2     
  17 C17           -3.1968     0.3844    -3.1193 C.2     
  18 N18           -3.5212     0.5231    -1.8253 N.2     
  19 C19           -2.4887     0.9748    -1.1666 C.2     
  20 C20           -4.1085    -0.1151    -4.2103 C.3     
  21 C21            8.1541     2.9085     0.5863 C.3     
  22 O22            8.0255     3.7338    -0.5907 O.3     
  23 C23            8.0695     3.7455     1.8366 C.ar    
  24 C24            4.0969     0.2781     2.2155 C.3     
  25 C25            4.4333    -1.0702     1.5751 C.3     
  26 C26           -2.2398     5.3148     0.5371 C.3     
  27 C27           -0.8975     4.6824     0.1643 C.3     
  28 O28           -1.1257     3.4867    -0.5843 O.3     
  29 C29            9.4618     2.1151     0.5512 C.3     
  30 C30            7.1103     3.4721     2.8004 C.ar    
  31 C31            7.0685     4.2672     3.9343 C.ar    
  32 C32            7.9801     5.3018     4.0666 C.ar    
  33 N33            8.8795     5.5321     3.1275 N.ar    
  34 C34            8.9500     4.7906     2.0388 C.ar    
  35 F35            7.9483     6.0838     5.1678 F       
  36 O36            7.0528     0.7921     2.5860 O.2     
  37 O37            7.5493    -0.3565     0.4499 O.2     
  38 H38            0.8187     0.0081    -2.7272 H       
  39 H39            3.0713     0.8292    -2.1921 H       
  40 H40            1.3538     4.1757    -0.1230 H       
  41 H41            3.3287     0.5430    -0.3479 H       
  42 H42            4.8570     0.1452    -1.1695 H       
  43 H43            3.9093     4.1115    -0.7876 H       
  44 H44           -1.3539     0.7775    -4.1975 H       
  45 H45           -2.4583     1.1825    -0.1072 H       
  46 H46           -4.0171    -1.1981    -4.2927 H       
  47 H47           -5.1393     0.1452    -3.9699 H       
  48 H48           -3.8286     0.3463    -5.1573 H       
  49 H49            4.5677     0.5133     3.1700 H       
  50 H50            3.0840     0.6589     2.0842 H       
  51 H51            3.6419    -1.5763     1.0223 H       
  52 H52            5.1256    -1.7219     2.1082 H       
  53 H53           -2.8170     4.6135     1.1396 H       
  54 H54           -2.0657     6.2268     1.1080 H       
  55 H55           -2.7931     5.5546    -0.3709 H       
  56 H56           -0.3203     5.3837    -0.4383 H       
  57 H57           -0.3442     4.4425     1.0723 H       
  58 H58            9.5272     1.5636    -0.3866 H       
  59 H59           10.3052     2.8012     0.6288 H       
  60 H60            9.4848     1.4154     1.3866 H       
  61 H61            6.4120     2.6586     2.6699 H       
  62 H62            6.3345     4.0830     4.7048 H       
  63 H63            9.6994     5.0088     1.2923 H       
@<TRIPOS>BOND
   1    1    2 ar
   2    1    6 ar
   3    1   28 1
   4    2    3 ar
   5    2   15 1
   6    3    4 ar
   7    3   38 1
   8    4    5 ar
   9    4   39 1
  10    5    6 ar
  11    5    9 1
  12    6   40 1
  13    7    8 1
  14    7   10 1
  15    7   41 1
  16    7   42 1
  17    8    9 2
  18    8   13 1
  19    9   43 1
  20   10   11 1
  21   10   24 1
  22   10   25 1
  23   11   12 am
  24   11   36 2
  25   11   37 2
  26   12   13 1
  27   12   21 1
  28   13   14 2
  29   14   22 1
  30   15   16 1
  31   15   19 1
  32   16   17 2
  33   16   44 1
  34   17   18 1
  35   17   20 1
  36   18   19 2
  37   19   45 1
  38   20   46 1
  39   20   47 1
  40   20   48 1
  41   21   22 1
  42   21   23 1
  43   21   29 1
  44   23   30 ar
  45   23   34 ar
  46   24   25 1
  47   24   49 1
  48   24   50 1
  49   25   51 1
  50   25   52 1
  51   26   27 1
  52   26   53 1
  53   26   54 1
  54   26   55 1
  55   27   28 1
  56   27   56 1
  57   27   57 1
  58   29   58 1
  59   29   59 1
  60   29   60 1
  61   30   31 ar
  62   30   61 1
  63   31   32 ar
  64   31   62 1
  65   32   33 ar
  66   32   35 1
  67   33   34 ar
  68   34   63 1

#	End of record

