#	Name: ASD05143281
#	Creating user name:	WinNT
#	Creation time:	15. 06. 2019 20:57

#	Modifying user name:	WinNT
#	Modification time:	15. 06. 2019 20:57

#	Program:	/corina/corina34_cracker 3.40 0067  02.08.2006

@<TRIPOS>MOLECULE
ASD05143281
  45   47    0    0    0
SMALL
NO_CHARGES


@<TRIPOS>ATOM
   1 C1            -0.2663     1.4643     0.1071 C.2     
   2 N2            -0.0177     0.2145    -0.2300 N.2     
   3 S3            -1.5330    -0.5498    -0.3132 S.3     
   4 C4            -2.4273     0.8593     0.1124 C.2     
   5 N5            -1.5281     1.8014     0.2916 N.2     
   6 N6            -3.7992     0.9740     0.2429 N.pl3   
   7 C7            -4.3586     2.1599     0.7289 C.ar    
   8 C8            -5.6585     2.5082     0.3849 C.ar    
   9 C9            -6.2084     3.6800     0.8662 C.ar    
  10 C10           -5.4656     4.5069     1.6906 C.ar    
  11 C11           -4.1701     4.1626     2.0346 C.ar    
  12 C12           -3.6174     2.9889     1.5611 C.ar    
  13 C13            1.2097    -0.3515    -0.4658 C.ar    
  14 C14            2.0491     0.1779    -1.4456 C.ar    
  15 C15            1.6284    -1.4603     0.2804 C.ar    
  16 C16            2.8686    -2.0241     0.0357 C.ar    
  17 C17            3.6907    -1.4939    -0.9423 C.ar    
  18 C18            3.2830    -0.3955    -1.6779 C.ar    
  19 C19            0.8275     2.4488     0.2781 C.ar    
  20 C20            0.6156     3.7917    -0.0327 C.ar    
  21 C21            2.0714     2.0373     0.7558 C.ar    
  22 C22            3.0861     2.9590     0.9133 C.ar    
  23 C23            2.8715     4.2889     0.5984 C.ar    
  24 C24            1.6381     4.7040     0.1290 C.ar    
  25 Cl25          -6.1600     5.9792     2.2938 Cl      
  26 O26            0.8203    -1.9803     1.2413 O.3     
  27 C27            1.3140    -3.1113     1.9619 C.3     
  28 H28           -4.3735     0.2319    -0.0026 H       
  29 H29           -6.2385     1.8634    -0.2588 H       
  30 H30           -7.2189     3.9515     0.5988 H       
  31 H31           -3.5925     4.8102     2.6775 H       
  32 H32           -2.6064     2.7206     1.8302 H       
  33 H33            1.7340     1.0351    -2.0221 H       
  34 H34            3.1950    -2.8790     0.6093 H       
  35 H35            4.6577    -1.9370    -1.1295 H       
  36 H36            3.9309     0.0123    -2.4397 H       
  37 H37           -0.3468     4.1169    -0.3995 H       
  38 H38            2.2401     0.9994     1.0023 H       
  39 H39            4.0498     2.6416     1.2835 H       
  40 H40            3.6686     5.0067     0.7237 H       
  41 H41            1.4764     5.7436    -0.1152 H       
  42 H42            0.5728    -3.4258     2.6967 H       
  43 H43            1.5066    -3.9289     1.2673 H       
  44 H44            2.2391    -2.8419     2.4715 H       
  45 Br45           9.6577    10.9792     7.6967 Br      
@<TRIPOS>BOND
   1    1    2 2
   2    1   19 1
   3    1    5 1
   4    2    3 1
   5    2   13 1
   6    3    4 1
   7    4    5 2
   8    4    6 1
   9    6    7 1
  10    6   28 1
  11    7    8 ar
  12    7   12 ar
  13    8    9 ar
  14    8   29 1
  15    9   10 ar
  16    9   30 1
  17   10   11 ar
  18   10   25 1
  19   11   12 ar
  20   11   31 1
  21   12   32 1
  22   13   14 ar
  23   13   15 ar
  24   14   18 ar
  25   14   33 1
  26   15   16 ar
  27   15   26 1
  28   16   17 ar
  29   16   34 1
  30   17   18 ar
  31   17   35 1
  32   18   36 1
  33   19   20 ar
  34   19   21 ar
  35   20   24 ar
  36   20   37 1
  37   21   22 ar
  38   21   38 1
  39   22   23 ar
  40   22   39 1
  41   23   24 ar
  42   23   40 1
  43   24   41 1
  44   26   27 1
  45   27   42 1
  46   27   43 1
  47   27   44 1

#	End of record

