#	Name: ASD01814180
#	Creating user name:	WinNT
#	Creation time:	15. 06. 2019 19:31

#	Modifying user name:	WinNT
#	Modification time:	15. 06. 2019 19:31

#	Program:	/corina/corina34_cracker 3.40 0067  02.08.2006

@<TRIPOS>MOLECULE
ASD01814180
  45   48    0    0    0
SMALL
NO_CHARGES


@<TRIPOS>ATOM
   1 C1             8.1823    -0.0369    -0.1280 C.ar    
   2 C2             7.8756    -1.3746    -0.3230 C.ar    
   3 C3             6.5887    -1.8362    -0.1464 C.ar    
   4 C4             5.5788    -0.9566     0.2320 C.ar    
   5 C5             5.8892     0.4000     0.4300 C.ar    
   6 C6             7.1974     0.8551     0.2478 C.ar    
   7 N7             4.2886    -1.4074     0.4109 N.pl3   
   8 C8             3.2821    -0.6016     0.7735 C.2     
   9 C9             3.4646     0.7481     0.9965 C.2     
  10 C10            4.8107     1.3207     0.8306 C.2     
  11 C11            2.3341     1.5994     1.3929 C.2     
  12 O12            2.5251     2.9165     1.6078 O.3     
  13 O13            1.2269     1.1159     1.5269 O.2     
  14 O14            5.0239     2.5062     1.0160 O.2     
  15 C15            4.0060    -2.8285     0.1947 C.3     
  16 C16            3.7450    -3.0717    -1.2695 C.ar    
  17 C17            2.4868    -2.8038    -1.8082 C.ar    
  18 N18            2.2235    -3.0034    -3.0781 N.ar    
  19 C19            3.1538    -3.4745    -3.9146 C.ar    
  20 C20            4.4533    -3.7675    -3.4318 C.ar    
  21 C21            4.7416    -3.5495    -2.0712 C.ar    
  22 C22            2.8659    -3.6870    -5.2742 C.ar    
  23 C23            3.8329    -4.1679    -6.1021 C.ar    
  24 C24            5.1101    -4.4557    -5.6250 C.ar    
  25 C25            5.4262    -4.2628    -4.3148 C.ar    
  26 F26            7.4969     2.1587     0.4377 F       
  27 Cl27           1.2364    -2.1906    -0.7717 Cl      
  28 C28            1.4913    -3.3839    -5.8126 C.3     
  29 C29            3.5173    -4.3933    -7.5584 C.3     
  30 H30            9.1964     0.3081    -0.2661 H       
  31 H31            8.6539    -2.0632    -0.6171 H       
  32 H32            6.3640    -2.8810    -0.3022 H       
  33 H33            2.2947    -1.0219     0.8951 H       
  34 H34            1.7515     3.4357     1.8669 H       
  35 H35            4.8624    -3.4221     0.5146 H       
  36 H36            3.1280    -3.1165     0.7730 H       
  37 H37            5.7218    -3.7623    -1.6708 H       
  38 H38            5.8590    -4.8371    -6.3033 H       
  39 H39            6.4197    -4.4893    -3.9568 H       
  40 H40            1.4835    -2.3840    -6.2465 H       
  41 H41            1.2320    -4.1144    -6.5788 H       
  42 H42            0.7644    -3.4339    -5.0020 H       
  43 H43            3.6395    -3.4585    -8.1055 H       
  44 H44            4.1953    -5.1436    -7.9651 H       
  45 H45            2.4890    -4.7408    -7.6577 H       
@<TRIPOS>BOND
   1    1    2 ar
   2    1    6 ar
   3    1   30 1
   4    2    3 ar
   5    2   31 1
   6    3    4 ar
   7    3   32 1
   8    4    5 ar
   9    4    7 1
  10    5    6 ar
  11    5   10 1
  12    6   26 1
  13    7    8 1
  14    7   15 1
  15    8    9 2
  16    8   33 1
  17    9   10 1
  18    9   11 1
  19   10   14 2
  20   11   12 1
  21   11   13 2
  22   12   34 1
  23   15   16 1
  24   15   35 1
  25   15   36 1
  26   16   17 ar
  27   16   21 ar
  28   17   18 ar
  29   17   27 1
  30   18   19 ar
  31   19   20 ar
  32   19   22 ar
  33   20   21 ar
  34   20   25 ar
  35   21   37 1
  36   22   23 ar
  37   22   28 1
  38   23   24 ar
  39   23   29 1
  40   24   25 ar
  41   24   38 1
  42   25   39 1
  43   28   40 1
  44   28   41 1
  45   28   42 1
  46   29   43 1
  47   29   44 1
  48   29   45 1

#	End of record

