#	Name: ASD01912212
#	Creating user name:	WinNT
#	Creation time:	15. 06. 2019 19:59

#	Modifying user name:	WinNT
#	Modification time:	15. 06. 2019 19:59

#	Program:	/corina/corina34_cracker 3.40 0067  02.08.2006

@<TRIPOS>MOLECULE
ASD01912212
  46   48    0    0    0
SMALL
NO_CHARGES


@<TRIPOS>ATOM
   1 N1            -0.0463     1.4929     0.5692 N.am    
   2 C2             0.0010     0.1516     1.1654 C.3     
   3 C3             0.4468    -0.8501     0.0926 C.3     
   4 C4             1.6871    -0.3072    -0.5827 C.2     
   5 C5             1.6427     1.0954    -1.1482 C.3     
   6 C6             1.1669     2.0484    -0.0443 C.3     
   7 C7            -1.1914     2.2036     0.5800 C.2     
   8 O8            -2.2161     1.6992     0.9971 O.2     
   9 N9            -1.2007     3.4734     0.1284 N.am    
  10 C10           -2.4088     4.1733     0.0329 C.ar    
  11 C11           -2.4372     5.5449     0.2480 C.ar    
  12 C12           -3.6310     6.2328     0.1526 C.ar    
  13 C13           -4.7971     5.5572    -0.1568 C.ar    
  14 C14           -4.7722     4.1914    -0.3716 C.ar    
  15 C15           -3.5807     3.4986    -0.2828 C.ar    
  16 C16            2.7917    -1.0461    -0.6767 C.2     
  17 C17            3.9559    -0.5149    -1.3195 C.1     
  18 C18            4.9103    -0.0795    -1.8465 C.1     
  19 C19            6.0745     0.4517    -2.4893 C.ar    
  20 C20            7.2310    -0.3278    -2.5853 C.ar    
  21 C21            8.3463     0.2001    -3.2090 C.ar    
  22 C22            8.2737     1.4902    -3.7182 C.ar    
  23 C23            7.0980     2.2068    -3.5891 C.ar    
  24 N24            6.0462     1.6811    -2.9956 N.ar    
  25 C25            7.0171     3.6068    -4.1409 C.3     
  26 H26            0.7126     0.1436     1.9910 H       
  27 H27           -0.9890    -0.1210     1.5309 H       
  28 H28            0.6725    -1.8097     0.5576 H       
  29 H29           -0.3466    -0.9763    -0.6441 H       
  30 H30            2.6381     1.3883    -1.4819 H       
  31 H31            0.9485     1.1307    -1.9878 H       
  32 H32            0.9443     3.0245    -0.4752 H       
  33 H33            1.9454     2.1493     0.7119 H       
  34 H34           -0.3700     3.9022    -0.1305 H       
  35 H35           -1.5267     6.0731     0.4901 H       
  36 H36           -3.6538     7.2995     0.3202 H       
  37 H37           -5.7295     6.0973    -0.2305 H       
  38 H38           -5.6847     3.6666    -0.6131 H       
  39 H39           -3.5611     2.4326    -0.4551 H       
  40 H40            2.8092    -2.0457    -0.2682 H       
  41 H41            7.2530    -1.3278    -2.1778 H       
  42 H42            9.2542    -0.3779    -3.2981 H       
  43 H43            9.1284     1.9302    -4.2104 H       
  44 H44            6.6712     3.5708    -5.1739 H       
  45 H45            6.3184     4.1928    -3.5439 H       
  46 H46            8.0034     4.0694    -4.1040 H       
@<TRIPOS>BOND
   1    1    2 1
   2    1    6 1
   3    1    7 am
   4    2    3 1
   5    2   26 1
   6    2   27 1
   7    3    4 1
   8    3   28 1
   9    3   29 1
  10    4    5 1
  11    4   16 2
  12    5    6 1
  13    5   30 1
  14    5   31 1
  15    6   32 1
  16    6   33 1
  17    7    8 2
  18    7    9 am
  19    9   10 1
  20    9   34 1
  21   10   11 ar
  22   10   15 ar
  23   11   12 ar
  24   11   35 1
  25   12   13 ar
  26   12   36 1
  27   13   14 ar
  28   13   37 1
  29   14   15 ar
  30   14   38 1
  31   15   39 1
  32   16   17 1
  33   16   40 1
  34   17   18 3
  35   18   19 1
  36   19   20 ar
  37   19   24 ar
  38   20   21 ar
  39   20   41 1
  40   21   22 ar
  41   21   42 1
  42   22   23 ar
  43   22   43 1
  44   23   24 ar
  45   23   25 1
  46   25   44 1
  47   25   45 1
  48   25   46 1

#	End of record

