#	Name: ASD05490099
#	Creating user name:	WinNT
#	Creation time:	15. 06. 2019 21:01

#	Modifying user name:	WinNT
#	Modification time:	15. 06. 2019 21:01

#	Program:	/corina/corina34_cracker 3.40 0067  02.08.2006

@<TRIPOS>MOLECULE
ASD05490099
  69   73    0    0    0
SMALL
NO_CHARGES


@<TRIPOS>ATOM
   1 N1            -0.0178     1.4608     0.0101 N.pl3   
   2 O2             4.5582     2.8949    -0.0261 O.3     
   3 N3             2.7941     4.3826    -0.0015 N.ar    
   4 C4             1.4952     4.6638     0.0118 C.ar    
   5 C5             3.2233     3.1292    -0.0123 C.ar    
   6 N6             2.3949     2.0994    -0.0093 N.ar    
   7 C7             1.0795     2.2895     0.0040 C.ar    
   8 C8             0.5781     3.6006     0.0150 C.ar    
   9 N9             1.0558     5.9772     0.0226 N.pl3   
  10 C10           -1.1306     2.2546     0.0190 C.2     
  11 N11           -0.7773     3.5129     0.0270 N.2     
  12 C12            5.4173     4.0368    -0.0280 C.3     
  13 C13            6.8766     3.5771    -0.0442 C.3     
  14 O14            7.1483     2.8975    -1.2715 O.3     
  15 C15            8.4917     2.4246    -1.3889 C.3     
  16 C16            0.0021    -0.0041     0.0020 C.3     
  17 C17            0.0225    -0.5140     1.4200 C.ar    
  18 C18           -1.1745    -0.6671     2.1233 C.ar    
  19 C19           -1.1523    -1.1397     3.4352 C.ar    
  20 C20            0.0624    -1.4551     4.0339 C.ar    
  21 C21            1.2506    -1.2978     3.3209 C.ar    
  22 C22            1.2237    -0.8345     2.0200 C.ar    
  23 C23            0.0944    -1.9581     5.4298 C.ar    
  24 C24            1.3108    -2.2747     6.0312 C.ar    
  25 C25           -1.0912    -2.1100     6.1456 C.ar    
  26 C26           -1.0557    -2.5782     7.4435 C.ar    
  27 C27            0.1542    -2.8960     8.0338 C.ar    
  28 C28            1.3347    -2.7421     7.3296 C.ar    
  29 C29            0.1868    -3.4058     9.4516 C.3     
  30 N30            0.0828    -4.8711     9.4475 N.3     
  31 C31            0.3486    -5.4234    10.7885 C.3     
  32 C32           -0.8853    -6.2578    11.1921 C.3     
  33 C33           -1.5393    -6.5974     9.8269 C.3     
  34 C34           -1.2634    -5.3056     9.0178 C.3     
  35 C35           -2.4210    -0.3394     1.4992 C.1     
  36 N36           -3.4098    -0.0794     1.0041 N.1     
  37 O37           -2.4073     1.8048     0.0270 O.3     
  38 C38           -3.4422     2.7900     0.0462 C.3     
  39 H39            1.6985     6.7037     0.0206 H       
  40 H40            0.1053     6.1706     0.0323 H       
  41 H41            5.2168     4.6408    -0.9129 H       
  42 H42            5.2335     4.6312     0.8670 H       
  43 H43            7.5315     4.4439     0.0439 H       
  44 H44            7.0539     2.9012     0.7924 H       
  45 H45            9.1802     3.2675    -1.3287 H       
  46 H46            8.7025     1.7248    -0.5803 H       
  47 H47            8.6170     1.9208    -2.3473 H       
  48 H48           -0.8878    -0.3767    -0.5053 H       
  49 H49            0.8920    -0.3525    -0.5222 H       
  50 H50           -2.0747    -1.2597     3.9840 H       
  51 H51            2.1941    -1.5428     3.7859 H       
  52 H52            2.1470    -0.7149     1.4726 H       
  53 H53            2.2331    -2.1549     5.4822 H       
  54 H54           -2.0364    -1.8616     5.6858 H       
  55 H55           -1.9741    -2.6964     7.9992 H       
  56 H56            2.2766    -2.9920     7.7952 H       
  57 H57            1.1239    -3.1094     9.9229 H       
  58 H58           -0.6496    -2.9838    10.0088 H       
  59 H59            1.2330    -6.0599    10.7588 H       
  60 H60            0.4967    -4.6120    11.5011 H       
  61 H61           -0.5826    -7.1671    11.7113 H       
  62 H62           -1.5641    -5.6685    11.8087 H       
  63 H63           -1.0551    -7.4581     9.3654 H       
  64 H64           -2.6102    -6.7671     9.9385 H       
  65 H65           -2.0033    -4.5421     9.2582 H       
  66 H66           -1.2702    -5.5186     7.9489 H       
  67 H67           -3.3595     3.4211    -0.8387 H       
  68 H68           -4.4139     2.2962     0.0508 H       
  69 H69           -3.3425     3.4042     0.9411 H       
@<TRIPOS>BOND
   1    1   16 1
   2    1    7 1
   3    1   10 1
   4    2   12 1
   5    2    5 1
   6    3    4 ar
   7    3    5 ar
   8    4    9 1
   9    4    8 ar
  10    5    6 ar
  11    6    7 ar
  12    7    8 ar
  13    8   11 1
  14    9   39 1
  15    9   40 1
  16   10   11 2
  17   10   37 1
  18   12   13 1
  19   12   41 1
  20   12   42 1
  21   13   14 1
  22   13   43 1
  23   13   44 1
  24   14   15 1
  25   15   45 1
  26   15   46 1
  27   15   47 1
  28   16   17 1
  29   16   48 1
  30   16   49 1
  31   17   18 ar
  32   17   22 ar
  33   18   19 ar
  34   18   35 1
  35   19   20 ar
  36   19   50 1
  37   20   21 ar
  38   20   23 1
  39   21   22 ar
  40   21   51 1
  41   22   52 1
  42   23   24 ar
  43   23   25 ar
  44   24   28 ar
  45   24   53 1
  46   25   26 ar
  47   25   54 1
  48   26   27 ar
  49   26   55 1
  50   27   28 ar
  51   27   29 1
  52   28   56 1
  53   29   30 1
  54   29   57 1
  55   29   58 1
  56   30   31 1
  57   30   34 1
  58   31   32 1
  59   31   59 1
  60   31   60 1
  61   32   33 1
  62   32   61 1
  63   32   62 1
  64   33   34 1
  65   33   63 1
  66   33   64 1
  67   34   65 1
  68   34   66 1
  69   35   36 3
  70   37   38 1
  71   38   67 1
  72   38   68 1
  73   38   69 1

#	End of record

