#	Name: ASD01810710
#	Creating user name:	WinNT
#	Creation time:	15. 06. 2019 19:25

#	Modifying user name:	WinNT
#	Modification time:	15. 06. 2019 19:25

#	Program:	/corina/corina34_cracker 3.40 0067  02.08.2006

@<TRIPOS>MOLECULE
ASD01810710
  27   26    0    0    0
SMALL
NO_CHARGES


@<TRIPOS>ATOM
   1 C1            -0.0184     1.5028     0.0103 C.2     
   2 C2             0.0021    -0.0041     0.0020 C.3     
   3 C3            -0.6130    -0.5153    -1.3023 C.3     
   4 O4             1.0236     2.1234     0.0037 O.2     
   5 N5            -1.1946     2.1607     0.0195 N.am    
   6 O6             1.3516    -0.4627     0.1041 O.3     
   7 C7             1.4886    -1.7242     0.7612 C.3     
   8 C8             2.9449    -2.1084     0.8124 C.2     
   9 C9             3.4596    -2.5789     1.9214 C.2     
  10 C10           -1.2145     3.6256     0.0275 C.3     
  11 O11           -2.4111     1.4361     0.0213 O.3     
  12 C12           -2.9043     1.1316     1.3275 C.3     
  13 H13           -0.5743    -0.3799     0.8474 H       
  14 H14           -1.6424    -0.1655    -1.3801 H       
  15 H15           -0.0366    -0.1395    -2.1476 H       
  16 H16           -0.5983    -1.6052    -1.3083 H       
  17 H17            1.0966    -1.6500     1.7755 H       
  18 H18            0.9319    -2.4828     0.2111 H       
  19 H19            3.5643    -1.9959    -0.0652 H       
  20 H20            2.8403    -2.6915     2.7990 H       
  21 H21            4.5033    -2.8542     1.9581 H       
  22 H22           -1.2243     3.9944    -0.9981 H       
  23 H23           -2.1068     3.9740     0.5475 H       
  24 H24           -0.3271     3.9982     0.5392 H       
  25 H25           -2.1700     0.5286     1.8616 H       
  26 H26           -3.0808     2.0579     1.8743 H       
  27 H27           -3.8383     0.5760     1.2428 H       
@<TRIPOS>BOND
   1    1    2 1
   2    1    4 2
   3    1    5 am
   4    2    3 1
   5    2    6 1
   6    2   13 1
   7    3   14 1
   8    3   15 1
   9    3   16 1
  10    5   10 1
  11    5   11 1
  12    6    7 1
  13    7    8 1
  14    7   17 1
  15    7   18 1
  16    8    9 2
  17    8   19 1
  18    9   20 1
  19    9   21 1
  20   10   22 1
  21   10   23 1
  22   10   24 1
  23   11   12 1
  24   12   25 1
  25   12   26 1
  26   12   27 1

#	End of record

