#	Name: ASD01900848
#	Creating user name:	WinNT
#	Creation time:	15. 06. 2019 19:52

#	Modifying user name:	WinNT
#	Modification time:	15. 06. 2019 19:52

#	Program:	/corina/corina34_cracker 3.40 0067  02.08.2006

@<TRIPOS>MOLECULE
ASD01900848
  70   74    0    0    0
SMALL
NO_CHARGES


@<TRIPOS>ATOM
   1 C1             0.3090     1.0181     0.4594 C.ar    
   2 C2             0.2269    -0.3534     0.3606 C.ar    
   3 C3             1.3329    -1.0987    -0.0589 C.ar    
   4 C4             2.5307    -0.4589    -0.3754 C.ar    
   5 C5             2.6172     0.9184    -0.2741 C.ar    
   6 C6             1.5002     1.6654     0.1386 C.ar    
   7 N7             3.7958     1.5985    -0.5634 N.pl3   
   8 C8             3.7157     2.9824    -1.0444 C.3     
   9 N9             2.7294     3.7330    -0.2667 N.am    
  10 C10            1.6297     3.1328     0.2302 C.2     
  11 C11            2.9318     5.0989    -0.0343 C.ar    
  12 C12            2.2241     6.0410    -0.7693 C.ar    
  13 C13            2.4243     7.3878    -0.5395 C.ar    
  14 C14            3.3324     7.7998     0.4248 C.ar    
  15 C15            4.0397     6.8593     1.1595 C.ar    
  16 C16            3.8361     5.5121     0.9352 C.ar    
  17 O17            3.5296     9.1262     0.6499 O.3     
  18 O18            0.7518     3.7946     0.7496 O.2     
  19 C19            1.2322    -2.5708    -0.1668 C.2     
  20 C20            4.4477     9.4788     1.6866 C.3     
  21 F21            5.7107     8.9562     1.3887 F       
  22 F22            4.5303    10.8721     1.7823 F       
  23 F23            4.0008     8.9535     2.9038 F       
  24 O24            2.1917    -3.2200    -0.5309 O.2     
  25 O25            0.0763    -3.1909     0.1389 O.3     
  26 C26            0.0499    -4.6369     0.0100 C.3     
  27 C27           -1.3354    -5.1583     0.3974 C.3     
  28 C28            5.0886     3.6463    -0.9019 C.3     
  29 C29            3.3095     2.9826    -2.5208 C.3     
  30 C30            3.2958     4.4221    -3.0403 C.3     
  31 N31            4.6300     5.0144    -2.8812 N.3     
  32 C32            5.0230     5.0669    -1.4673 C.3     
  33 C33            4.6906     6.3479    -3.4944 C.3     
  34 C34            5.9927     7.0114    -3.1263 C.ar    
  35 C35            5.9993     8.3211    -2.6836 C.ar    
  36 C36            7.1923     8.9317    -2.3454 C.ar    
  37 C37            8.3819     8.2320    -2.4498 C.ar    
  38 C38            8.3752     6.9185    -2.8938 C.ar    
  39 C39            7.1782     6.3081    -3.2263 C.ar    
  40 F40            9.5351     6.2335    -2.9964 F       
  41 F41            9.5484     8.8283    -2.1199 F       
  42 C42            4.5984     6.2144    -5.0157 C.3     
  43 F43            3.3393     5.7143    -5.3646 F       
  44 F44            4.7816     7.4695    -5.6060 F       
  45 F45            5.5902     5.3373    -5.4678 F       
  46 H46           -0.5489     1.5903     0.7803 H       
  47 H47           -0.6964    -0.8556     0.6088 H       
  48 H48            3.3858    -1.0348    -0.6973 H       
  49 H49            4.6560     1.1653    -0.4488 H       
  50 H50            1.5176     5.7203    -1.5206 H       
  51 H51            1.8740     8.1205    -1.1111 H       
  52 H52            4.7468     7.1809     1.9098 H       
  53 H53            4.3833     4.7800     1.5105 H       
  54 H54            0.2668    -4.9138    -1.0217 H       
  55 H55            0.8000    -5.0742     0.6690 H       
  56 H56           -1.3553    -6.2438     0.3007 H       
  57 H57           -1.5524    -4.8814     1.4291 H       
  58 H58           -2.0856    -4.7210    -0.2616 H       
  59 H59            5.3661     3.6862     0.1514 H       
  60 H60            5.8310     3.0691    -1.4531 H       
  61 H61            4.0256     2.3951    -3.0954 H       
  62 H62            2.3150     2.5487    -2.6247 H       
  63 H63            3.0206     4.4249    -4.0950 H       
  64 H64            2.5697     5.0056    -2.4742 H       
  65 H65            4.2892     5.6470    -0.9077 H       
  66 H66            6.0019     5.5383    -1.3796 H       
  67 H67            3.8594     6.9526    -3.1317 H       
  68 H68            5.0715     8.8678    -2.6022 H       
  69 H69            7.1962     9.9550    -2.0000 H       
  70 H70            7.1712     5.2835    -3.5677 H       
@<TRIPOS>BOND
   1    1    2 ar
   2    1    6 ar
   3    1   46 1
   4    2    3 ar
   5    2   47 1
   6    3    4 ar
   7    3   19 1
   8    4    5 ar
   9    4   48 1
  10    5    7 1
  11    5    6 ar
  12    6   10 1
  13    7    8 1
  14    7   49 1
  15    8    9 1
  16    8   29 1
  17    8   28 1
  18    9   10 am
  19    9   11 1
  20   10   18 2
  21   11   12 ar
  22   11   16 ar
  23   12   13 ar
  24   12   50 1
  25   13   14 ar
  26   13   51 1
  27   14   15 ar
  28   14   17 1
  29   15   16 ar
  30   15   52 1
  31   16   53 1
  32   17   20 1
  33   19   24 2
  34   19   25 1
  35   20   21 1
  36   20   22 1
  37   20   23 1
  38   25   26 1
  39   26   27 1
  40   26   54 1
  41   26   55 1
  42   27   56 1
  43   27   57 1
  44   27   58 1
  45   28   32 1
  46   28   59 1
  47   28   60 1
  48   29   30 1
  49   29   61 1
  50   29   62 1
  51   30   31 1
  52   30   63 1
  53   30   64 1
  54   31   32 1
  55   31   33 1
  56   32   65 1
  57   32   66 1
  58   33   34 1
  59   33   42 1
  60   33   67 1
  61   34   35 ar
  62   34   39 ar
  63   35   36 ar
  64   35   68 1
  65   36   37 ar
  66   36   69 1
  67   37   38 ar
  68   37   41 1
  69   38   39 ar
  70   38   40 1
  71   39   70 1
  72   42   43 1
  73   42   44 1
  74   42   45 1

#	End of record

