#	Name: ASD00170029
#	Creating user name:	WinNT
#	Creation time:	15. 06. 2019 18:31

#	Modifying user name:	WinNT
#	Modification time:	15. 06. 2019 18:31

#	Program:	/corina/corina34_cracker 3.40 0067  02.08.2006

@<TRIPOS>MOLECULE
ASD00170029
  35   37    0    0    0
SMALL
NO_CHARGES


@<TRIPOS>ATOM
   1 C1            -0.0165     1.4128    -0.0070 C.ar    
   2 C2             0.0031    -0.0033    -0.0175 C.ar    
   3 C3            -1.2108    -0.7111    -0.0005 C.ar    
   4 C4            -2.3996    -0.0492     0.0256 C.ar    
   5 C5            -2.4656     1.3379     0.0368 C.ar    
   6 C6            -1.3056     2.1004     0.0165 C.ar    
   7 C7             1.1908     2.1217    -0.0249 C.ar    
   8 C8             2.3713     1.4408    -0.0523 C.ar    
   9 C9             2.3941     0.0481    -0.0627 C.ar    
  10 C10            1.2389    -0.6723    -0.0454 C.ar    
  11 C11           -1.3728     3.5744     0.0288 C.2     
  12 C12           -2.6687     4.2485    -0.0614 C.2     
  13 O13           -0.3497     4.2301     0.1140 O.2     
  14 C14           -3.2416     4.7227    -1.3033 C.2     
  15 C15           -4.4219     5.3017    -1.1456 C.2     
  16 S16           -4.9006     5.2986     0.5422 S.3     
  17 C17           -3.4768     4.4951     1.0239 C.2     
  18 C18           -2.5632     4.5725    -2.6405 C.3     
  19 C19           -5.2436     5.8857    -2.2658 C.3     
  20 N20           -3.1731     4.1467     2.3247 N.pl3   
  21 H21           -1.2002    -1.7910    -0.0085 H       
  22 H22           -3.3173    -0.6185     0.0375 H       
  23 H23           -3.4279     1.8278     0.0576 H       
  24 H24            1.1867     3.2016    -0.0175 H       
  25 H25            3.3019     1.9887    -0.0665 H       
  26 H26            3.3424    -0.4681    -0.0848 H       
  27 H27            1.2719    -1.7518    -0.0538 H       
  28 H28           -2.8627     3.6286    -3.0959 H       
  29 H29           -2.8543     5.3979    -3.2903 H       
  30 H30           -1.4820     4.5825    -2.5026 H       
  31 H31           -5.9048     5.1189    -2.6695 H       
  32 H32           -5.8393     6.7154    -1.8851 H       
  33 H33           -4.5811     6.2454    -3.0531 H       
  34 H34           -3.7557     4.4229     3.0494 H       
  35 H35           -2.3770     3.6258     2.5140 H       
@<TRIPOS>BOND
   1    1    2 ar
   2    1    7 ar
   3    1    6 ar
   4    2    3 ar
   5    2   10 ar
   6    3    4 ar
   7    3   21 1
   8    4    5 ar
   9    4   22 1
  10    5    6 ar
  11    5   23 1
  12    6   11 1
  13    7    8 ar
  14    7   24 1
  15    8    9 ar
  16    8   25 1
  17    9   10 ar
  18    9   26 1
  19   10   27 1
  20   11   12 1
  21   11   13 2
  22   12   14 1
  23   12   17 2
  24   14   15 2
  25   14   18 1
  26   15   16 1
  27   15   19 1
  28   16   17 1
  29   17   20 1
  30   18   28 1
  31   18   29 1
  32   18   30 1
  33   19   31 1
  34   19   32 1
  35   19   33 1
  36   20   34 1
  37   20   35 1

#	End of record

