#	Name: ASD03330349
#	Creating user name:	WinNT
#	Creation time:	15. 06. 2019 20:37

#	Modifying user name:	WinNT
#	Modification time:	15. 06. 2019 20:37

#	Program:	/corina/corina34_cracker 3.40 0067  02.08.2006

@<TRIPOS>MOLECULE
ASD03330349
  62   65    0    0    0
SMALL
NO_CHARGES


@<TRIPOS>ATOM
   1 C1             0.7099     1.7065     0.7076 C.3     
   2 N2             0.6587     0.2623     0.4339 N.am    
   3 C3             1.5447    -0.2756    -0.6161 C.3     
   4 C4             2.8905     0.3827    -0.4355 C.2     
   5 N5             3.1179     1.4349     0.3903 N.pl3   
   6 C6             2.1028     2.0736     1.2313 C.3     
   7 C7             4.0698     0.0700    -1.0304 C.2     
   8 N8             5.0023     0.9342    -0.5699 N.2     
   9 C9             4.4371     1.7582     0.2824 C.2     
  10 C10            5.1190     2.8550     1.0042 C.ar    
  11 C11            6.3781     3.2900     0.5896 C.ar    
  12 C12            4.2936    -1.0155    -2.0017 C.2     
  13 O13            3.3691    -1.7303    -2.3385 O.2     
  14 C14            5.7453    -2.2950    -3.4824 C.3     
  15 N15            5.5228    -1.2160    -2.5168 N.am    
  16 C16           -0.1722    -0.5456     1.1220 C.2     
  17 O17           -0.2764    -1.7136     0.8125 O.2     
  18 C18            7.0085     4.3136     1.2667 C.ar    
  19 C19            6.3947     4.9084     2.3545 C.ar    
  20 C20            5.1462     4.4817     2.7706 C.ar    
  21 C21            4.5031     3.4625     2.0987 C.ar    
  22 C22           -0.9717     0.0025     2.2758 C.3     
  23 C23            6.9557    -1.9570    -4.3550 C.3     
  24 C24            7.1881    -3.0840    -5.3635 C.3     
  25 C25            7.4486    -4.3926    -4.6148 C.3     
  26 C26            6.2381    -4.7306    -3.7422 C.3     
  27 C27            6.0058    -3.6037    -2.7338 C.3     
  28 C28           -1.7019    -1.1429     2.9799 C.3     
  29 C29           -0.0312     0.6927     3.2658 C.3     
  30 C30           -1.9937     1.0141     1.7533 C.3     
  31 H31            0.5095     2.2582    -0.2109 H       
  32 H32           -0.0395     1.9616     1.4569 H       
  33 H33            1.6408    -1.3556    -0.5047 H       
  34 H34            1.1426    -0.0365    -1.6007 H       
  35 H35            2.2308     3.1555     1.1983 H       
  36 H36            2.2091     1.7248     2.2586 H       
  37 H37            6.8584     2.8262    -0.2593 H       
  38 H38            4.8629    -2.4064    -4.1125 H       
  39 H39            6.2601    -0.6458    -2.2482 H       
  40 H40            7.9834     4.6510     0.9470 H       
  41 H41            6.8925     5.7091     2.8814 H       
  42 H42            4.6723     4.9500     3.6205 H       
  43 H43            3.5285     3.1302     2.4244 H       
  44 H44            6.7701    -1.0247    -4.8884 H       
  45 H45            7.8381    -1.8457    -3.7249 H       
  46 H46            6.3057    -3.1953    -5.9936 H       
  47 H47            8.0504    -2.8432    -5.9851 H       
  48 H48            7.6141    -5.1955    -5.3332 H       
  49 H49            8.3310    -4.2813    -3.9847 H       
  50 H50            5.3557    -4.8420    -4.3723 H       
  51 H51            6.4237    -5.6629    -3.2088 H       
  52 H52            6.8882    -3.4923    -2.1036 H       
  53 H53            5.1434    -3.8445    -2.1121 H       
  54 H54           -0.9738    -1.8636     3.3522 H       
  55 H55           -2.2802    -0.7465     3.8145 H       
  56 H56           -2.3720    -1.6346     2.2747 H       
  57 H57            0.3515     1.6120     2.8227 H       
  58 H58           -0.5758     0.9292     4.1799 H       
  59 H59            0.8007     0.0285     3.5001 H       
  60 H60           -2.7737     0.4902     1.2008 H       
  61 H61           -2.4391     1.5474     2.5931 H       
  62 H62           -1.4965     1.7253     1.0937 H       
@<TRIPOS>BOND
   1    1    2 1
   2    1    6 1
   3    1   31 1
   4    1   32 1
   5    2    3 1
   6    2   16 am
   7    3    4 1
   8    3   33 1
   9    3   34 1
  10    4    5 1
  11    4    7 2
  12    5    6 1
  13    5    9 1
  14    6   35 1
  15    6   36 1
  16    7    8 1
  17    7   12 1
  18    8    9 2
  19    9   10 1
  20   10   11 ar
  21   10   21 ar
  22   11   18 ar
  23   11   37 1
  24   12   13 2
  25   12   15 am
  26   14   23 1
  27   14   15 1
  28   14   27 1
  29   14   38 1
  30   15   39 1
  31   16   17 2
  32   16   22 1
  33   18   19 ar
  34   18   40 1
  35   19   20 ar
  36   19   41 1
  37   20   21 ar
  38   20   42 1
  39   21   43 1
  40   22   28 1
  41   22   30 1
  42   22   29 1
  43   23   24 1
  44   23   44 1
  45   23   45 1
  46   24   25 1
  47   24   46 1
  48   24   47 1
  49   25   26 1
  50   25   48 1
  51   25   49 1
  52   26   27 1
  53   26   50 1
  54   26   51 1
  55   27   52 1
  56   27   53 1
  57   28   54 1
  58   28   55 1
  59   28   56 1
  60   29   57 1
  61   29   58 1
  62   29   59 1
  63   30   60 1
  64   30   61 1
  65   30   62 1

#	End of record

