#	Name: ASD07730031
#	Creating user name:	WinNT
#	Creation time:	15. 06. 2019 21:11

#	Modifying user name:	WinNT
#	Modification time:	15. 06. 2019 21:11

#	Program:	/corina/corina34_cracker 3.40 0067  02.08.2006

@<TRIPOS>MOLECULE
ASD07730031
  32   35    0    0    0
SMALL
NO_CHARGES


@<TRIPOS>ATOM
   1 N1            -0.0158     1.3157     0.0093 N.ar    
   2 C2             0.0021    -0.0041     0.0020 C.ar    
   3 N3             1.1323    -0.7085    -0.0126 N.ar    
   4 C4             2.3142    -0.1162    -0.0206 C.ar    
   5 C5             2.3570     1.2977    -0.0134 C.ar    
   6 C6             3.5656     2.0042    -0.0206 C.ar    
   7 C7             3.5470     3.3676    -0.0127 C.ar    
   8 C8             2.3429     4.0672     0.0029 C.ar    
   9 C9             1.1488     3.4107     0.0103 C.ar    
  10 C10            1.1297     2.0080     0.0021 C.ar    
  11 N11            5.4953    -1.5229    -0.4262 N.2     
  12 N12            4.9356    -2.4140     0.3118 N.2     
  13 C13            3.7082    -2.0631     0.5806 C.2     
  14 N14            3.4874    -0.8652    -0.0354 N.pl3   
  15 C15            4.6559    -0.5543    -0.6689 C.2     
  16 C16           -1.2894    -0.7325     0.0110 C.ar    
  17 C17           -2.4910    -0.0261     0.0267 C.ar    
  18 C18           -3.6900    -0.7094     0.0350 C.ar    
  19 C19           -3.7009    -2.0926     0.0282 C.ar    
  20 C20           -2.5116    -2.7989     0.0126 C.ar    
  21 C21           -1.3066    -2.1263    -0.0021 C.ar    
  22 H22            4.5059     1.4731    -0.0320 H       
  23 H23            4.4793     3.9127    -0.0183 H       
  24 H24            2.3557     5.1471     0.0096 H       
  25 H25            0.2231     3.9667     0.0227 H       
  26 H26            2.9993    -2.6170     1.1782 H       
  27 H27            4.8494     0.3287    -1.2600 H       
  28 H28           -2.4837     1.0539     0.0327 H       
  29 H29           -4.6216    -0.1631     0.0472 H       
  30 H30           -4.6415    -2.6232     0.0354 H       
  31 H31           -2.5261    -3.8788     0.0073 H       
  32 H32           -0.3787    -2.6787    -0.0188 H       
@<TRIPOS>BOND
   1    1    2 ar
   2    1   10 ar
   3    2    3 ar
   4    2   16 1
   5    3    4 ar
   6    4    5 ar
   7    4   14 1
   8    5    6 ar
   9    5   10 ar
  10    6    7 ar
  11    6   22 1
  12    7    8 ar
  13    7   23 1
  14    8    9 ar
  15    8   24 1
  16    9   10 ar
  17    9   25 1
  18   11   12 1
  19   11   15 2
  20   12   13 2
  21   13   14 1
  22   13   26 1
  23   14   15 1
  24   15   27 1
  25   16   17 ar
  26   16   21 ar
  27   17   18 ar
  28   17   28 1
  29   18   19 ar
  30   18   29 1
  31   19   20 ar
  32   19   30 1
  33   20   21 ar
  34   20   31 1
  35   21   32 1

#	End of record

