#	Name: ASD01915020
#	Creating user name:	WinNT
#	Creation time:	15. 06. 2019 20:04

#	Modifying user name:	WinNT
#	Modification time:	15. 06. 2019 20:04

#	Program:	/corina/corina34_cracker 3.40 0067  02.08.2006

@<TRIPOS>MOLECULE
ASD01915020
  40   42    0    0    0
SMALL
NO_CHARGES


@<TRIPOS>ATOM
   1 N1            -0.0158     1.3157     0.0093 N.ar    
   2 C2             0.0021    -0.0041     0.0020 C.ar    
   3 C3             1.1932    -0.7078    -0.0122 C.ar    
   4 C4             2.3907    -0.0109    -0.0190 C.ar    
   5 C5             2.3358     1.3830    -0.0115 C.ar    
   6 C6             3.5653     2.2019    -0.0170 C.2     
   7 N7             3.4903     3.4982     0.3477 N.am    
   8 C8             2.2308     4.0814     0.8022 C.3     
   9 C9             1.0507     3.5288     0.0069 C.3     
  10 C10            1.0944     2.0227     0.0025 C.ar    
  11 O11            4.6293     1.7144    -0.3452 O.2     
  12 C12            4.6916     4.3346     0.2874 C.3     
  13 C13            4.7870     4.9795    -1.0713 C.ar    
  14 C14            4.1991     6.2110    -1.2935 C.ar    
  15 C15            4.2851     6.8043    -2.5381 C.ar    
  16 C16            4.9623     6.1634    -3.5654 C.ar    
  17 C17            5.5514     4.9278    -3.3399 C.ar    
  18 C18            5.4673     4.3413    -2.0919 C.ar    
  19 O19            5.0480     6.7447    -4.7908 O.3     
  20 C20            5.7604     6.0275    -5.8008 C.3     
  21 C21            1.1882    -2.2148    -0.0197 C.3     
  22 O22            1.1745    -2.6844    -1.3693 O.3     
  23 H23           -0.9322    -0.5457     0.0076 H       
  24 H24            3.3374    -0.5307    -0.0294 H       
  25 H25            2.0901     3.8503     1.8581 H       
  26 H26            2.2717     5.1634     0.6763 H       
  27 H27            0.1187     3.8624     0.4633 H       
  28 H28            1.1016     3.8957    -1.0182 H       
  29 H29            4.6347     5.1079     1.0535 H       
  30 H30            5.5732     3.7171     0.4593 H       
  31 H31            3.6718     6.7094    -0.4935 H       
  32 H32            3.8254     7.7661    -2.7113 H       
  33 H33            6.0790     4.4268    -4.1380 H       
  34 H34            5.9298     3.3816    -1.9145 H       
  35 H35            6.7897     5.8715    -5.4780 H       
  36 H36            5.2816     5.0625    -5.9673 H       
  37 H37            5.7532     6.6014    -6.7274 H       
  38 H38            2.0815    -2.5836     0.4843 H       
  39 H39            0.3016    -2.5777     0.5003 H       
  40 H40            1.1706    -3.6479    -1.4504 H       
@<TRIPOS>BOND
   1    1    2 ar
   2    1   10 ar
   3    2    3 ar
   4    2   23 1
   5    3    4 ar
   6    3   21 1
   7    4    5 ar
   8    4   24 1
   9    5    6 1
  10    5   10 ar
  11    6    7 am
  12    6   11 2
  13    7    8 1
  14    7   12 1
  15    8    9 1
  16    8   25 1
  17    8   26 1
  18    9   10 1
  19    9   27 1
  20    9   28 1
  21   12   13 1
  22   12   29 1
  23   12   30 1
  24   13   14 ar
  25   13   18 ar
  26   14   15 ar
  27   14   31 1
  28   15   16 ar
  29   15   32 1
  30   16   17 ar
  31   16   19 1
  32   17   18 ar
  33   17   33 1
  34   18   34 1
  35   19   20 1
  36   20   35 1
  37   20   36 1
  38   20   37 1
  39   21   22 1
  40   21   38 1
  41   21   39 1
  42   22   40 1

#	End of record

