#	Name: ASD04590540
#	Creating user name:	WinNT
#	Creation time:	15. 06. 2019 20:51

#	Modifying user name:	WinNT
#	Modification time:	15. 06. 2019 20:51

#	Program:	/corina/corina34_cracker 3.40 0067  02.08.2006

@<TRIPOS>MOLECULE
ASD04590540
  61   66    0    0    0
SMALL
NO_CHARGES


@<TRIPOS>ATOM
   1 C1            -0.0167     1.3832     0.0096 C.ar    
   2 C2             0.0021    -0.0041     0.0020 C.ar    
   3 C3             2.4020     0.0223    -0.0208 C.ar    
   4 C4             2.3769     1.4283    -0.0130 C.ar    
   5 C5             1.1624     2.0986     0.0022 C.ar    
   6 N6             3.7040    -0.3552    -0.0358 N.2     
   7 C7             4.4709     0.7083    -0.0376 C.2     
   8 N8             3.6969     1.8375    -0.0239 N.pl3   
   9 C9             5.9482     0.6906    -0.0528 C.2     
  10 C10            6.7657    -0.4631    -0.0681 C.2     
  11 C11            8.0579    -0.0539    -0.0788 C.2     
  12 N12            8.0646     1.3050    -0.0706 N.pl3   
  13 N13            6.7360     1.7480    -0.0602 N.2     
  14 N14            6.3189    -1.7943    -0.0712 N.am    
  15 C15            7.2109    -2.8045    -0.0864 C.2     
  16 O16            8.4025    -2.5632    -0.0975 O.2     
  17 C17            1.1969    -0.6870    -0.0131 C.ar    
  18 C18           -1.2962    -0.7693     0.0109 C.3     
  19 N19           -1.7318    -1.0105    -1.3712 N.3     
  20 C20           -2.8604    -1.9518    -1.4111 C.3     
  21 C21           -3.3198    -2.1280    -2.8609 C.3     
  22 O22           -2.2162    -2.5719    -3.6548 O.3     
  23 C23           -1.0996    -1.6784    -3.6392 C.3     
  24 C24           -0.6176    -1.4976    -2.1974 C.3     
  25 C25            6.7405    -4.2060    -0.0897 C.ar    
  26 C26            5.3730    -4.4880    -0.0770 C.ar    
  27 C27            7.6592    -5.2541    -0.1113 C.ar    
  28 C28            7.2110    -6.5680    -0.1145 C.ar    
  29 C29            5.8508    -6.8407    -0.0932 C.ar    
  30 C30            4.9390    -5.7960    -0.0784 C.ar    
  31 N31            8.1502    -7.6056    -0.1445 N.pl3   
  32 C32            7.7066    -8.9746     0.1506 C.3     
  33 C33            6.3976    -9.2177    -0.6119 C.3     
  34 C34            5.3333    -8.2555    -0.0855 C.3     
  35 H35           -0.9614     1.9066     0.0170 H       
  36 H36            1.1403     3.1784     0.0079 H       
  37 H37            4.0155     2.7537    -0.0221 H       
  38 H38            8.9277    -0.6940    -0.0912 H       
  39 H39            8.8529     1.8702    -0.0753 H       
  40 H40            5.3682    -1.9868    -0.0623 H       
  41 H41            1.2037    -1.7669    -0.0186 H       
  42 H42           -1.1522    -1.7232     0.5182 H       
  43 H43           -2.0559    -0.1898     0.5354 H       
  44 H44           -2.5454    -2.9149    -1.0095 H       
  45 H45           -3.6832    -1.5591    -0.8137 H       
  46 H46           -4.1188    -2.8683    -2.9020 H       
  47 H47           -3.6850    -1.1756    -3.2453 H       
  48 H48           -0.2928    -2.0935    -4.2433 H       
  49 H49           -1.4002    -0.7130    -4.0462 H       
  50 H50            0.1967    -0.7734    -2.1739 H       
  51 H51           -0.2668    -2.4535    -1.8083 H       
  52 H52            4.6554    -3.6810    -0.0657 H       
  53 H53            8.7186    -5.0442    -0.1258 H       
  54 H54            3.8803    -6.0092    -0.0643 H       
  55 H55            9.0790    -7.4235    -0.3570 H       
  56 H56            8.4632    -9.6869    -0.1784 H       
  57 H57            7.5358    -9.0846     1.2215 H       
  58 H58            6.5562    -9.0402    -1.6756 H       
  59 H59            6.0698   -10.2455    -0.4563 H       
  60 H60            5.0676    -8.5357     0.9338 H       
  61 H61            4.4475    -8.3180    -0.7177 H       
@<TRIPOS>BOND
   1    1    2 ar
   2    1    5 ar
   3    1   35 1
   4    2   17 ar
   5    2   18 1
   6    3    4 ar
   7    3    6 1
   8    3   17 ar
   9    4    5 ar
  10    4    8 1
  11    5   36 1
  12    6    7 2
  13    7    8 1
  14    7    9 1
  15    8   37 1
  16    9   10 1
  17    9   13 2
  18   10   11 2
  19   10   14 1
  20   11   12 1
  21   11   38 1
  22   12   13 1
  23   12   39 1
  24   14   15 am
  25   14   40 1
  26   15   16 2
  27   15   25 1
  28   17   41 1
  29   18   19 1
  30   18   42 1
  31   18   43 1
  32   19   20 1
  33   19   24 1
  34   20   21 1
  35   20   44 1
  36   20   45 1
  37   21   22 1
  38   21   46 1
  39   21   47 1
  40   22   23 1
  41   23   24 1
  42   23   48 1
  43   23   49 1
  44   24   50 1
  45   24   51 1
  46   25   26 ar
  47   25   27 ar
  48   26   30 ar
  49   26   52 1
  50   27   28 ar
  51   27   53 1
  52   28   29 ar
  53   28   31 1
  54   29   30 ar
  55   29   34 1
  56   30   54 1
  57   31   32 1
  58   31   55 1
  59   32   33 1
  60   32   56 1
  61   32   57 1
  62   33   34 1
  63   33   58 1
  64   33   59 1
  65   34   60 1
  66   34   61 1

#	End of record

