#	Name: ASD02038365
#	Creating user name:	WinNT
#	Creation time:	15. 06. 2019 20:16

#	Modifying user name:	WinNT
#	Modification time:	15. 06. 2019 20:16

#	Program:	/corina/corina34_cracker 3.40 0067  02.08.2006

@<TRIPOS>MOLECULE
ASD02038365
  53   55    0    0    0
SMALL
NO_CHARGES


@<TRIPOS>ATOM
   1 N1            -0.0230     1.6541     0.0111 N.am    
   2 C2            14.9146     9.0166     1.0319 C.ar    
   3 C3            14.3529     8.3209    -0.0247 C.ar    
   4 C4            14.4225     8.8452     2.3169 C.ar    
   5 C5            13.3690     7.9781     2.5442 C.ar    
   6 C6            12.8053     7.2801     1.4846 C.ar    
   7 C7            13.3007     7.4541     0.1986 C.ar    
   8 N8            11.7407     6.4028     1.7117 N.3     
   9 N9             9.3245     5.0581     1.7185 N.am    
  10 C10            9.4317     6.1744     2.4468 C.2     
  11 C11           10.6154     7.0953     2.3536 C.3     
  12 C12            8.1120     4.2474     1.8547 C.3     
  13 C13            7.0674     4.7176     0.8404 C.3     
  14 C14            5.8011     3.8708     0.9826 C.3     
  15 O15            4.8255     4.3100     0.0353 O.3     
  16 C16            3.6327     3.6568     0.0295 C.ar    
  17 C17            2.6412     4.0323    -0.8648 C.ar    
  18 C18            1.4297     3.3692    -0.8716 C.ar    
  19 C19            1.2044     2.3262     0.0171 C.ar    
  20 C20            2.1977     1.9509     0.9120 C.ar    
  21 C21            3.4104     2.6117     0.9139 C.ar    
  22 C22           10.3619     4.6115     0.7932 C.3     
  23 C23           11.2998     5.7725     0.4569 C.3     
  24 F24           15.9472     9.8595     0.8117 F       
  25 O25            8.5358     6.4556     3.2144 O.2     
  26 F26           14.9721     9.5250     3.3469 F       
  27 S27           -1.1281     1.9376     1.2113 S.o2    
  28 O28           -2.2336     1.1117     0.8720 O.2     
  29 O29           -0.4003     1.7300     2.4140 O.2     
  30 C30           -1.5609     3.6892     1.0235 C.3     
  31 H31           -0.2280     1.0251    -0.6983 H       
  32 H32           14.7374     8.4561    -1.0248 H       
  33 H33           12.9858     7.8436     3.5449 H       
  34 H34           12.8630     6.9121    -0.6266 H       
  35 H35           10.9083     7.4104     3.3551 H       
  36 H36           10.3463     7.9719     1.7643 H       
  37 H37            8.3523     3.2004     1.6699 H       
  38 H38            7.7136     4.3562     2.8634 H       
  39 H39            6.8271     5.7646     1.0252 H       
  40 H40            7.4658     4.6088    -0.1684 H       
  41 H41            6.0414     2.8238     0.7978 H       
  42 H42            5.4027     3.9796     1.9914 H       
  43 H43            2.8165     4.8434    -1.5559 H       
  44 H44            0.6575     3.6622    -1.5675 H       
  45 H45            2.0233     1.1399     1.6035 H       
  46 H46            4.1832     2.3197     1.6096 H       
  47 H47           10.9342     3.8059     1.2531 H       
  48 H48            9.8969     4.2456    -0.1222 H       
  49 H49           10.7708     6.5043    -0.1535 H       
  50 H50           12.1661     5.3967    -0.0875 H       
  51 H51           -1.9006     3.8723     0.0041 H       
  52 H52           -2.3571     3.9438     1.7231 H       
  53 H53           -0.6850     4.3041     1.2306 H       
@<TRIPOS>BOND
   1    1   27 am
   2    1   19 1
   3    1   31 1
   4    2    3 ar
   5    2    4 ar
   6    2   24 1
   7    3    7 ar
   8    3   32 1
   9    4    5 ar
  10    4   26 1
  11    5    6 ar
  12    5   33 1
  13    6    7 ar
  14    6    8 1
  15    7   34 1
  16    8   23 1
  17    8   11 1
  18    9   10 am
  19    9   12 1
  20    9   22 1
  21   10   11 1
  22   10   25 2
  23   11   35 1
  24   11   36 1
  25   12   13 1
  26   12   37 1
  27   12   38 1
  28   13   14 1
  29   13   39 1
  30   13   40 1
  31   14   15 1
  32   14   41 1
  33   14   42 1
  34   15   16 1
  35   16   17 ar
  36   16   21 ar
  37   17   18 ar
  38   17   43 1
  39   18   19 ar
  40   18   44 1
  41   19   20 ar
  42   20   21 ar
  43   20   45 1
  44   21   46 1
  45   22   23 1
  46   22   47 1
  47   22   48 1
  48   23   49 1
  49   23   50 1
  50   27   28 2
  51   27   29 2
  52   27   30 1
  53   30   51 1
  54   30   52 1
  55   30   53 1

#	End of record

