#	Name: ASD03081342
#	Creating user name:	WinNT
#	Creation time:	15. 06. 2019 20:27

#	Modifying user name:	WinNT
#	Modification time:	15. 06. 2019 20:27

#	Program:	/corina/corina34_cracker 3.40 0067  02.08.2006

@<TRIPOS>MOLECULE
ASD03081342
  40   42    0    0    0
SMALL
NO_CHARGES


@<TRIPOS>ATOM
   1 N1            -0.0168     1.3900     0.0097 N.pl3   
   2 C2             0.0021    -0.0041     0.0020 C.ar    
   3 C3            -1.1939    -0.7144     0.0096 C.ar    
   4 C4            -1.1788    -2.0916     0.0016 C.ar    
   5 C5             0.0397    -2.7752    -0.0141 C.ar    
   6 C6             1.2391    -2.0587    -0.0217 C.ar    
   7 C7             1.2168    -0.6815    -0.0190 C.ar    
   8 O8             1.1574    -5.0348    -0.0374 O.3     
   9 C9             0.0597    -4.2513    -0.0223 C.2     
  10 N10           -0.9890    -5.0437    -0.0161 N.2     
  11 N11           -0.5983    -6.2694    -0.0266 N.2     
  12 C12            0.7143    -6.3090    -0.0398 C.2     
  13 C13            2.9449    -7.4288    -0.0680 C.ar    
  14 C14            1.5521    -7.5258    -0.0547 C.ar    
  15 C15            0.9629    -8.7959    -0.0552 C.ar    
  16 C16            1.7924    -9.9036    -0.0689 C.ar    
  17 C17            3.1636    -9.7227    -0.0816 C.ar    
  18 N18            3.6913    -8.5133    -0.0808 N.ar    
  19 C19            1.2418     2.1397     0.0017 C.3     
  20 C20            1.6662     2.4084    -1.4435 C.3     
  21 C21           -1.2954     2.1052     0.0196 C.3     
  22 C22           -1.7336     2.3463     1.4656 C.3     
  23 H23           -2.1354    -0.1854     0.0222 H       
  24 H24           -2.1077    -2.6425     0.0079 H       
  25 H25            2.1826    -2.5841    -0.0339 H       
  26 H26            2.1435    -0.1270    -0.0294 H       
  27 H27            3.4138    -6.4559    -0.0723 H       
  28 H28           -0.1111    -8.9083    -0.0447 H       
  29 H29            1.3734   -10.8990    -0.0694 H       
  30 H30            3.8130   -10.5855    -0.0919 H       
  31 H31            1.1035     3.0874     0.5220 H       
  32 H32            2.0142     1.5582     0.5051 H       
  33 H33            1.8045     1.4606    -1.9638 H       
  34 H34            0.8937     2.9898    -1.9469 H       
  35 H35            2.6026     2.9662    -1.4494 H       
  36 H36           -1.1804     3.0620    -0.4896 H       
  37 H37           -2.0494     1.5086    -0.4939 H       
  38 H38           -1.8486     1.3894     1.9747 H       
  39 H39           -0.9796     2.9428     1.9791 H       
  40 H40           -2.6849     2.8784     1.4730 H       
@<TRIPOS>BOND
   1    1    2 1
   2    1   19 1
   3    1   21 1
   4    2    3 ar
   5    2    7 ar
   6    3    4 ar
   7    3   23 1
   8    4    5 ar
   9    4   24 1
  10    5    6 ar
  11    5    9 1
  12    6    7 ar
  13    6   25 1
  14    7   26 1
  15    8    9 1
  16    8   12 1
  17    9   10 2
  18   10   11 1
  19   11   12 2
  20   12   14 1
  21   13   14 ar
  22   13   18 ar
  23   13   27 1
  24   14   15 ar
  25   15   16 ar
  26   15   28 1
  27   16   17 ar
  28   16   29 1
  29   17   18 ar
  30   17   30 1
  31   19   20 1
  32   19   31 1
  33   19   32 1
  34   20   33 1
  35   20   34 1
  36   20   35 1
  37   21   22 1
  38   21   36 1
  39   21   37 1
  40   22   38 1
  41   22   39 1
  42   22   40 1

#	End of record

