#	Name: ASD06170223
#	Creating user name:	WinNT
#	Creation time:	15. 06. 2019 21:05

#	Modifying user name:	WinNT
#	Modification time:	15. 06. 2019 21:05

#	Program:	/corina/corina34_cracker 3.40 0067  02.08.2006

@<TRIPOS>MOLECULE
ASD06170223
  74   79    0    0    0
SMALL
NO_CHARGES


@<TRIPOS>ATOM
   1 C1             0.0779     1.0584    -1.5125 C.2     
   2 C2             0.0158    -0.1065    -0.7771 C.2     
   3 C3             1.1270    -0.4961     0.0099 C.2     
   4 C4             2.2383     0.2948     0.0215 C.2     
   5 C5             2.2543     1.4800    -0.7492 C.2     
   6 N6             1.1845     1.8265    -1.4881 N.am    
   7 C7            -1.1996    -0.9407    -0.8095 C.2     
   8 O8            -2.1517    -0.6021    -1.4863 O.2     
   9 N9            -1.2555    -2.0783    -0.0890 N.am    
  10 N10            3.3539    -0.0639     0.7908 N.am    
  11 C11            3.3849    -1.1024     1.6437 C.2     
  12 C12            4.7405    -1.1885     2.3096 C.3     
  13 C13            5.3815     0.1935     2.0448 C.3     
  14 C14            4.6401     0.6425     0.7640 C.3     
  15 O15            2.4602    -1.8600     1.8497 O.2     
  16 O16            3.2440     2.1927    -0.7444 O.2     
  17 C17           -2.4549    -2.7958    -0.0053 C.ar    
  18 C18           -3.6702    -2.1247    -0.0491 C.ar    
  19 C19           -4.8537    -2.8339     0.0331 C.ar    
  20 C20           -4.8267    -4.2177     0.1594 C.ar    
  21 C21           -3.6129    -4.8865     0.2029 C.ar    
  22 C22           -2.4298    -4.1787     0.1155 C.ar    
  23 F23           -6.0364    -2.1821    -0.0088 F       
  24 O24           -5.9909    -4.9158     0.2407 O.3     
  25 N25           -8.1003    -5.5355    -3.2488 N.ar    
  26 C26           -6.9234    -4.9557    -3.2831 C.ar    
  27 C27           -6.1841    -4.7302    -2.1289 C.ar    
  28 C28           -6.6903    -5.1226    -0.9022 C.ar    
  29 C29           -7.9583    -5.7458    -0.8774 C.ar    
  30 C30           -8.5369    -6.1706     0.3279 C.ar    
  31 C31           -9.7638    -6.7687     0.3144 C.ar    
  32 C32          -10.4514    -6.9626    -0.8921 C.ar    
  33 C33           -9.9112    -6.5588    -2.0790 C.ar    
  34 C34           -8.6502    -5.9403    -2.0977 C.ar    
  35 O35          -11.6715    -7.5608    -0.8798 O.3     
  36 C36          -12.3233    -7.7309    -2.1400 C.3     
  37 O37          -10.3246    -7.1809     1.4826 O.3     
  38 C38           -9.5742    -6.9555     2.6776 C.3     
  39 C39            1.2237     3.0590    -2.2789 C.3     
  40 C40            1.0313     2.7345    -3.7707 C.3     
  41 C41           -0.2460     3.4731    -4.2211 C.3     
  42 C42           -0.3906     4.6349    -3.2071 C.3     
  43 C43            0.0567     3.9835    -1.8749 C.3     
  44 H44           -0.7665     1.3554    -2.1170 H       
  45 H45            1.0948    -1.4052     0.5920 H       
  46 H46           -0.4648    -2.4001     0.3716 H       
  47 H47            4.6294    -1.3587     3.3805 H       
  48 H48            5.3384    -1.9794     1.8567 H       
  49 H49            5.1894     0.8774     2.8716 H       
  50 H50            6.4515     0.0982     1.8599 H       
  51 H51            5.2075     0.3592    -0.1225 H       
  52 H52            4.4789     1.7204     0.7810 H       
  53 H53           -3.6904    -1.0493    -0.1468 H       
  54 H54           -3.5925    -5.9618     0.3011 H       
  55 H55           -1.4849    -4.7009     0.1451 H       
  56 H56           -6.5184    -4.6457    -4.2350 H       
  57 H57           -5.2181    -4.2510    -2.1887 H       
  58 H58           -8.0140    -6.0256     1.2617 H       
  59 H59          -10.4517    -6.7147    -3.0010 H       
  60 H60          -12.4796    -6.7564    -2.6027 H       
  61 H61          -11.7019    -8.3464    -2.7904 H       
  62 H62          -13.2858    -8.2195    -1.9882 H       
  63 H63           -8.6194    -7.4771     2.6109 H       
  64 H64           -9.3966    -5.8869     2.7990 H       
  65 H65          -10.1340    -7.3304     3.5343 H       
  66 H66            2.1749     3.5694    -2.1275 H       
  67 H67            1.8887     3.0882    -4.3434 H       
  68 H68            0.9087     1.6600    -3.9063 H       
  69 H69           -0.1253     3.8620    -5.2322 H       
  70 H70           -1.1093     2.8098    -4.1671 H       
  71 H71            0.2668     5.4630    -3.4720 H       
  72 H72           -1.4268     4.9673    -3.1457 H       
  73 H73           -0.7577     3.4027    -1.4419 H       
  74 H74            0.3983     4.7449    -1.1737 H       
@<TRIPOS>BOND
   1    1    2 2
   2    1    6 1
   3    1   44 1
   4    2    3 1
   5    2    7 1
   6    3    4 2
   7    3   45 1
   8    4    5 1
   9    4   10 1
  10    5    6 am
  11    5   16 2
  12    6   39 1
  13    7    8 2
  14    7    9 am
  15    9   17 1
  16    9   46 1
  17   10   11 am
  18   10   14 1
  19   11   12 1
  20   11   15 2
  21   12   13 1
  22   12   47 1
  23   12   48 1
  24   13   14 1
  25   13   49 1
  26   13   50 1
  27   14   51 1
  28   14   52 1
  29   17   18 ar
  30   17   22 ar
  31   18   19 ar
  32   18   53 1
  33   19   20 ar
  34   19   23 1
  35   20   21 ar
  36   20   24 1
  37   21   22 ar
  38   21   54 1
  39   22   55 1
  40   24   28 1
  41   25   26 ar
  42   25   34 ar
  43   26   27 ar
  44   26   56 1
  45   27   28 ar
  46   27   57 1
  47   28   29 ar
  48   29   30 ar
  49   29   34 ar
  50   30   31 ar
  51   30   58 1
  52   31   32 ar
  53   31   37 1
  54   32   33 ar
  55   32   35 1
  56   33   34 ar
  57   33   59 1
  58   35   36 1
  59   36   60 1
  60   36   61 1
  61   36   62 1
  62   37   38 1
  63   38   63 1
  64   38   64 1
  65   38   65 1
  66   39   40 1
  67   39   43 1
  68   39   66 1
  69   40   41 1
  70   40   67 1
  71   40   68 1
  72   41   42 1
  73   41   69 1
  74   41   70 1
  75   42   43 1
  76   42   71 1
  77   42   72 1
  78   43   73 1
  79   43   74 1

#	End of record

