#	Name: ASD03330047
#	Creating user name:	WinNT
#	Creation time:	15. 06. 2019 20:36

#	Modifying user name:	WinNT
#	Modification time:	15. 06. 2019 20:36

#	Program:	/corina/corina34_cracker 3.40 0067  02.08.2006

@<TRIPOS>MOLECULE
ASD03330047
  56   59    0    0    0
SMALL
NO_CHARGES


@<TRIPOS>ATOM
   1 O1            -0.0162     1.3452     0.0094 O.3     
   2 C2             0.0021    -0.0041     0.0020 C.2     
   3 C3             1.2864    -0.4454    -0.0126 C.2     
   4 C4             2.1263     0.7519    -0.0142 C.ar    
   5 C5             1.2361     1.8422     0.0001 C.ar    
   6 C6             3.5052     0.9736    -0.0255 C.ar    
   7 C7             3.9856     2.2539    -0.0226 C.ar    
   8 C8             3.1114     3.3331    -0.0084 C.ar    
   9 C9             1.7475     3.1345     0.0026 C.ar    
  10 C10           -1.1884    -0.8660     0.0088 C.2     
  11 O11           -1.0632    -2.0761     0.0015 O.2     
  12 N12           -2.4187    -0.3159     0.0230 N.am    
  13 C13           -3.6052    -1.1751     0.0297 C.3     
  14 C14           -4.8642    -0.3058     0.0458 C.3     
  15 C15           -6.0848    -1.1896     0.0527 C.ar    
  16 C16           -6.6324    -1.6002     1.2543 C.ar    
  17 C17           -7.7510    -2.4102     1.2643 C.ar    
  18 C18           -8.3260    -2.8124     0.0655 C.ar    
  19 C19           -7.7733    -2.3981    -1.1398 C.ar    
  20 C20           -6.6581    -1.5836    -1.1425 C.ar    
  21 N21           -9.4570    -3.6319     0.0719 N.3     
  22 C22           -9.8961    -3.9336    -1.2966 C.3     
  23 C23          -11.0428    -4.9461    -1.2542 C.3     
  24 C24          -12.2029    -4.3625    -0.4430 C.3     
  25 C25          -11.7070    -4.0121     0.9626 C.3     
  26 C26          -10.5410    -3.0266     0.8560 C.3     
  27 C27            1.7518    -1.8787    -0.0248 C.3     
  28 C28            1.8961    -2.3558    -1.4713 C.3     
  29 Cl29           5.6991     2.5322    -0.0360 Cl      
  30 H30            4.1889     0.1376    -0.0362 H       
  31 H31            3.5046     4.3390    -0.0062 H       
  32 H32            1.0775     3.9815     0.0133 H       
  33 H33           -2.5184     0.6490     0.0288 H       
  34 H34           -3.6065    -1.7999    -0.8634 H       
  35 H35           -3.5899    -1.8088     0.9164 H       
  36 H36           -4.8630     0.3190     0.9390 H       
  37 H37           -4.8795     0.3279    -0.8409 H       
  38 H38           -6.1846    -1.2874     2.1860 H       
  39 H39           -8.1779    -2.7308     2.2031 H       
  40 H40           -8.2180    -2.7090    -2.0736 H       
  41 H41           -6.2307    -1.2572    -2.0791 H       
  42 H42          -10.2379    -3.0177    -1.7785 H       
  43 H43           -9.0629    -4.3518    -1.8614 H       
  44 H44          -11.3788    -5.1580    -2.2693 H       
  45 H45          -10.6977    -5.8674    -0.7848 H       
  46 H46          -12.5737    -3.4624    -0.9334 H       
  47 H47          -13.0049    -5.0974    -0.3737 H       
  48 H48          -12.5176    -3.5566     1.5315 H       
  49 H49          -11.3724    -4.9186     1.4669 H       
  50 H50          -10.1763    -2.7861     1.8547 H       
  51 H51          -10.8799    -2.1149     0.3640 H       
  52 H52            2.7151    -1.9522     0.4798 H       
  53 H53            1.0223    -2.5020     0.4923 H       
  54 H54            2.2327    -3.3925    -1.4801 H       
  55 H55            0.9327    -2.2823    -1.9760 H       
  56 H56            2.6256    -1.7325    -1.9884 H       
@<TRIPOS>BOND
   1    1    2 1
   2    1    5 1
   3    2    3 2
   4    2   10 1
   5    3    4 1
   6    3   27 1
   7    4    5 ar
   8    4    6 ar
   9    5    9 ar
  10    6    7 ar
  11    6   30 1
  12    7    8 ar
  13    7   29 1
  14    8    9 ar
  15    8   31 1
  16    9   32 1
  17   10   11 2
  18   10   12 am
  19   12   13 1
  20   12   33 1
  21   13   14 1
  22   13   34 1
  23   13   35 1
  24   14   15 1
  25   14   36 1
  26   14   37 1
  27   15   16 ar
  28   15   20 ar
  29   16   17 ar
  30   16   38 1
  31   17   18 ar
  32   17   39 1
  33   18   19 ar
  34   18   21 1
  35   19   20 ar
  36   19   40 1
  37   20   41 1
  38   21   22 1
  39   21   26 1
  40   22   23 1
  41   22   42 1
  42   22   43 1
  43   23   24 1
  44   23   44 1
  45   23   45 1
  46   24   25 1
  47   24   46 1
  48   24   47 1
  49   25   26 1
  50   25   48 1
  51   25   49 1
  52   26   50 1
  53   26   51 1
  54   27   28 1
  55   27   52 1
  56   27   53 1
  57   28   54 1
  58   28   55 1
  59   28   56 1

#	End of record

