#	Name: ASD01040006
#	Creating user name:	WinNT
#	Creation time:	15. 06. 2019 18:58

#	Modifying user name:	WinNT
#	Modification time:	15. 06. 2019 18:58

#	Program:	/corina/corina34_cracker 3.40 0067  02.08.2006

@<TRIPOS>MOLECULE
ASD01040006
  57   59    0    0    0
SMALL
NO_CHARGES


@<TRIPOS>ATOM
   1 C1             0.9891     0.7479     0.4903 C.3     
   2 C2            -0.0508     1.8698     0.4601 C.3     
   3 C3            -1.4329     1.2722     0.4000 C.2     
   4 C4            -2.0405     1.0885    -0.7979 C.2     
   5 C5            -1.4073     1.5980    -2.0346 C.ar    
   6 C6            -0.9045     0.7063    -2.9829 C.ar    
   7 C7            -0.3158     1.1877    -4.1340 C.ar    
   8 C8            -0.2229     2.5513    -4.3489 C.ar    
   9 C9            -0.7195     3.4407    -3.4126 C.ar    
  10 C10           -1.3157     2.9720    -2.2600 C.ar    
  11 C11           -3.3366     0.3787    -0.8688 C.ar    
  12 C12           -4.4833     1.0558    -1.2873 C.ar    
  13 C13           -5.6890     0.3911    -1.3520 C.ar    
  14 C14           -5.7640    -0.9507    -1.0014 C.ar    
  15 C15           -4.6254    -1.6277    -0.5842 C.ar    
  16 C16           -3.4148    -0.9715    -0.5228 C.ar    
  17 O17           -6.9542    -1.6025    -1.0665 O.3     
  18 C18           -6.9600    -2.9815    -0.6918 C.3     
  19 C19           -8.3774    -3.5411    -0.8283 C.3     
  20 N20           -8.7779    -3.5207    -2.2415 N.3     
  21 C21           -8.1297    -4.6072    -2.9881 C.3     
  22 C22          -10.2392    -3.5886    -2.3756 C.3     
  23 C23           -2.1226     0.8883     1.6409 C.ar    
  24 C24           -1.6128    -0.1413     2.4390 C.ar    
  25 C25           -2.2651    -0.4949     3.6012 C.ar    
  26 C26           -3.4212     0.1658     3.9788 C.ar    
  27 C27           -3.9322     1.1853     3.1943 C.ar    
  28 C28           -3.2886     1.5547     2.0323 C.ar    
  29 H29            1.9886     1.1769     0.4196 H       
  30 H30            0.8973     0.1924     1.4236 H       
  31 H31            0.8221     0.0750    -0.3509 H       
  32 H32            0.0437     2.4771     1.3603 H       
  33 H33            0.1136     2.4940    -0.4182 H       
  34 H34           -0.9758    -0.3584    -2.8160 H       
  35 H35            0.0738     0.4986    -4.8688 H       
  36 H36            0.2395     2.9231    -5.2513 H       
  37 H37           -0.6436     4.5039    -3.5860 H       
  38 H38           -1.7032     3.6672    -1.5300 H       
  39 H39           -4.4259     2.0993    -1.5597 H       
  40 H40           -6.5767     0.9144    -1.6753 H       
  41 H41           -4.6878    -2.6709    -0.3117 H       
  42 H42           -2.5298    -1.4987    -0.1985 H       
  43 H43           -6.2855    -3.5378    -1.3427 H       
  44 H44           -6.6291    -3.0784     0.3423 H       
  45 H45           -8.4004    -4.5664    -0.4589 H       
  46 H46           -9.0670    -2.9297    -0.2463 H       
  47 H47           -8.4173    -5.5662    -2.5572 H       
  48 H48           -8.4436    -4.5688    -4.0312 H       
  49 H49           -7.0473    -4.4927    -2.9299 H       
  50 H50          -10.6858    -2.6943    -1.9411 H       
  51 H51          -10.5047    -3.6513    -3.4309 H       
  52 H52          -10.6113    -4.4706    -1.8543 H       
  53 H53           -0.7110    -0.6580     2.1455 H       
  54 H54           -1.8731    -1.2898     4.2183 H       
  55 H55           -3.9275    -0.1158     4.8902 H       
  56 H56           -4.8352     1.6955     3.4955 H       
  57 H57           -3.6884     2.3506     1.4214 H       
@<TRIPOS>BOND
   1    1    2 1
   2    1   29 1
   3    1   30 1
   4    1   31 1
   5    2    3 1
   6    2   32 1
   7    2   33 1
   8    3    4 2
   9    3   23 1
  10    4    5 1
  11    4   11 1
  12    5    6 ar
  13    5   10 ar
  14    6    7 ar
  15    6   34 1
  16    7    8 ar
  17    7   35 1
  18    8    9 ar
  19    8   36 1
  20    9   10 ar
  21    9   37 1
  22   10   38 1
  23   11   12 ar
  24   11   16 ar
  25   12   13 ar
  26   12   39 1
  27   13   14 ar
  28   13   40 1
  29   14   15 ar
  30   14   17 1
  31   15   16 ar
  32   15   41 1
  33   16   42 1
  34   17   18 1
  35   18   19 1
  36   18   43 1
  37   18   44 1
  38   19   20 1
  39   19   45 1
  40   19   46 1
  41   20   21 1
  42   20   22 1
  43   21   47 1
  44   21   48 1
  45   21   49 1
  46   22   50 1
  47   22   51 1
  48   22   52 1
  49   23   24 ar
  50   23   28 ar
  51   24   25 ar
  52   24   53 1
  53   25   26 ar
  54   25   54 1
  55   26   27 ar
  56   26   55 1
  57   27   28 ar
  58   27   56 1
  59   28   57 1

#	End of record

