#	Name: ASD00960116
#	Creating user name:	WinNT
#	Creation time:	15. 06. 2019 18:53

#	Modifying user name:	WinNT
#	Modification time:	15. 06. 2019 18:53

#	Program:	/corina/corina34_cracker 3.40 0067  02.08.2006

@<TRIPOS>MOLECULE
ASD00960116
  39   41    0    0    0
SMALL
NO_CHARGES


@<TRIPOS>ATOM
   1 C1            -0.0242     1.5199     0.0166 C.3     
   2 C2            -0.0100    -0.0247     0.0013 C.3     
   3 O3            -0.1300    -0.3811    -1.3931 O.3     
   4 C4            -1.0965     0.5424    -1.9400 C.3     
   5 C5            -0.9505     0.6277    -3.4606 C.3     
   6 C6             1.2878    -0.5430     0.5654 C.2     
   7 C7             1.5457    -0.7353     1.8780 C.2     
   8 N8             2.3747    -0.8938    -0.1669 N.pl3   
   9 C9             3.3646    -1.3181     0.6834 C.2     
  10 C10            2.8660    -1.2281     1.9891 C.2     
  11 N11            2.6363    -0.8955    -1.5450 N.2     
  12 C12            3.7982    -1.2942    -1.9899 C.2     
  13 N13            4.7644    -1.7073    -1.1754 N.2     
  14 C14            4.5968    -1.7346     0.1367 C.2     
  15 N15            5.6162    -2.1681     0.9621 N.pl3   
  16 C16           -0.7555     1.9016    -1.2899 C.3     
  17 O17            1.3094     2.0330     0.0122 O.3     
  18 C18            3.5726    -1.5758     3.2253 C.2     
  19 O19           -1.1982    -0.6568    -4.0358 O.3     
  20 S20            3.3939    -3.1378     3.9031 S.2     
  21 N21            4.3632    -0.6660     3.8283 N.am    
  22 O22           -1.9492     2.6318    -1.0006 O.3     
  23 *23           -1.7718     4.0301    -0.9652 Du      
  24 N24           -2.4557     0.1297    -1.5815 N.2     
  25 N25           -2.8508    -0.8643    -1.9269 N.1     
  26 N26           -3.2458    -1.8583    -2.2722 N.pl3   
  27 H27           -0.5713     1.8882     0.8845 H       
  28 H28           -0.8545    -0.4176     0.5674 H       
  29 H29           -1.6684     1.3469    -3.8548 H       
  30 H30            0.0605     0.9491    -3.7111 H       
  31 H31            0.8655    -0.5461     2.6952 H       
  32 H32            3.9797    -1.2884    -3.0545 H       
  33 H33            6.4273    -2.5368     0.5785 H       
  34 H34            5.5209    -2.1038     1.9253 H       
  35 H35           -0.0997     2.4817    -1.9391 H       
  36 H36            1.3594     2.9987     0.0214 H       
  37 H37           -1.1228    -0.6773    -4.9996 H       
  38 H38            4.4644     0.2190     3.4443 H       
  39 H39            4.8308    -0.8961     4.6464 H       
@<TRIPOS>BOND
   1    1    2 1
   2    1   17 1
   3    1   16 1
   4    1   27 1
   5    2    3 1
   6    2    6 1
   7    2   28 1
   8    3    4 1
   9    4    5 1
  10    4   24 1
  11    4   16 1
  12    5   19 1
  13    5   29 1
  14    5   30 1
  15    6    7 2
  16    6    8 1
  17    7   10 1
  18    7   31 1
  19    8    9 1
  20    8   11 1
  21    9   10 2
  22    9   14 1
  23   10   18 1
  24   11   12 2
  25   12   13 1
  26   12   32 1
  27   13   14 2
  28   14   15 1
  29   15   33 1
  30   15   34 1
  31   16   22 1
  32   16   35 1
  33   17   36 1
  34   18   20 2
  35   18   21 am
  36   19   37 1
  37   21   38 1
  38   21   39 1
  39   22   23 1
  40   24   25 2
  41   25   26 2

#	End of record

