#	Name: ASD01885620
#	Creating user name:	WinNT
#	Creation time:	15. 06. 2019 19:49

#	Modifying user name:	WinNT
#	Modification time:	15. 06. 2019 19:49

#	Program:	/corina/corina34_cracker 3.40 0067  02.08.2006

@<TRIPOS>MOLECULE
ASD01885620
  34   36    0    0    0
SMALL
NO_CHARGES


@<TRIPOS>ATOM
   1 C1            -0.0168     1.3890     0.0097 C.ar    
   2 C2             0.0021    -0.0041     0.0020 C.ar    
   3 C3            -1.1582    -0.7189     0.0092 C.ar    
   4 C4            -2.3868    -0.0465     0.0250 C.ar    
   5 C5            -2.4113     1.3713     0.0334 C.ar    
   6 C6            -1.1918     2.0749     0.0302 C.ar    
   7 C7            -3.6141    -0.7566     0.0323 C.ar    
   8 C8            -4.7907    -0.0200     0.0476 C.ar    
   9 C9            -4.7287     1.3781     0.0551 C.ar    
  10 N10           -3.5759     2.0202     0.0480 N.ar    
  11 C11           -3.6400    -2.2370     0.0235 C.ar    
  12 C12           -5.9901     2.1574     0.0709 C.2     
  13 O13           -7.0599     1.5815     0.0772 O.2     
  14 N14           -5.9499     3.5045     0.0784 N.am    
  15 C15            1.2849     2.1483     0.0013 C.3     
  16 C16           -4.4191    -2.9289     0.9513 C.ar    
  17 C17           -4.4397    -4.3079     0.9390 C.ar    
  18 C18           -3.6883    -5.0062     0.0070 C.ar    
  19 C19           -2.9128    -4.3235    -0.9167 C.ar    
  20 C20           -2.8898    -2.9445    -0.9163 C.ar    
  21 F21           -3.7115    -6.3570    -0.0007 F       
  22 H22            0.9485    -0.5242    -0.0101 H       
  23 H23           -1.1305    -1.7986     0.0025 H       
  24 H24           -1.1890     3.1549     0.0368 H       
  25 H25           -5.7468    -0.5222     0.0532 H       
  26 H26           -5.0958     3.9643     0.0733 H       
  27 H27           -6.7750     4.0143     0.0887 H       
  28 H28            1.5889     2.3369    -1.0283 H       
  29 H29            1.1553     3.0973     0.5215 H       
  30 H30            2.0520     1.5598     0.5047 H       
  31 H31           -5.0047    -2.3856     1.6781 H       
  32 H32           -5.0422    -4.8444     1.6570 H       
  33 H33           -2.3287    -4.8721    -1.6407 H       
  34 H34           -2.2852    -2.4134    -1.6365 H       
@<TRIPOS>BOND
   1    1    2 ar
   2    1   15 1
   3    1    6 ar
   4    2    3 ar
   5    2   22 1
   6    3    4 ar
   7    3   23 1
   8    4    5 ar
   9    4    7 ar
  10    5    6 ar
  11    5   10 ar
  12    6   24 1
  13    7    8 ar
  14    7   11 1
  15    8    9 ar
  16    8   25 1
  17    9   10 ar
  18    9   12 1
  19   11   16 ar
  20   11   20 ar
  21   12   13 2
  22   12   14 am
  23   14   26 1
  24   14   27 1
  25   15   28 1
  26   15   29 1
  27   15   30 1
  28   16   17 ar
  29   16   31 1
  30   17   18 ar
  31   17   32 1
  32   18   19 ar
  33   18   21 1
  34   19   20 ar
  35   19   33 1
  36   20   34 1

#	End of record

