#	Name: ASD03090866
#	Creating user name:	WinNT
#	Creation time:	15. 06. 2019 20:29

#	Modifying user name:	WinNT
#	Modification time:	15. 06. 2019 20:29

#	Program:	/corina/corina34_cracker 3.40 0067  02.08.2006

@<TRIPOS>MOLECULE
ASD03090866
  46   49    0    0    0
SMALL
NO_CHARGES


@<TRIPOS>ATOM
   1 N1             0.4407     0.7241     0.0196 N.am    
   2 C2             0.1595    -0.6918    -0.2541 C.3     
   3 C3             1.0260    -1.5540     0.6693 C.3     
   4 C4             2.4949    -1.1604     0.4981 C.3     
   5 C5             2.6810     0.3067     0.8920 C.3     
   6 C6             1.8333     1.1899    -0.0288 C.3     
   7 C7            -0.5604     1.5805     0.3041 C.2     
   8 O8            -1.7190     1.2083     0.2347 O.2     
   9 N9            -0.2828     2.8373     0.6623 N.2     
  10 C10           -1.3191    -0.9818     0.0117 C.3     
  11 S11           -2.9615     3.3549     0.9054 S.3     
  12 C12           -1.2714     3.6830     0.9433 C.2     
  13 N13           -1.1556     4.9817     1.3192 N.pl3   
  14 C14           -2.3122     5.6596     1.5573 C.2     
  15 C15           -3.4442     4.9867     1.3994 C.2     
  16 C16           -4.8465     5.5016     1.5987 C.3     
  17 O17            3.6531     7.6296     1.9022 O.3     
  18 C18            3.1346     8.8119     2.5396 C.3     
  19 O19            1.7623     8.8603     2.1066 O.3     
  20 C20            1.4137     7.5649     1.8537 C.ar    
  21 C21            2.5764     6.8075     1.7279 C.ar    
  22 C22            0.1768     6.9582     1.7177 C.ar    
  23 C23            0.0969     5.5968     1.4566 C.ar    
  24 C24            1.2568     4.8448     1.3320 C.ar    
  25 C25            2.4921     5.4494     1.4680 C.ar    
  26 F26            3.2069     8.6917     3.9316 F       
  27 F27            3.8271     9.9477     2.1065 F       
  28 H28            0.3971    -0.9173    -1.2937 H       
  29 H29            0.7248    -1.3942     1.7046 H       
  30 H30            0.8985    -2.6052     0.4110 H       
  31 H31            3.1161    -1.7893     1.1359 H       
  32 H32            2.7885    -1.2970    -0.5427 H       
  33 H33            2.3643     0.4489     1.9252 H       
  34 H34            3.7315     0.5798     0.7921 H       
  35 H35            2.2074     1.1180    -1.0501 H       
  36 H36            1.8843     2.2250     0.3091 H       
  37 H37           -1.9298    -0.4598    -0.7249 H       
  38 H38           -1.4980    -2.0544    -0.0623 H       
  39 H39           -1.5828    -0.6376     1.0118 H       
  40 H40           -2.3081     6.6962     1.8604 H       
  41 H41           -5.5595     4.7038     1.3906 H       
  42 H42           -4.9673     5.8374     2.6286 H       
  43 H43           -5.0268     6.3360     0.9210 H       
  44 H44           -0.7256     7.5434     1.8152 H       
  45 H45            1.1940     3.7859     1.1289 H       
  46 H46            3.3933     4.8624     1.3701 H       
@<TRIPOS>BOND
   1    1    2 1
   2    1    6 1
   3    1    7 am
   4    2    3 1
   5    2   10 1
   6    2   28 1
   7    3    4 1
   8    3   29 1
   9    3   30 1
  10    4    5 1
  11    4   31 1
  12    4   32 1
  13    5    6 1
  14    5   33 1
  15    5   34 1
  16    6   35 1
  17    6   36 1
  18    7    8 2
  19    7    9 1
  20    9   12 2
  21   10   37 1
  22   10   38 1
  23   10   39 1
  24   11   12 1
  25   11   15 1
  26   12   13 1
  27   13   14 1
  28   13   23 1
  29   14   15 2
  30   14   40 1
  31   15   16 1
  32   16   41 1
  33   16   42 1
  34   16   43 1
  35   17   18 1
  36   17   21 1
  37   18   19 1
  38   18   26 1
  39   18   27 1
  40   19   20 1
  41   20   21 ar
  42   20   22 ar
  43   21   25 ar
  44   22   23 ar
  45   22   44 1
  46   23   24 ar
  47   24   25 ar
  48   24   45 1
  49   25   46 1

#	End of record

