#	Name: ASD01911836
#	Creating user name:	WinNT
#	Creation time:	15. 06. 2019 19:58

#	Modifying user name:	WinNT
#	Modification time:	15. 06. 2019 19:58

#	Program:	/corina/corina34_cracker 3.40 0067  02.08.2006

@<TRIPOS>MOLECULE
ASD01911836
  36   38    0    0    0
SMALL
NO_CHARGES


@<TRIPOS>ATOM
   1 C1            -1.0606    -0.5025    -2.0833 C.ar    
   2 C2            -1.0564     0.0559    -0.8086 C.ar    
   3 C3            -1.0053     1.4361    -0.6780 C.ar    
   4 N4            -0.9617     2.2115    -1.7433 N.ar    
   5 C5            -0.9643     1.7145    -2.9646 C.ar    
   6 C6            -1.0132     0.3489    -3.1751 C.ar    
   7 O7            -1.1021    -0.7394     0.2923 O.3     
   8 C8            -1.1524    -2.0845     0.1060 C.ar    
   9 C9            -0.0018    -2.7818    -0.2364 C.ar    
  10 C10           -0.0516    -4.1494    -0.4266 C.ar    
  11 C11           -1.2460    -4.8275    -0.2764 C.ar    
  12 C12           -2.4005    -4.1351     0.0661 C.ar    
  13 C13           -2.3514    -2.7619     0.2633 C.ar    
  14 N14           -3.6096    -4.8213     0.2173 N.am    
  15 C15           -4.7717    -4.2166    -0.0992 C.2     
  16 C16           -6.0557    -4.9024     0.1580 C.ar    
  17 C17           -7.2609    -4.2788    -0.1687 C.ar    
  18 C18           -8.4567    -4.9233     0.0735 C.ar    
  19 C19           -8.4641    -6.1853     0.6390 C.ar    
  20 C20           -7.2717    -6.8111     0.9667 C.ar    
  21 C21           -6.0676    -6.1786     0.7233 C.ar    
  22 O22           -4.7640    -3.1073    -0.5962 O.2     
  23 F23           -7.2864    -8.0438     1.5192 F       
  24 H24           -1.0953    -1.5735    -2.2181 H       
  25 H25           -1.0016     1.8799     0.3066 H       
  26 H26           -0.9280     2.3832    -3.8119 H       
  27 H27           -1.0146    -0.0494    -4.1790 H       
  28 H28            0.9333    -2.2546    -0.3545 H       
  29 H29            0.8448    -4.6894    -0.6936 H       
  30 H30           -1.2821    -5.8965    -0.4257 H       
  31 H31           -3.2474    -2.2212     0.5300 H       
  32 H32           -3.6118    -5.7325     0.5500 H       
  33 H33           -7.2575    -3.2931    -0.6101 H       
  34 H34           -9.3893    -4.4407    -0.1789 H       
  35 H35           -9.4030    -6.6852     0.8264 H       
  36 H36           -5.1385    -6.6663     0.9786 H       
@<TRIPOS>BOND
   1    1    2 ar
   2    1    6 ar
   3    1   24 1
   4    2    3 ar
   5    2    7 1
   6    3    4 ar
   7    3   25 1
   8    4    5 ar
   9    5    6 ar
  10    5   26 1
  11    6   27 1
  12    7    8 1
  13    8    9 ar
  14    8   13 ar
  15    9   10 ar
  16    9   28 1
  17   10   11 ar
  18   10   29 1
  19   11   12 ar
  20   11   30 1
  21   12   13 ar
  22   12   14 1
  23   13   31 1
  24   14   15 am
  25   14   32 1
  26   15   16 1
  27   15   22 2
  28   16   17 ar
  29   16   21 ar
  30   17   18 ar
  31   17   33 1
  32   18   19 ar
  33   18   34 1
  34   19   20 ar
  35   19   35 1
  36   20   21 ar
  37   20   23 1
  38   21   36 1

#	End of record

