#	Name: ASD01028203
#	Creating user name:	WinNT
#	Creation time:	15. 06. 2019 18:56

#	Modifying user name:	WinNT
#	Modification time:	15. 06. 2019 18:56

#	Program:	/corina/corina34_cracker 3.40 0067  02.08.2006

@<TRIPOS>MOLECULE
ASD01028203
  46   50    0    0    0
SMALL
NO_CHARGES


@<TRIPOS>ATOM
   1 C1            -0.0167     1.3801     0.0096 C.ar    
   2 C2             0.0021    -0.0041     0.0020 C.ar    
   3 C3             1.1834     2.1110     0.0021 C.ar    
   4 C4             2.3836     1.4738    -0.0132 C.ar    
   5 C5             2.4332     0.0711    -0.0211 C.ar    
   6 C6             1.2331    -0.6798    -0.0133 C.ar    
   7 C7             3.6691    -0.6165    -0.0365 C.ar    
   8 C8             3.6422    -1.9989    -0.0432 C.ar    
   9 C9             2.4215    -2.6648    -0.0348 C.ar    
  10 N10            1.2812    -2.0173    -0.0205 N.ar    
  11 O11            4.8445     0.0593    -0.0449 O.3     
  12 C12            6.0415    -0.7211    -0.0603 C.3     
  13 C13            7.2382     0.1948    -0.0678 C.2     
  14 N14            7.8820     0.6743     1.0188 N.pl3   
  15 C15            8.9026     1.4605     0.5387 C.2     
  16 N16            8.8286     1.4196    -0.7816 N.2     
  17 N17            7.8451     0.6650    -1.1290 N.2     
  18 N18            7.7038     0.5220     2.3953 N.2     
  19 C19            8.5070     1.1266     3.2424 C.2     
  20 C20            9.5635     1.9401     2.7808 C.2     
  21 C21            9.7626     2.1068     1.4467 C.2     
  22 C22            8.2998     0.9520     4.7011 C.ar    
  23 C23            7.2595     0.1514     5.1688 C.ar    
  24 C24            9.1484     1.5833     5.6085 C.ar    
  25 C25            8.9513     1.4169     6.9643 C.ar    
  26 C26            7.9141     0.6249     7.4230 C.ar    
  27 C27            7.0717    -0.0079     6.5268 C.ar    
  28 C28           -1.3110     2.0957     0.0196 C.2     
  29 N29           -1.3359     3.4433     0.0271 N.am    
  30 O30           -2.3522     1.4686     0.0211 O.2     
  31 H31           -0.9236    -0.5604     0.0082 H       
  32 H32            1.1516     3.1906     0.0082 H       
  33 H33            3.2992     2.0466    -0.0196 H       
  34 H34            4.5654    -2.5591    -0.0553 H       
  35 H35            2.4123    -3.7447    -0.0405 H       
  36 H36            6.0739    -1.3541     0.8264 H       
  37 H37            6.0564    -1.3457    -0.9534 H       
  38 H38           10.2151     2.4308     3.4886 H       
  39 H39           10.5696     2.7283     1.0877 H       
  40 H40            6.6012    -0.3432     4.4699 H       
  41 H41            9.9590     2.2012     5.2514 H       
  42 H42            9.6084     1.9057     7.6685 H       
  43 H43            7.7640     0.4969     8.4848 H       
  44 H44            6.2633    -0.6248     6.8904 H       
  45 H45           -0.5049     3.9437     0.0259 H       
  46 H46           -2.1847     3.9126     0.0336 H       
@<TRIPOS>BOND
   1    1    2 ar
   2    1    3 ar
   3    1   28 1
   4    2    6 ar
   5    2   31 1
   6    3    4 ar
   7    3   32 1
   8    4    5 ar
   9    4   33 1
  10    5    6 ar
  11    5    7 ar
  12    6   10 ar
  13    7    8 ar
  14    7   11 1
  15    8    9 ar
  16    8   34 1
  17    9   10 ar
  18    9   35 1
  19   11   12 1
  20   12   13 1
  21   12   36 1
  22   12   37 1
  23   13   14 1
  24   13   17 2
  25   14   15 1
  26   14   18 1
  27   15   16 2
  28   15   21 1
  29   16   17 1
  30   18   19 2
  31   19   20 1
  32   19   22 1
  33   20   21 2
  34   20   38 1
  35   21   39 1
  36   22   23 ar
  37   22   24 ar
  38   23   27 ar
  39   23   40 1
  40   24   25 ar
  41   24   41 1
  42   25   26 ar
  43   25   42 1
  44   26   27 ar
  45   26   43 1
  46   27   44 1
  47   28   29 am
  48   28   30 2
  49   29   45 1
  50   29   46 1

#	End of record

