#	Name: ASD00450019
#	Creating user name:	WinNT
#	Creation time:	15. 06. 2019 18:36

#	Modifying user name:	WinNT
#	Modification time:	15. 06. 2019 18:36

#	Program:	/corina/corina34_cracker 3.40 0067  02.08.2006

@<TRIPOS>MOLECULE
ASD00450019
  64   68    0    0    0
SMALL
NO_CHARGES


@<TRIPOS>ATOM
   1 Cl1            2.3126     3.4324     5.0180 Cl      
   2 C2            -0.1303     1.4322    -0.1554 C.3     
   3 N3            -1.2430     0.5750     0.2611 N.pl3   
   4 C4            -1.0978    -0.2730     1.3638 C.ar    
   5 C5            -1.2813    -1.6419     1.2166 C.ar    
   6 C6            -1.1377    -2.4813     2.3053 C.ar    
   7 C7            -0.8110    -1.9611     3.5442 C.ar    
   8 C8            -0.6265    -0.5906     3.6975 C.ar    
   9 N9            -0.2963    -0.0639     4.9515 N.am    
  10 C10            0.5068     1.0148     5.0391 C.2     
  11 O11            0.8793     1.5790     4.0286 O.2     
  12 C12            0.9345     1.5119     6.3631 C.ar    
  13 C13            0.5083     0.8660     7.5254 C.ar    
  14 C14            0.9101     1.3325     8.7599 C.ar    
  15 C15            1.7346     2.4392     8.8517 C.ar    
  16 C16            2.1641     3.0885     7.7031 C.ar    
  17 O17            2.9748     4.1754     7.7999 O.3     
  18 C18            3.2360     4.6751     9.1129 C.3     
  19 C19            4.1908     5.8673     9.0244 C.3     
  20 C20            1.9229     5.1203     9.7598 C.3     
  21 C21            3.8498     3.6144     9.9284 C.1     
  22 N22            4.3234     2.7958    10.5578 N.1     
  23 C23            1.7714     2.6259     6.4569 C.ar    
  24 C24           -0.7646     0.2524     2.6048 C.ar    
  25 C25           -2.4449     0.6046    -0.4408 C.ar    
  26 C26           -2.5698     1.4252    -1.5600 C.ar    
  27 C27           -3.7480     1.4554    -2.2495 C.ar    
  28 C28           -4.8211     0.6483    -1.8094 C.ar    
  29 N29           -6.0572     0.5227    -2.3317 N.2     
  30 C30           -6.8757    -0.2837    -1.7518 C.2     
  31 N31           -8.1770    -0.5225    -2.1651 N.am    
  32 C32           -8.9521    -1.3895    -1.4839 C.2     
  33 O33           -8.5110    -1.9606    -0.5093 O.2     
  34 C34          -10.3669    -1.6491    -1.9333 C.3     
  35 C35          -11.1958    -2.6438    -1.1182 C.3     
  36 C36          -11.4975    -1.1463    -1.0334 C.3     
  37 S37           -6.1101    -1.0396    -0.3616 S.3     
  38 C38           -4.6219    -0.1495    -0.6784 C.ar    
  39 N39           -3.4531    -0.1493    -0.0423 N.ar    
  40 F40           -0.6713    -2.7841     4.6065 F       
  41 H41            0.4885     0.8991    -0.8772 H       
  42 H42           -0.5227     2.3400    -0.6136 H       
  43 H43            0.4712     1.6951     0.7148 H       
  44 H44           -1.5368    -2.0509     0.2502 H       
  45 H45           -1.2812    -3.5453     2.1883 H       
  46 H46           -0.6455    -0.4753     5.7575 H       
  47 H47           -0.1359     0.0018     7.4579 H       
  48 H48            0.5792     0.8321     9.6579 H       
  49 H49            2.0452     2.7995     9.8213 H       
  50 H50            3.7023     6.6854     8.4952 H       
  51 H51            4.4591     6.1933    10.0293 H       
  52 H52            5.0913     5.5723     8.4856 H       
  53 H53            1.2643     4.2594     9.8749 H       
  54 H54            2.1286     5.5538    10.7385 H       
  55 H55            1.4402     5.8649     9.1268 H       
  56 H56           -0.6176     1.3161     2.7202 H       
  57 H57           -1.7382     2.0352    -1.8805 H       
  58 H58           -3.8582     2.0873    -3.1184 H       
  59 H59           -8.5298    -0.0657    -2.9447 H       
  60 H60          -10.5306    -1.6214    -3.0106 H       
  61 H61          -11.9050    -3.2703    -1.6592 H       
  62 H62          -10.7177    -3.1105    -0.2569 H       
  63 H63          -11.2180    -0.6277    -0.1163 H       
  64 H64          -12.4052    -0.7875    -1.5186 H       
@<TRIPOS>BOND
   1    1   23 1
   2    2    3 1
   3    2   41 1
   4    2   42 1
   5    2   43 1
   6    3    4 1
   7    3   25 1
   8    4    5 ar
   9    4   24 ar
  10    5    6 ar
  11    5   44 1
  12    6    7 ar
  13    6   45 1
  14    7    8 ar
  15    7   40 1
  16    8    9 1
  17    8   24 ar
  18    9   10 am
  19    9   46 1
  20   10   11 2
  21   10   12 1
  22   12   13 ar
  23   12   23 ar
  24   13   14 ar
  25   13   47 1
  26   14   15 ar
  27   14   48 1
  28   15   16 ar
  29   15   49 1
  30   16   17 1
  31   16   23 ar
  32   17   18 1
  33   18   19 1
  34   18   20 1
  35   18   21 1
  36   19   50 1
  37   19   51 1
  38   19   52 1
  39   20   53 1
  40   20   54 1
  41   20   55 1
  42   21   22 3
  43   24   56 1
  44   25   26 ar
  45   25   39 ar
  46   26   27 ar
  47   26   57 1
  48   27   28 ar
  49   27   58 1
  50   28   29 1
  51   28   38 ar
  52   29   30 2
  53   30   31 1
  54   30   37 1
  55   31   32 am
  56   31   59 1
  57   32   33 2
  58   32   34 1
  59   34   35 1
  60   34   36 1
  61   34   60 1
  62   35   36 1
  63   35   61 1
  64   35   62 1
  65   36   63 1
  66   36   64 1
  67   37   38 1
  68   38   39 ar

#	End of record

