#	Name: ASD01001187
#	Creating user name:	WinNT
#	Creation time:	15. 06. 2019 18:55

#	Modifying user name:	WinNT
#	Modification time:	15. 06. 2019 18:55

#	Program:	/corina/corina34_cracker 3.40 0067  02.08.2006

@<TRIPOS>MOLECULE
ASD01001187
  52   55    0    0    0
SMALL
NO_CHARGES


@<TRIPOS>ATOM
   1 C1            -0.0177     1.4509     0.0100 C.2     
   2 C2             1.2951     2.1910     0.0015 C.3     
   3 C3             2.0588     1.9087     1.2983 C.3     
   4 N4             2.1255     1.7203    -1.1166 N.pl3   
   5 C5             1.1951     2.2607     2.5065 C.3     
   6 C6             3.3506     2.7223     1.3072 C.3     
   7 C7             3.4963     2.0012    -1.1082 C.ar    
   8 C8             0.9523     3.7725     2.5407 C.3     
   9 C9             4.1212     2.4786     0.0334 C.ar    
  10 O10            3.0486     4.1168     1.3987 O.3     
  11 C11            4.2351     1.7942    -2.2683 C.ar    
  12 C12            2.3063     4.4888     2.5603 C.3     
  13 C13            5.4797     2.7416     0.0125 C.ar    
  14 C14            5.5897     2.0604    -2.2817 C.ar    
  15 C15            6.2116     2.5333    -1.1409 C.ar    
  16 C16            7.6906     2.8221    -1.1555 C.3     
  17 C17            8.3906     1.9513    -0.1101 C.3     
  18 C18            8.2576     2.5097    -2.5418 C.3     
  19 C19            7.9252     4.2984    -0.8293 C.3     
  20 C20            0.0021    -0.0041     0.0020 C.2     
  21 C21           -1.1264    -0.7180     0.0090 C.2     
  22 C22           -2.4511     0.0123     0.0255 C.3     
  23 C23           -2.4181     1.5256     0.0333 C.2     
  24 C24           -1.1640     2.1659     0.0303 C.2     
  25 S25           -3.8683     2.4352     0.0515 S.2     
  26 H26            1.1150     3.2617    -0.0958 H       
  27 H27            2.3179     0.8508     1.3388 H       
  28 H28            1.7293     1.2223    -1.8487 H       
  29 H29            0.2396     1.7412     2.4334 H       
  30 H30            1.7057     1.9543     3.4194 H       
  31 H31            3.9595     2.4272     2.1618 H       
  32 H32            0.3928     4.0729     1.6548 H       
  33 H33            0.3887     4.0319     3.4369 H       
  34 H34            3.7489     1.4246    -3.1590 H       
  35 H35            2.1481     5.5672     2.5618 H       
  36 H36            2.8589     4.1992     3.4541 H       
  37 H37            5.9697     3.1114     0.9011 H       
  38 H38            6.1632     1.8991    -3.1825 H       
  39 H39            8.2235     0.8996    -0.3425 H       
  40 H40            9.4604     2.1602    -0.1207 H       
  41 H41            7.9867     2.1739     0.8775 H       
  42 H42            7.7590     3.1300    -3.2865 H       
  43 H43            9.3274     2.7186    -2.5523 H       
  44 H44            8.0905     1.4579    -2.7742 H       
  45 H45            7.5213     4.5209     0.1583 H       
  46 H46            8.9950     4.5072    -0.8399 H       
  47 H47            7.4266     4.9187    -1.5741 H       
  48 H48            0.9516    -0.5186    -0.0102 H       
  49 H49           -1.0940    -1.7975     0.0025 H       
  50 H50           -3.0175    -0.3043    -0.8503 H       
  51 H51           -3.0007    -0.3138     0.9085 H       
  52 H52           -1.1178     3.2449     0.0358 H       
@<TRIPOS>BOND
   1    1   20 1
   2    1    2 1
   3    1   24 2
   4    2    3 1
   5    2    4 1
   6    2   26 1
   7    3    5 1
   8    3    6 1
   9    3   27 1
  10    4    7 1
  11    4   28 1
  12    5    8 1
  13    5   29 1
  14    5   30 1
  15    6    9 1
  16    6   10 1
  17    6   31 1
  18    7    9 ar
  19    7   11 ar
  20    8   12 1
  21    8   32 1
  22    8   33 1
  23    9   13 ar
  24   10   12 1
  25   11   14 ar
  26   11   34 1
  27   12   35 1
  28   12   36 1
  29   13   15 ar
  30   13   37 1
  31   14   15 ar
  32   14   38 1
  33   15   16 1
  34   16   17 1
  35   16   18 1
  36   16   19 1
  37   17   39 1
  38   17   40 1
  39   17   41 1
  40   18   42 1
  41   18   43 1
  42   18   44 1
  43   19   45 1
  44   19   46 1
  45   19   47 1
  46   20   21 2
  47   20   48 1
  48   21   22 1
  49   21   49 1
  50   22   23 1
  51   22   50 1
  52   22   51 1
  53   23   24 1
  54   23   25 2
  55   24   52 1

#	End of record

