#	Name: ASD01680004
#	Creating user name:	WinNT
#	Creation time:	15. 06. 2019 19:22

#	Modifying user name:	WinNT
#	Modification time:	15. 06. 2019 19:22

#	Program:	/corina/corina34_cracker 3.40 0067  02.08.2006

@<TRIPOS>MOLECULE
ASD01680004
  87   91    0    0    0
SMALL
NO_CHARGES


@<TRIPOS>ATOM
   1 C1            -0.0346     1.3534    -0.0813 C.ar    
   2 C2            -0.0219    -0.0338    -0.0986 C.ar    
   3 C3            -1.2116    -0.7391    -0.0850 C.ar    
   4 C4            -2.4189    -0.0675    -0.0537 C.ar    
   5 C5            -2.4438     1.3207    -0.0361 C.ar    
   6 C6            -1.2489     2.0360    -0.0438 C.ar    
   7 N7             1.1706     2.0662    -0.0957 N.pl3   
   8 S8            -1.2727     3.7977    -0.0211 S.3     
   9 C9            -1.2533     4.1832     1.7513 C.3     
  10 C10           -1.2714     5.7010     1.9433 C.3     
  11 N11           -1.2557     6.0132     3.3787 N.3     
  12 N12           -3.6683     2.0002    -0.0048 N.am    
  13 C13           -4.7600     1.3986     0.5077 C.2     
  14 C14           -6.0284     2.1481     0.6298 C.ar    
  15 O15           -4.7017     0.2394     0.8696 O.2     
  16 C16           -7.1577     1.5278     1.1593 C.ar    
  17 C17           -8.3492     2.2415     1.2708 C.ar    
  18 C18           -8.4041     3.5728     0.8516 C.ar    
  19 C19           -7.2809     4.1816     0.3272 C.ar    
  20 C20           -6.0956     3.4821     0.2196 C.ar    
  21 C21           -9.5528     1.5911     1.8311 C.2     
  22 N22          -10.7045     2.2829     1.9383 N.am    
  23 O23           -9.5036     0.4322     2.1951 O.2     
  24 C24          -11.8740     1.6355     2.3571 C.ar    
  25 C25          -12.0148     0.2668     2.1740 C.ar    
  26 C26          -13.1686    -0.3732     2.5863 C.ar    
  27 C27          -14.1884     0.3450     3.1830 C.ar    
  28 C28          -14.0586     1.7138     3.3712 C.ar    
  29 C29          -12.8956     2.3632     2.9633 C.ar    
  30 S30          -12.7236     4.1008     3.1996 S.3     
  31 C31          -11.9659     4.2160     4.8437 C.3     
  32 C32          -11.7475     5.6871     5.2027 C.3     
  33 N33          -11.1340     5.7805     6.5341 N.3     
  34 C34            2.4465     1.3471    -0.1290 C.3     
  35 C35            2.7961     1.0100    -1.5556 C.2     
  36 C36            3.5443     2.2281     0.4706 C.3     
  37 O37            3.9303     0.3466    -1.8299 O.3     
  38 O38            2.0554     1.3369    -2.4525 O.2     
  39 C39            3.2575     2.4638     1.9312 C.ar    
  40 C40            2.5946     3.5850     2.3259 C.ar    
  41 C41            2.3204     3.8200     3.6720 C.ar    
  42 C42            2.7076     2.9352     4.6309 C.ar    
  43 C43            3.3939     1.7658     4.2615 C.ar    
  44 C44            3.6680     1.5242     2.8923 C.ar    
  45 C45            3.8095     0.8289     5.2231 C.ar    
  46 C46            4.4720    -0.2925     4.8284 C.ar    
  47 C47            4.7462    -0.5275     3.4823 C.ar    
  48 C48            4.3544     0.3548     2.5229 C.ar    
  49 N49          -15.0926     2.4400     3.9748 N.pl3   
  50 H50            0.9187    -0.5639    -0.1231 H       
  51 H51           -1.1969    -1.8189    -0.0993 H       
  52 H52           -3.3448    -0.6234    -0.0431 H       
  53 H53            1.1606     3.0360    -0.0835 H       
  54 H54           -2.1308     3.7462     2.2278 H       
  55 H55           -0.3512     3.7706     2.2031 H       
  56 H56           -0.3939     6.1380     1.4668 H       
  57 H57           -2.1735     6.1137     1.4916 H       
  58 H58           -0.4620     5.5867     3.8329 H       
  59 H59           -1.2672     7.0104     3.5320 H       
  60 H60           -3.7306     2.9038    -0.3520 H       
  61 H61           -7.1100     0.4981     1.4816 H       
  62 H62           -9.3269     4.1272     0.9375 H       
  63 H63           -7.3289     5.2110     0.0039 H       
  64 H64           -5.2209     3.9641    -0.1914 H       
  65 H65          -10.7235     3.2291     1.7254 H       
  66 H66          -11.2216    -0.2991     1.7081 H       
  67 H67          -13.2741    -1.4382     2.4415 H       
  68 H68          -15.0877    -0.1602     3.5029 H       
  69 H69          -12.6247     3.7562     5.5804 H       
  70 H70          -11.0075     3.6969     4.8393 H       
  71 H71          -11.0887     6.1469     4.4660 H       
  72 H72          -12.7060     6.2062     5.2071 H       
  73 H73          -10.2750     5.2526     6.5742 H       
  74 H74          -10.9794     6.7430     6.7944 H       
  75 H75            2.3609     0.4281     0.4510 H       
  76 H76            4.5080     1.7299     0.3654 H       
  77 H77            3.5700     3.1836    -0.0534 H       
  78 H78            4.1117     0.1530    -2.7598 H       
  79 H79            2.2766     4.3035     1.5849 H       
  80 H80            1.7932     4.7180     3.9586 H       
  81 H81            2.4888     3.1310     5.6702 H       
  82 H82            3.6045     0.9981     6.2699 H       
  83 H83            4.7902    -1.0108     5.5694 H       
  84 H84            5.2742    -1.4250     3.1958 H       
  85 H85            4.5736     0.1593     1.4836 H       
  86 H86          -15.9005     1.9863     4.2618 H       
  87 H87          -15.0009     3.3967     4.1059 H       
@<TRIPOS>BOND
   1    1    2 ar
   2    1    7 1
   3    1    6 ar
   4    2    3 ar
   5    2   50 1
   6    3    4 ar
   7    3   51 1
   8    4    5 ar
   9    4   52 1
  10    5    6 ar
  11    5   12 1
  12    6    8 1
  13    7   34 1
  14    7   53 1
  15    8    9 1
  16    9   10 1
  17    9   54 1
  18    9   55 1
  19   10   11 1
  20   10   56 1
  21   10   57 1
  22   11   58 1
  23   11   59 1
  24   12   13 am
  25   12   60 1
  26   13   14 1
  27   13   15 2
  28   14   16 ar
  29   14   20 ar
  30   16   17 ar
  31   16   61 1
  32   17   18 ar
  33   17   21 1
  34   18   19 ar
  35   18   62 1
  36   19   20 ar
  37   19   63 1
  38   20   64 1
  39   21   22 am
  40   21   23 2
  41   22   24 1
  42   22   65 1
  43   24   25 ar
  44   24   29 ar
  45   25   26 ar
  46   25   66 1
  47   26   27 ar
  48   26   67 1
  49   27   28 ar
  50   27   68 1
  51   28   29 ar
  52   28   49 1
  53   29   30 1
  54   30   31 1
  55   31   32 1
  56   31   69 1
  57   31   70 1
  58   32   33 1
  59   32   71 1
  60   32   72 1
  61   33   73 1
  62   33   74 1
  63   34   35 1
  64   34   36 1
  65   34   75 1
  66   35   37 1
  67   35   38 2
  68   36   39 1
  69   36   76 1
  70   36   77 1
  71   37   78 1
  72   39   40 ar
  73   39   44 ar
  74   40   41 ar
  75   40   79 1
  76   41   42 ar
  77   41   80 1
  78   42   43 ar
  79   42   81 1
  80   43   44 ar
  81   43   45 ar
  82   44   48 ar
  83   45   46 ar
  84   45   82 1
  85   46   47 ar
  86   46   83 1
  87   47   48 ar
  88   47   84 1
  89   48   85 1
  90   49   86 1
  91   49   87 1

#	End of record

