#	Name: ASD03740184
#	Creating user name:	WinNT
#	Creation time:	15. 06. 2019 20:46

#	Modifying user name:	WinNT
#	Modification time:	15. 06. 2019 20:46

#	Program:	/corina/corina34_cracker 3.40 0067  02.08.2006

@<TRIPOS>MOLECULE
ASD03740184
  68   72    0    0    0
SMALL
NO_CHARGES


@<TRIPOS>ATOM
   1 C1            -0.0266     1.4539    -0.6610 C.ar    
   2 C2            -0.0113     0.0826    -0.9165 C.ar    
   3 C3            -1.1768    -0.6200    -1.0258 C.ar    
   4 C4            -2.3999     0.0300    -0.8824 C.ar    
   5 C5            -2.4268     1.4134    -0.6239 C.ar    
   6 C6            -1.2260     2.1213    -0.5089 C.ar    
   7 N7            -3.7067    -0.3878    -0.9364 N.pl3   
   8 N8            -4.5478     0.7078    -0.7168 N.2     
   9 C9            -3.8379     1.7867    -0.5286 C.2     
  10 O10           -4.3228     3.0335    -0.2869 O.3     
  11 C11           -4.1494    -1.7619    -1.1854 C.3     
  12 C12           -4.2755    -2.4943     0.1256 C.ar    
  13 C13           -5.4745    -2.4782     0.8136 C.ar    
  14 C14           -5.5907    -3.1497     2.0160 C.ar    
  15 C15           -4.5068    -3.8382     2.5311 C.ar    
  16 C16           -3.3071    -3.8540     1.8422 C.ar    
  17 C17           -3.1938    -3.1867     0.6371 C.ar    
  18 C18           -5.7435     3.1780    -0.2341 C.3     
  19 C19           -6.0973     4.6401     0.0455 C.3     
  20 Cl20          -4.6519    -4.6814     4.0416 Cl      
  21 C21           -7.6184     4.7948     0.1020 C.3     
  22 N22           -7.9613     6.2171     0.2345 N.3     
  23 C23           -7.2989     6.8142     1.4136 C.3     
  24 C24           -9.4180     6.3988     0.3722 C.3     
  25 C25           -9.6606     7.1663     1.6888 C.3     
  26 C26           -8.3017     7.8724     1.9371 C.3     
  27 C27           -5.9845     7.4822     1.0048 C.3     
  28 N28            1.1797     2.1557    -0.5526 N.3     
  29 C29            2.3283     1.2602    -0.7404 C.3     
  30 C30            3.6193     2.0817    -0.7606 C.3     
  31 C31            3.7538     2.8446     0.5602 C.3     
  32 C32            2.5222     3.7333     0.7548 C.3     
  33 C33            1.2630     2.8639     0.7311 C.3     
  34 H34            0.9332    -0.4290    -1.0295 H       
  35 H35           -1.1502    -1.6813    -1.2242 H       
  36 H36           -1.2368     3.1828    -0.3103 H       
  37 H37           -5.1167    -1.7466    -1.6875 H       
  38 H38           -3.4203    -2.2698    -1.8167 H       
  39 H39           -6.3204    -1.9404     0.4115 H       
  40 H40           -6.5274    -3.1367     2.5535 H       
  41 H41           -2.4607    -4.3912     2.2438 H       
  42 H42           -2.2573    -3.1990     0.0992 H       
  43 H43           -6.1751     2.8758    -1.1883 H       
  44 H44           -6.1434     2.5490     0.5611 H       
  45 H45           -5.6657     4.9423     0.9996 H       
  46 H46           -5.6974     5.2691    -0.7498 H       
  47 H47           -8.0582     4.3988    -0.8134 H       
  48 H48           -8.0079     4.2458     0.9592 H       
  49 H49           -7.1170     6.0532     2.1725 H       
  50 H50           -9.8009     6.9760    -0.4694 H       
  51 H51           -9.9107     5.4274     0.4131 H       
  52 H52          -10.4587     7.8985     1.5667 H       
  53 H53           -9.8902     6.4761     2.5006 H       
  54 H54           -8.1491     8.0631     2.9994 H       
  55 H55           -8.2306     8.7957     1.3622 H       
  56 H56           -6.1871     8.2669     0.2759 H       
  57 H57           -5.5091     7.9169     1.8840 H       
  58 H58           -5.3210     6.7387     0.5632 H       
  59 H59            2.3672     0.5426     0.0791 H       
  60 H60            2.2224     0.7269    -1.6851 H       
  61 H61            4.4729     1.4151    -0.8843 H       
  62 H62            3.5870     2.7900    -1.5884 H       
  63 H63            3.8253     2.1354     1.3848 H       
  64 H64            4.6498     3.4646     0.5331 H       
  65 H65            2.5919     4.2468     1.7138 H       
  66 H66            2.4726     4.4677    -0.0491 H       
  67 H67            0.3832     3.4955     0.8551 H       
  68 H68            1.3068     2.1389     1.5437 H       
@<TRIPOS>BOND
   1    1    2 ar
   2    1   28 1
   3    1    6 ar
   4    2    3 ar
   5    2   34 1
   6    3    4 ar
   7    3   35 1
   8    4    5 ar
   9    4    7 1
  10    5    6 ar
  11    5    9 1
  12    6   36 1
  13    7    8 1
  14    7   11 1
  15    8    9 2
  16    9   10 1
  17   10   18 1
  18   11   12 1
  19   11   37 1
  20   11   38 1
  21   12   13 ar
  22   12   17 ar
  23   13   14 ar
  24   13   39 1
  25   14   15 ar
  26   14   40 1
  27   15   16 ar
  28   15   20 1
  29   16   17 ar
  30   16   41 1
  31   17   42 1
  32   18   19 1
  33   18   43 1
  34   18   44 1
  35   19   21 1
  36   19   45 1
  37   19   46 1
  38   21   22 1
  39   21   47 1
  40   21   48 1
  41   22   24 1
  42   22   23 1
  43   23   27 1
  44   23   26 1
  45   23   49 1
  46   24   25 1
  47   24   50 1
  48   24   51 1
  49   25   26 1
  50   25   52 1
  51   25   53 1
  52   26   54 1
  53   26   55 1
  54   27   56 1
  55   27   57 1
  56   27   58 1
  57   28   29 1
  58   28   33 1
  59   29   30 1
  60   29   59 1
  61   29   60 1
  62   30   31 1
  63   30   61 1
  64   30   62 1
  65   31   32 1
  66   31   63 1
  67   31   64 1
  68   32   33 1
  69   32   65 1
  70   32   66 1
  71   33   67 1
  72   33   68 1

#	End of record

