#	Name: ASD01230821
#	Creating user name:	WinNT
#	Creation time:	15. 06. 2019 19:15

#	Modifying user name:	WinNT
#	Modification time:	15. 06. 2019 19:15

#	Program:	/corina/corina34_cracker 3.40 0067  02.08.2006

@<TRIPOS>MOLECULE
ASD01230821
  33   35    0    0    0
SMALL
NO_CHARGES


@<TRIPOS>ATOM
   1 C1            -0.0166     1.3736     0.0096 C.2     
   2 C2             0.0021    -0.0041     0.0020 C.2     
   3 C3            -1.2146    -0.7002     0.0083 C.2     
   4 C4            -2.3849    -0.0394     0.0110 C.2     
   5 N5            -2.4622     1.3312     0.0018 N.pl3   
   6 C6            -1.3174     2.0757     0.0320 C.2     
   7 C7            -3.8098     1.9045    -0.0478 C.3     
   8 C8            -3.8778     3.1900     0.7817 C.3     
   9 S9            -2.6219     4.3261     0.1135 S.o2    
  10 N10           -1.2618     3.3846     0.0820 N.am    
  11 C11            1.2499     2.1409     0.0016 C.ar    
  12 O12           -2.8873     4.6257    -1.2500 O.2     
  13 O13           -2.3207     5.3519     1.0496 O.2     
  14 C14            2.1113     2.0788    -1.1005 C.ar    
  15 C15            3.2811     2.8130    -1.0615 C.ar    
  16 C16            3.5628     3.5828     0.0609 C.ar    
  17 N17            2.7280     3.6204     1.0867 N.ar    
  18 C18            1.5994     2.9402     1.0887 C.ar    
  19 O19            4.7102     4.3056     0.1054 O.3     
  20 C20            4.9454     5.0774     1.2848 C.3     
  21 H21            0.9399    -0.5395    -0.0090 H       
  22 H22           -1.2115    -1.7802     0.0107 H       
  23 H23           -3.3019    -0.6099     0.0204 H       
  24 H24           -4.0666     2.1304    -1.0828 H       
  25 H25           -4.5228     1.1820     0.3495 H       
  26 H26           -4.8679     3.6372     0.6933 H       
  27 H27           -3.6607     2.9695     1.8269 H       
  28 H28            1.8674     1.4718    -1.9598 H       
  29 H29            3.9691     2.7886    -1.8936 H       
  30 H30            0.9430     2.9957     1.9445 H       
  31 H31            4.1391     5.7997     1.4131 H       
  32 H32            4.9820     4.4162     2.1505 H       
  33 H33            5.8943     5.6053     1.1903 H       
@<TRIPOS>BOND
   1    1    2 2
   2    1   11 1
   3    1    6 1
   4    2    3 1
   5    2   21 1
   6    3    4 2
   7    3   22 1
   8    4    5 1
   9    4   23 1
  10    5    6 1
  11    5    7 1
  12    6   10 2
  13    7    8 1
  14    7   24 1
  15    7   25 1
  16    8    9 1
  17    8   26 1
  18    8   27 1
  19    9   10 am
  20    9   12 2
  21    9   13 2
  22   11   14 ar
  23   11   18 ar
  24   14   15 ar
  25   14   28 1
  26   15   16 ar
  27   15   29 1
  28   16   17 ar
  29   16   19 1
  30   17   18 ar
  31   18   30 1
  32   19   20 1
  33   20   31 1
  34   20   32 1
  35   20   33 1

#	End of record

