#	Name: ASD01001266
#	Creating user name:	WinNT
#	Creation time:	15. 06. 2019 18:55

#	Modifying user name:	WinNT
#	Modification time:	15. 06. 2019 18:55

#	Program:	/corina/corina34_cracker 3.40 0067  02.08.2006

@<TRIPOS>MOLECULE
ASD01001266
  68   71    0    0    0
SMALL
NO_CHARGES


@<TRIPOS>ATOM
   1 C1             0.3641     1.9597    -3.7103 C.ar    
   2 C2             0.0697     0.6632    -3.3137 C.ar    
   3 C3             0.9677    -0.0632    -2.5838 C.ar    
   4 C4             2.1963     0.5006    -2.2311 C.ar    
   5 C5             2.4952     1.8137    -2.6330 C.ar    
   6 C6             1.5704     2.5366    -3.3736 C.ar    
   7 N7             3.2684     0.0473    -1.5319 N.2     
   8 C8             4.1807     0.9736    -1.4808 C.2     
   9 N9             3.7574     2.0840    -2.1431 N.pl3   
  10 C10            4.5026     3.3346    -2.3062 C.3     
  11 C11            5.3310     3.2655    -3.5632 C.ar    
  12 C12            4.8002     3.6949    -4.7652 C.ar    
  13 C13            5.5600     3.6315    -5.9183 C.ar    
  14 C14            6.8508     3.1390    -5.8692 C.ar    
  15 C15            7.3819     2.7105    -4.6671 C.ar    
  16 C16            6.6235     2.7780    -3.5132 C.ar    
  17 C17            5.5124     0.8364    -0.7889 C.3     
  18 C18            5.2893     0.6358     0.7114 C.3     
  19 N19            6.2296    -0.3185    -1.3347 N.am    
  20 C20            6.6397     0.6212     1.4304 C.3     
  21 C21            5.5856    -1.6340    -1.3636 C.3     
  22 C22            5.0451    -1.9064    -2.7688 C.3     
  23 C23            4.3186    -3.2528    -2.7836 C.3     
  24 N24            3.7996    -3.5144    -4.1328 N.3     
  25 C25            3.3058    -4.8931    -4.2488 C.3     
  26 C26            2.7524    -2.5483    -4.4905 C.3     
  27 C27            7.4821    -0.1708    -1.8102 C.2     
  28 C28            8.1491    -1.2964    -2.4977 C.ar    
  29 O29            8.0631     0.8882    -1.6737 O.2     
  30 C30            8.5484    -1.1668    -3.8291 C.ar    
  31 C31            9.1703    -2.2206    -4.4652 C.ar    
  32 C32            9.3984    -3.4057    -3.7860 C.ar    
  33 C33            9.0042    -3.5404    -2.4654 C.ar    
  34 C34            8.3874    -2.4914    -1.8165 C.ar    
  35 Br35          10.2512    -4.8460    -4.6658 Br      
  36 H36           -0.3547     2.5193    -4.2904 H       
  37 H37           -0.8791     0.2239    -3.5844 H       
  38 H38            0.7280    -1.0714    -2.2797 H       
  39 H39            1.7948     3.5461    -3.6851 H       
  40 H40            3.8033     4.1677    -2.3773 H       
  41 H41            5.1573     3.4821    -1.4473 H       
  42 H42            3.7918     4.0796    -4.8035 H       
  43 H43            5.1451     3.9663    -6.8575 H       
  44 H44            7.4442     3.0888    -6.7702 H       
  45 H45            8.3902     2.3255    -4.6288 H       
  46 H46            7.0385     2.4432    -2.5740 H       
  47 H47            6.1009     1.7395    -0.9511 H       
  48 H48            4.6794     1.4512     1.1003 H       
  49 H49            4.7781    -0.3122     0.8791 H       
  50 H50            7.1509     1.5693     1.2627 H       
  51 H51            6.4808     0.4783     2.4992 H       
  52 H52            7.2496    -0.1942     1.0415 H       
  53 H53            6.3136    -2.4009    -1.0994 H       
  54 H54            4.7633    -1.6518    -0.6483 H       
  55 H55            4.3500    -1.1154    -3.0504 H       
  56 H56            5.8726    -1.9323    -3.4777 H       
  57 H57            5.0136    -4.0439    -2.5020 H       
  58 H58            3.4910    -3.2270    -2.0747 H       
  59 H59            2.5035    -5.0534    -3.5286 H       
  60 H60            2.9274    -5.0598    -5.2573 H       
  61 H61            4.1201    -5.5889    -4.0466 H       
  62 H62            3.1643    -1.5395    -4.4640 H       
  63 H63            2.3857    -2.7648    -5.4939 H       
  64 H64            1.9301    -2.6238    -3.7790 H       
  65 H65            8.3704    -0.2433    -4.3600 H       
  66 H66            9.4797    -2.1216    -5.4951 H       
  67 H67            9.1842    -4.4674    -1.9412 H       
  68 H68            8.0807    -2.5976    -0.7864 H       
@<TRIPOS>BOND
   1    1    2 ar
   2    1    6 ar
   3    1   36 1
   4    2    3 ar
   5    2   37 1
   6    3    4 ar
   7    3   38 1
   8    4    5 ar
   9    4    7 1
  10    5    6 ar
  11    5    9 1
  12    6   39 1
  13    7    8 2
  14    8    9 1
  15    8   17 1
  16    9   10 1
  17   10   11 1
  18   10   40 1
  19   10   41 1
  20   11   12 ar
  21   11   16 ar
  22   12   13 ar
  23   12   42 1
  24   13   14 ar
  25   13   43 1
  26   14   15 ar
  27   14   44 1
  28   15   16 ar
  29   15   45 1
  30   16   46 1
  31   17   18 1
  32   17   19 1
  33   17   47 1
  34   18   20 1
  35   18   48 1
  36   18   49 1
  37   19   21 1
  38   19   27 am
  39   20   50 1
  40   20   51 1
  41   20   52 1
  42   21   22 1
  43   21   53 1
  44   21   54 1
  45   22   23 1
  46   22   55 1
  47   22   56 1
  48   23   24 1
  49   23   57 1
  50   23   58 1
  51   24   25 1
  52   24   26 1
  53   25   59 1
  54   25   60 1
  55   25   61 1
  56   26   62 1
  57   26   63 1
  58   26   64 1
  59   27   28 1
  60   27   29 2
  61   28   30 ar
  62   28   34 ar
  63   30   31 ar
  64   30   65 1
  65   31   32 ar
  66   31   66 1
  67   32   33 ar
  68   32   35 1
  69   33   34 ar
  70   33   67 1
  71   34   68 1

#	End of record

