#	Name: ASD04220037
#	Creating user name:	WinNT
#	Creation time:	15. 06. 2019 20:48

#	Modifying user name:	WinNT
#	Modification time:	15. 06. 2019 20:48

#	Program:	/corina/corina34_cracker 3.40 0067  02.08.2006

@<TRIPOS>MOLECULE
ASD04220037
  50   52    0    0    0
SMALL
NO_CHARGES


@<TRIPOS>ATOM
   1 O1            -0.4110     1.7169     0.8702 O.3     
   2 C2            -0.2963     0.3056     0.6834 C.3     
   3 C3             0.6151    -0.2550     1.7827 C.3     
   4 C4             2.0171     0.3274     1.5874 C.3     
   5 C5             1.9247     1.8199     1.3935 C.ar    
   6 C6             3.0700     2.5885     1.5692 C.ar    
   7 C7             3.0227     3.9619     1.3962 C.ar    
   8 C8             1.8281     4.5731     1.0457 C.ar    
   9 C9             0.6865     3.8086     0.8716 C.ar    
  10 C10            0.7323     2.4293     1.0467 C.ar    
  11 C11           -1.6586    -0.3315     0.7794 C.ar    
  12 C12           -1.9673    -1.4221    -0.0121 C.ar    
  13 C13           -3.2194    -2.0091     0.0750 C.ar    
  14 C14           -4.1638    -1.4984     0.9602 C.ar    
  15 C15           -3.8480    -0.4050     1.7507 C.ar    
  16 C16           -2.5950     0.1724     1.6630 C.ar    
  17 O17            4.2406     1.9897     1.9126 O.3     
  18 S18            5.0871     1.5577     0.7238 S.o2    
  19 O19            6.0917     0.6388     1.2360 O.co2   
  20 O20            4.1871     0.9124    -0.2195 O.co2   
  21 O21            5.6822     2.7649     0.1719 O.co2   
  22 O22            0.1110     0.1226     3.0655 O.3     
  23 S23            0.3169    -0.9295     4.1458 S.o2    
  24 O24           -0.5458    -0.5629     5.2582 O.co2   
  25 O25           -0.0579    -2.2084     3.5626 O.co2   
  26 O26            1.7247    -0.8871     4.5097 O.co2   
  27 O27            1.7776     5.9202     0.8739 O.3     
  28 S28            2.0675     6.3740    -0.5497 S.o2    
  29 O29            2.3296     7.8036    -0.4890 O.co2   
  30 O30            3.2298     5.6244    -1.0004 O.co2   
  31 O31            0.8826     6.0692    -1.3365 O.co2   
  32 O32           -5.3943    -2.0707     1.0490 O.3     
  33 S33           -6.4494    -1.4092     0.1741 S.o2    
  34 O34           -7.7401    -1.9053     0.6258 O.co2   
  35 O35           -6.3172     0.0261     0.3704 O.co2   
  36 O36           -6.1632    -1.8013    -1.1972 O.co2   
  37 O37           -3.5248    -3.0817    -0.7032 O.3     
  38 S38           -3.1017    -4.4178    -0.1096 S.o2    
  39 O39           -3.2010    -5.4012    -1.1768 O.co2   
  40 O40           -1.7336    -4.2549     0.3572 O.co2   
  41 O41           -4.0207    -4.7018     0.9817 O.co2   
  42 H42            0.1382     0.0988    -0.2947 H       
  43 H43            0.6549    -1.3417     1.7083 H       
  44 H44            2.6247     0.1129     2.4665 H       
  45 H45            2.4785    -0.1245     0.7093 H       
  46 H46            3.9143     4.5557     1.5342 H       
  47 H47           -0.2434     4.2853     0.5988 H       
  48 H48           -1.2326    -1.8163    -0.6985 H       
  49 H49           -4.5792    -0.0067     2.4385 H       
  50 H50           -2.3500     1.0245     2.2796 H       
@<TRIPOS>BOND
   1    1    2 1
   2    1   10 1
   3    2    3 1
   4    2   11 1
   5    2   42 1
   6    3    4 1
   7    3   22 1
   8    3   43 1
   9    4    5 1
  10    4   44 1
  11    4   45 1
  12    5    6 ar
  13    5   10 ar
  14    6    7 ar
  15    6   17 1
  16    7    8 ar
  17    7   46 1
  18    8    9 ar
  19    8   27 1
  20    9   10 ar
  21    9   47 1
  22   11   12 ar
  23   11   16 ar
  24   12   13 ar
  25   12   48 1
  26   13   14 ar
  27   13   37 1
  28   14   15 ar
  29   14   32 1
  30   15   16 ar
  31   15   49 1
  32   16   50 1
  33   17   18 1
  34   18   19 ar
  35   18   20 ar
  36   18   21 ar
  37   22   23 1
  38   23   24 ar
  39   23   25 ar
  40   23   26 ar
  41   27   28 1
  42   28   29 ar
  43   28   30 ar
  44   28   31 ar
  45   32   33 1
  46   33   34 ar
  47   33   35 ar
  48   33   36 ar
  49   37   38 1
  50   38   39 ar
  51   38   40 ar
  52   38   41 ar

#	End of record

