#	Name: ASD03331840
#	Creating user name:	WinNT
#	Creation time:	15. 06. 2019 20:40

#	Modifying user name:	WinNT
#	Modification time:	15. 06. 2019 20:40

#	Program:	/corina/corina34_cracker 3.40 0067  02.08.2006

@<TRIPOS>MOLECULE
ASD03331840
  73   77    0    0    0
SMALL
NO_CHARGES


@<TRIPOS>ATOM
   1 C1             0.6162     1.7129     0.1286 C.3     
   2 N2             0.9513     0.2905     0.2952 N.am    
   3 C3             1.3009    -0.4847    -0.9105 C.3     
   4 C4             2.2120     0.3840    -1.7427 C.2     
   5 N5             2.4362     1.7004    -1.5025 N.pl3   
   6 C6             1.8430     2.4633    -0.4018 C.3     
   7 C7             2.9431     0.0389    -2.8330 C.2     
   8 N8             3.6000     1.1442    -3.2517 N.2     
   9 C9             3.2987     2.1464    -2.4584 C.2     
  10 C10            3.8097     3.5294    -2.5824 C.ar    
  11 C11            3.0095    -1.2983    -3.4487 C.2     
  12 O12            2.3686    -2.2177    -2.9764 O.2     
  13 N13            3.7805    -1.5025    -4.5351 N.am    
  14 C14            4.4289     3.9442    -3.7618 C.ar    
  15 C15            4.9034     5.2352    -3.8711 C.ar    
  16 C16            4.7663     6.1175    -2.8144 C.ar    
  17 C17            4.1537     5.7121    -1.6421 C.ar    
  18 C18            3.6694     4.4257    -1.5225 C.ar    
  19 C19            3.8464    -2.8319    -5.1472 C.3     
  20 C20            3.1538    -2.8221    -6.5441 C.3     
  21 C21            3.7511    -1.5766    -7.2673 C.3     
  22 C22            5.2189    -1.9621    -7.5616 C.3     
  23 C23            5.3142    -3.2174    -5.4414 C.3     
  24 C24            5.3701    -3.4043    -6.9884 C.3     
  25 C25            3.9352    -3.9777    -7.2634 C.3     
  26 C26            1.6270    -2.9215    -6.5344 C.3     
  27 C27            6.2582    -2.0951    -5.0053 C.3     
  28 C28            5.6745    -4.5247    -4.7328 C.3     
  29 C29            0.9397    -0.2873     1.5128 C.2     
  30 O30            1.2196    -1.4640     1.6295 O.2     
  31 O31            0.6181     0.4392     2.5997 O.3     
  32 C32            0.6262    -0.2486     3.8784 C.3     
  33 C33            2.0270    -0.7998     4.1521 C.3     
  34 C34            0.2382     0.7316     4.9873 C.3     
  35 C35           -0.3779    -1.4025     3.8433 C.3     
  36 H36           -0.2058     1.8125    -0.5803 H       
  37 H37            0.3209     2.1323     1.0904 H       
  38 H38            1.8179    -1.4013    -0.6266 H       
  39 H39            0.3988    -0.7242    -1.4734 H       
  40 H40            1.5407     3.4467    -0.7618 H       
  41 H41            2.5745     2.5768     0.3984 H       
  42 H42            4.2916    -0.7692    -4.9118 H       
  43 H43            4.5368     3.2562    -4.5873 H       
  44 H44            5.3832     5.5575    -4.7835 H       
  45 H45            5.1394     7.1270    -2.9049 H       
  46 H46            4.0503     6.4054    -0.8205 H       
  47 H47            3.1914     4.1104    -0.6068 H       
  48 H48            3.3802    -3.5722    -4.4970 H       
  49 H49            3.2153    -1.3836    -8.1967 H       
  50 H50            3.7109    -0.7034    -6.6161 H       
  51 H51            5.4047    -1.9587    -8.6356 H       
  52 H52            5.9002    -1.2786    -7.0550 H       
  53 H53            6.2126    -3.9822    -7.3684 H       
  54 H54            3.7797    -4.9408    -6.7772 H       
  55 H55            3.7099    -4.0220    -8.3290 H       
  56 H56            1.2115    -2.0775    -5.9839 H       
  57 H57            1.2553    -2.9055    -7.5589 H       
  58 H58            1.3266    -3.8523    -6.0533 H       
  59 H59            6.2509    -2.0162    -3.9182 H       
  60 H60            7.2691    -2.3175    -5.3466 H       
  61 H61            5.9270    -1.1522    -5.4403 H       
  62 H62            5.0205    -5.3218    -5.0863 H       
  63 H63            6.7112    -4.7820    -4.9503 H       
  64 H64            5.5487    -4.4016    -3.6572 H       
  65 H65            2.7424     0.0222     4.1772 H       
  66 H66            2.0331    -1.3161     5.1120 H       
  67 H67            2.3035    -1.4981     3.3622 H       
  68 H68           -0.7598     1.1242     4.7922 H       
  69 H69            0.2443     0.2152     5.9472 H       
  70 H70            0.9535     1.5536     5.0123 H       
  71 H71           -0.1015    -2.1008     3.0533 H       
  72 H72           -0.3718    -1.9188     4.8032 H       
  73 H73           -1.3759    -1.0098     3.6483 H       
@<TRIPOS>BOND
   1    1    2 1
   2    1    6 1
   3    1   36 1
   4    1   37 1
   5    2    3 1
   6    2   29 am
   7    3    4 1
   8    3   38 1
   9    3   39 1
  10    4    5 1
  11    4    7 2
  12    5    6 1
  13    5    9 1
  14    6   40 1
  15    6   41 1
  16    7    8 1
  17    7   11 1
  18    8    9 2
  19    9   10 1
  20   10   14 ar
  21   10   18 ar
  22   11   12 2
  23   11   13 am
  24   13   19 1
  25   13   42 1
  26   14   15 ar
  27   14   43 1
  28   15   16 ar
  29   15   44 1
  30   16   17 ar
  31   16   45 1
  32   17   18 ar
  33   17   46 1
  34   18   47 1
  35   19   20 1
  36   19   23 1
  37   19   48 1
  38   20   21 1
  39   20   25 1
  40   20   26 1
  41   21   22 1
  42   21   49 1
  43   21   50 1
  44   22   24 1
  45   22   51 1
  46   22   52 1
  47   23   24 1
  48   23   27 1
  49   23   28 1
  50   24   25 1
  51   24   53 1
  52   25   54 1
  53   25   55 1
  54   26   56 1
  55   26   57 1
  56   26   58 1
  57   27   59 1
  58   27   60 1
  59   27   61 1
  60   28   62 1
  61   28   63 1
  62   28   64 1
  63   29   30 2
  64   29   31 1
  65   31   32 1
  66   32   33 1
  67   32   34 1
  68   32   35 1
  69   33   65 1
  70   33   66 1
  71   33   67 1
  72   34   68 1
  73   34   69 1
  74   34   70 1
  75   35   71 1
  76   35   72 1
  77   35   73 1

#	End of record

