#	Name: ASD05143023
#	Creating user name:	WinNT
#	Creation time:	15. 06. 2019 20:57

#	Modifying user name:	WinNT
#	Modification time:	15. 06. 2019 20:57

#	Program:	/corina/corina34_cracker 3.40 0067  02.08.2006

@<TRIPOS>MOLECULE
ASD05143023
 145  148    0    0    0
SMALL
NO_CHARGES


@<TRIPOS>ATOM
   1 C1            -2.1086     5.3950     7.5310 C.2     
   2 C2            -1.6235     4.6567     8.7520 C.3     
   3 N3            -1.2206     5.9312     6.6706 N.am    
   4 O4            -3.2981     5.5023     7.3201 O.2     
   5 C5            -1.6922     6.6489     5.4837 C.3     
   6 C6            -2.5253     5.7049     4.6145 C.3     
   7 C7            -2.5401     7.8200     5.9087 C.2     
   8 C8            -1.6332     4.5823     4.0808 C.3     
   9 C9            -2.4663     3.6383     3.2115 C.3     
  10 N10           -1.6121     2.5634     2.7005 N.pl3   
  11 C11           -2.1444     1.5887     1.8901 C.2     
  12 N12           -1.3427     0.5800     1.4106 N.pl3   
  13 N13           -3.4091     1.6210     1.5764 N.2     
  14 O14           -3.0331     7.8413     7.0166 O.2     
  15 N15           -2.7504     8.8437     5.0577 N.am    
  16 C16           -3.5747     9.9822     5.4708 C.3     
  17 C17           -2.6719    11.1732     5.7983 C.3     
  18 C18           -1.5161    10.7090     6.6866 C.3     
  19 C19           -0.3747    10.2394     5.8221 C.2     
  20 O20           -0.5770     9.5090     4.8753 O.2     
  21 N21            0.8923    10.6519     6.1243 N.am    
  22 C22            1.9559    10.1404     5.2301 C.3     
  23 C23            2.1065    11.1007     4.0486 C.3     
  24 C24            2.7704    10.3701     2.8796 C.3     
  25 C25            3.7291    11.3215     2.1609 C.3     
  26 N26            3.6781    11.0442     0.7114 N.am    
  27 C27            5.1314    11.1034     2.6678 C.2     
  28 N28            5.5186    11.6521     3.8363 N.am    
  29 O29            5.9117    10.4342     2.0241 O.2     
  30 C30            2.8521    11.8321    -0.0298 C.2     
  31 O31            2.2080    12.7140     0.4978 O.2     
  32 C32            2.7485    11.5954    -1.5145 C.3     
  33 N33            1.5340    12.2780    -2.0168 N.am    
  34 C34            3.9845    12.1654    -2.2132 C.3     
  35 C35            0.4810    11.4583    -2.3101 C.2     
  36 O36            0.5726    10.2580    -2.1627 O.2     
  37 C37           -0.7966    12.0740    -2.8199 C.3     
  38 N38           -1.9235    11.1810    -2.4842 N.am    
  39 C39           -1.0083    13.4373    -2.1583 C.3     
  40 C40           -3.0283    11.7692    -1.9486 C.2     
  41 O41           -3.0579    12.9671    -1.7615 O.2     
  42 C42           -4.2142    10.9104    -1.5920 C.3     
  43 C43            3.9369    11.8197    -3.6793 C.2     
  44 C44            3.2390    12.5666    -4.7285 C.ar    
  45 C45            3.4773    11.8689    -5.9264 C.ar    
  46 N46            4.2624    10.7817    -5.6140 N.pl3   
  47 C47            4.5308    10.7720    -4.2723 C.2     
  48 C48            2.4622    13.7268    -4.7407 C.ar    
  49 C49            1.9368    14.1789    -5.9181 C.ar    
  50 C50            2.1687    13.4936    -7.1030 C.ar    
  51 C51            2.9328    12.3476    -7.1138 C.ar    
  52 N52           -4.8004    11.4119    -0.3281 N.am    
  53 C53           -3.7611     9.4606    -1.4079 C.3     
  54 C54           -4.9596     8.5917    -1.1258 C.ar    
  55 C55           -5.9885     8.5145    -2.0459 C.ar    
  56 C56           -7.0879     7.7176    -1.7886 C.ar    
  57 C57           -7.1586     6.9965    -0.6087 C.ar    
  58 C58           -6.1275     7.0746     0.3120 C.ar    
  59 C59           -5.0267     7.8681     0.0501 C.ar    
  60 C60           -4.5126    10.3558     4.3518 C.2     
  61 N61           -3.9952    10.8430     3.1907 N.am    
  62 O62           -5.7109    10.2239     4.4837 O.2     
  63 C63           -4.9626    11.1921     2.1311 C.3     
  64 C64           -5.1843    12.7058     2.1178 C.3     
  65 C65           -4.4074    10.7513     0.8013 C.2     
  66 C66           -5.8480    13.1356     3.4276 C.3     
  67 N67           -6.0609    14.5891     3.4148 N.3     
  68 O68           -3.6259     9.8262     0.7348 O.2     
  69 C69           -1.0189    13.2700    -0.6375 C.3     
  70 C70           -1.3773    14.6042     0.0199 C.3     
  71 N71           -1.3875    14.4440     1.4761 N.pl3   
  72 C72           -1.6851    15.5162     2.2835 C.2     
  73 N73           -1.9732    16.7388     1.7244 N.pl3   
  74 N74           -1.6942    15.3737     3.5791 N.2     
  75 F75           -8.2331     6.2175    -0.3559 F       
  76 H76           -0.5337     4.6602     8.7695 H       
  77 H77           -2.0029     5.1478     9.6481 H       
  78 H78           -1.9832     3.6282     8.7214 H       
  79 H79           -0.2692     5.8419     6.8373 H       
  80 H80           -0.8363     7.0083     4.9125 H       
  81 H81           -3.3303     5.2765     5.2117 H       
  82 H82           -2.9496     6.2605     3.7782 H       
  83 H83           -0.8283     5.0107     3.4836 H       
  84 H84           -1.2090     4.0267     4.9171 H       
  85 H85           -3.2713     3.2099     3.8088 H       
  86 H86           -2.8906     4.1939     2.3752 H       
  87 H87           -0.6709     2.5394     2.9340 H       
  88 H88           -0.4016     0.5560     1.6440 H       
  89 H89           -1.7183    -0.1077     0.8388 H       
  90 H90           -3.7847     0.9333     1.0046 H       
  91 H91           -2.3561     8.8266     4.1716 H       
  92 H92           -4.1527     9.7107     6.3541 H       
  93 H93           -2.2741    11.5924     4.8741 H       
  94 H94           -3.2502    11.9340     6.3226 H       
  95 H95           -1.1820    11.5379     7.3107 H       
  96 H96           -1.8524     9.8891     7.3213 H       
  97 H97            1.0818    11.2393     6.8725 H       
  98 H98            2.8971    10.0829     5.7769 H       
  99 H99            1.6817     9.1509     4.8644 H       
 100 H100           1.1231    11.4576     3.7427 H       
 101 H101           2.7245    11.9481     4.3455 H       
 102 H102           3.3256     9.5111     3.2564 H       
 103 H103           2.0050    10.0302     2.1819 H       
 104 H104           3.4278    12.3525     2.3464 H       
 105 H105           4.2056    10.3369     0.3084 H       
 106 H106           4.8946    12.1873     4.3512 H       
 107 H107           6.4212    11.5117     4.1626 H       
 108 H108           2.6746    10.5256    -1.7103 H       
 109 H109           1.4893    13.2403    -2.1301 H       
 110 H110           4.0009    13.2489    -2.0958 H       
 111 H111           4.8830    11.7380    -1.7681 H       
 112 H112          -0.7370    12.1962    -3.9014 H       
 113 H113          -1.8788    10.2242    -2.6372 H       
 114 H114          -0.1992    14.1094    -2.4442 H       
 115 H115          -1.9605    13.8555    -2.4845 H       
 116 H116          -4.9577    10.9653    -2.3871 H       
 117 H117           4.5809    10.1230    -6.2508 H       
 118 H118           5.1259    10.0275    -3.7644 H       
 119 H119           2.2770    14.2647    -3.8226 H       
 120 H120           1.3360    15.0763    -5.9270 H       
 121 H121           1.7463    13.8632    -8.0257 H       
 122 H122           3.1077    11.8218    -8.0409 H       
 123 H123          -5.4200    12.1578    -0.3038 H       
 124 H124          -3.2681     9.1158    -2.3168 H       
 125 H125          -3.0643     9.4012    -0.5717 H       
 126 H126          -5.9333     9.0773    -2.9660 H       
 127 H127          -7.8918     7.6577    -2.5073 H       
 128 H128          -6.1816     6.5126     1.2327 H       
 129 H129          -4.2222     7.9292     0.7682 H       
 130 H130          -3.0399    10.9555     3.0659 H       
 131 H131          -5.9093    10.6859     2.3197 H       
 132 H132          -4.2250    13.2127     2.0131 H       
 133 H133          -5.8288    12.9713     1.2797 H       
 134 H134          -6.8074    12.6288     3.5322 H       
 135 H135          -5.2036    12.8702     4.2656 H       
 136 H136          -6.6023    14.8681     2.6103 H       
 137 H137          -6.4985    14.8980     4.2699 H       
 138 H138          -1.7577    12.5181    -0.3599 H       
 139 H139          -0.0325    12.9520    -0.3000 H       
 140 H140          -0.6385    15.3561    -0.2578 H       
 141 H141          -2.3637    14.9222    -0.3176 H       
 142 H142          -1.1842    13.5815     1.8705 H       
 143 H143          -1.9664    16.8449     0.7603 H       
 144 H144          -2.1832    17.4953     2.2941 H       
 145 H145          -1.9042    16.1302     4.1488 H       
@<TRIPOS>BOND
   1    1    2 1
   2    1    3 am
   3    1    4 2
   4    2   76 1
   5    2   77 1
   6    2   78 1
   7    3    5 1
   8    3   79 1
   9    5    6 1
  10    5    7 1
  11    5   80 1
  12    6    8 1
  13    6   81 1
  14    6   82 1
  15    7   14 2
  16    7   15 am
  17    8    9 1
  18    8   83 1
  19    8   84 1
  20    9   10 1
  21    9   85 1
  22    9   86 1
  23   10   11 1
  24   10   87 1
  25   11   12 1
  26   11   13 2
  27   12   88 1
  28   12   89 1
  29   13   90 1
  30   15   16 1
  31   15   91 1
  32   16   17 1
  33   16   60 1
  34   16   92 1
  35   17   18 1
  36   17   93 1
  37   17   94 1
  38   18   19 1
  39   18   95 1
  40   18   96 1
  41   19   20 2
  42   19   21 am
  43   21   22 1
  44   21   97 1
  45   22   23 1
  46   22   98 1
  47   22   99 1
  48   23   24 1
  49   23  100 1
  50   23  101 1
  51   24   25 1
  52   24  102 1
  53   24  103 1
  54   25   26 1
  55   25   27 1
  56   25  104 1
  57   26   30 am
  58   26  105 1
  59   27   28 am
  60   27   29 2
  61   28  106 1
  62   28  107 1
  63   30   31 2
  64   30   32 1
  65   32   33 1
  66   32   34 1
  67   32  108 1
  68   33   35 am
  69   33  109 1
  70   34   43 1
  71   34  110 1
  72   34  111 1
  73   35   36 2
  74   35   37 1
  75   37   38 1
  76   37   39 1
  77   37  112 1
  78   38   40 am
  79   38  113 1
  80   39   69 1
  81   39  114 1
  82   39  115 1
  83   40   41 2
  84   40   42 1
  85   42   52 1
  86   42   53 1
  87   42  116 1
  88   43   44 1
  89   43   47 2
  90   44   45 ar
  91   44   48 ar
  92   45   46 1
  93   45   51 ar
  94   46   47 1
  95   46  117 1
  96   47  118 1
  97   48   49 ar
  98   48  119 1
  99   49   50 ar
 100   49  120 1
 101   50   51 ar
 102   50  121 1
 103   51  122 1
 104   52   65 am
 105   52  123 1
 106   53   54 1
 107   53  124 1
 108   53  125 1
 109   54   55 ar
 110   54   59 ar
 111   55   56 ar
 112   55  126 1
 113   56   57 ar
 114   56  127 1
 115   57   58 ar
 116   57   75 1
 117   58   59 ar
 118   58  128 1
 119   59  129 1
 120   60   61 am
 121   60   62 2
 122   61   63 1
 123   61  130 1
 124   63   64 1
 125   63   65 1
 126   63  131 1
 127   64   66 1
 128   64  132 1
 129   64  133 1
 130   65   68 2
 131   66   67 1
 132   66  134 1
 133   66  135 1
 134   67  136 1
 135   67  137 1
 136   69   70 1
 137   69  138 1
 138   69  139 1
 139   70   71 1
 140   70  140 1
 141   70  141 1
 142   71   72 1
 143   71  142 1
 144   72   73 1
 145   72   74 2
 146   73  143 1
 147   73  144 1
 148   74  145 1

#	End of record

