#	Name: ASD00311012
#	Creating user name:	WinNT
#	Creation time:	15. 06. 2019 18:34

#	Modifying user name:	WinNT
#	Modification time:	15. 06. 2019 18:34

#	Program:	/corina/corina34_cracker 3.40 0067  02.08.2006

@<TRIPOS>MOLECULE
ASD00311012
  32   34    0    0    0
SMALL
NO_CHARGES


@<TRIPOS>ATOM
   1 N1            -0.0158     1.3155     0.0093 N.ar    
   2 C2             0.0021    -0.0041     0.0020 C.ar    
   3 C3             1.1962    -0.7023    -0.0131 C.ar    
   4 C4             2.3900    -0.0027    -0.0208 C.ar    
   5 C5             2.3390     1.3968    -0.0128 C.ar    
   6 C6             1.0925     2.0260     0.0025 C.ar    
   7 C7             3.5161     3.6587    -0.0114 C.2     
   8 C8             3.5839     2.1946    -0.0199 C.2     
   9 C9             5.7773     6.6020    -0.0163 C.ar    
  10 C10            4.5834     5.8579    -0.0093 C.ar    
  11 C11            4.6516     4.3863    -0.0179 C.2     
  12 C12            5.7267     7.9642    -0.0085 C.ar    
  13 C13            4.4622     8.5856     0.0064 C.ar    
  14 C14            3.2943     7.7791     0.0133 C.ar    
  15 N15            3.4019     6.4503     0.0051 N.ar    
  16 O16            4.6646     1.6357    -0.0328 O.2     
  17 C17            2.0325     8.4031     0.0283 C.ar    
  18 C18            1.9514     9.7613     0.0359 C.ar    
  19 C19            3.1000    10.5504     0.0291 C.ar    
  20 C20            4.3384     9.9833     0.0155 C.ar    
  21 H21           -0.9310    -0.5479     0.0084 H       
  22 H22            1.1967    -1.7823    -0.0186 H       
  23 H23            3.3366    -0.5224    -0.0323 H       
  24 H24            1.0371     3.1046     0.0085 H       
  25 H25            2.5569     4.1548     0.0001 H       
  26 H26            6.7311     6.0956    -0.0233 H       
  27 H27            5.6108     3.8902    -0.0293 H       
  28 H28            6.6326     8.5520    -0.0133 H       
  29 H29            1.1325     7.8062     0.0333 H       
  30 H30            0.9811    10.2355     0.0470 H       
  31 H31            3.0070    11.6264     0.0354 H       
  32 H32            5.2206    10.6063     0.0103 H       
@<TRIPOS>BOND
   1    1    2 ar
   2    1    6 ar
   3    2    3 ar
   4    2   21 1
   5    3    4 ar
   6    3   22 1
   7    4    5 ar
   8    4   23 1
   9    5    6 ar
  10    5    8 1
  11    6   24 1
  12    7    8 1
  13    7   11 2
  14    7   25 1
  15    8   16 2
  16    9   10 ar
  17    9   12 ar
  18    9   26 1
  19   10   11 1
  20   10   15 ar
  21   11   27 1
  22   12   13 ar
  23   12   28 1
  24   13   14 ar
  25   13   20 ar
  26   14   15 ar
  27   14   17 ar
  28   17   18 ar
  29   17   29 1
  30   18   19 ar
  31   18   30 1
  32   19   20 ar
  33   19   31 1
  34   20   32 1

#	End of record

