#	Name: ASD01917011
#	Creating user name:	WinNT
#	Creation time:	15. 06. 2019 20:08

#	Modifying user name:	WinNT
#	Modification time:	15. 06. 2019 20:08

#	Program:	/corina/corina34_cracker 3.40 0067  02.08.2006

@<TRIPOS>MOLECULE
ASD01917011
  28   30    0    0    0
SMALL
NO_CHARGES


@<TRIPOS>ATOM
   1 C1            -0.0167     1.3813     0.0096 C.ar    
   2 C2             0.0021    -0.0041     0.0020 C.ar    
   3 C3            -1.1821    -0.7121     0.0095 C.ar    
   4 C4            -2.3981    -0.0319     0.0248 C.ar    
   5 C5            -2.4124     1.3614     0.0324 C.ar    
   6 C6            -1.2235     2.0616     0.0306 C.ar    
   7 C7            -3.6744    -0.7892     0.0324 C.2     
   8 N8            -4.8982    -0.2496     0.0469 N.2     
   9 C9            -5.8043    -1.2045     0.0500 C.2     
  10 N10           -5.1585    -2.3939     0.0372 N.pl3   
  11 N11           -3.7854    -2.1000     0.0203 N.2     
  12 C12           -7.2711    -1.0115     0.0648 C.ar    
  13 C13           -7.8075     0.2764     0.0767 C.ar    
  14 C14           -8.1225    -2.1168     0.0613 C.ar    
  15 C15           -9.4891    -1.9315     0.0752 C.ar    
  16 C16          -10.0169    -0.6502     0.0927 C.ar    
  17 C17           -9.1755     0.4510     0.0905 C.ar    
  18 F18          -11.3563    -0.4740     0.1063 F       
  19 F19            1.1451     2.0707     0.0022 F       
  20 H20            0.9450    -0.5305    -0.0102 H       
  21 H21           -1.1666    -1.7920     0.0032 H       
  22 H22           -3.3528     1.8925     0.0439 H       
  23 H23           -1.2337     3.1415     0.0365 H       
  24 H24           -5.5640    -3.2751     0.0362 H       
  25 H25           -7.1526     1.1352     0.0753 H       
  26 H26           -7.7122    -3.1157     0.0473 H       
  27 H27          -10.1491    -2.7864     0.0721 H       
  28 H28           -9.5917     1.4475     0.1046 H       
@<TRIPOS>BOND
   1    1    2 ar
   2    1   19 1
   3    1    6 ar
   4    2    3 ar
   5    2   20 1
   6    3    4 ar
   7    3   21 1
   8    4    5 ar
   9    4    7 1
  10    5    6 ar
  11    5   22 1
  12    6   23 1
  13    7    8 1
  14    7   11 2
  15    8    9 2
  16    9   10 1
  17    9   12 1
  18   10   11 1
  19   10   24 1
  20   12   13 ar
  21   12   14 ar
  22   13   17 ar
  23   13   25 1
  24   14   15 ar
  25   14   26 1
  26   15   16 ar
  27   15   27 1
  28   16   17 ar
  29   16   18 1
  30   17   28 1

#	End of record

