#	Name: ASD03330607
#	Creating user name:	WinNT
#	Creation time:	15. 06. 2019 20:37

#	Modifying user name:	WinNT
#	Modification time:	15. 06. 2019 20:37

#	Program:	/corina/corina34_cracker 3.40 0067  02.08.2006

@<TRIPOS>MOLECULE
ASD03330607
  64   66    0    0    0
SMALL
NO_CHARGES


@<TRIPOS>ATOM
   1 C1            -0.4824     1.7910    -0.5723 C.2     
   2 N2            -0.5767     0.4647    -0.8541 N.pl3   
   3 C3             0.8441     2.1001    -0.5365 C.2     
   4 N4             1.5379     0.9749    -0.8112 N.2     
   5 C5             0.6935    -0.0123    -1.0093 C.2     
   6 C6             1.0561    -1.4001    -1.3432 C.2     
   7 C7             1.4191     3.4265    -0.2499 C.2     
   8 O8             0.6869     4.3691    -0.0165 O.2     
   9 C9             3.3278     4.9133     0.0386 C.3     
  10 N10            2.7563     3.5948    -0.2464 N.am    
  11 C11            3.4476     5.1009     1.5523 C.3     
  12 C12            4.3155     3.9850     2.1375 C.3     
  13 C13            4.0917     6.4567     1.8487 C.3     
  14 C14            2.0552     5.0487     2.1843 C.3     
  15 C15            4.6938     5.0151    -0.5898 C.2     
  16 N16            5.2546     6.2240    -0.7911 N.am    
  17 O17            5.2884     4.0091    -0.9145 O.2     
  18 C18            6.5379     6.3290    -1.4899 C.3     
  19 C19           -1.8250    -0.2964    -0.9535 C.3     
  20 C20           -2.8202     0.4817    -1.8199 C.3     
  21 C21           -3.6136     1.4511    -0.9495 C.3     
  22 N22           -2.7920     1.9684     0.1466 N.3     
  23 C23           -1.6415     2.7304    -0.3614 C.3     
  24 C24           -3.5960     2.7812     1.0689 C.3     
  25 C25            1.0501    -3.7990    -0.6955 C.3     
  26 C26            1.3856    -4.0621    -2.1649 C.3     
  27 C27            2.4323    -3.0331    -2.6138 C.3     
  28 C28            1.7762    -1.6510    -2.6360 C.3     
  29 C29            0.7350    -2.3460    -0.4896 C.2     
  30 H30            2.6798     5.6869    -0.3733 H       
  31 H31            3.3402     2.8430    -0.4325 H       
  32 H32            5.3074     4.0222     1.6872 H       
  33 H33            4.4007     4.1187     3.2159 H       
  34 H34            3.8565     3.0192     1.9263 H       
  35 H35            3.4751     7.2515     1.4291 H       
  36 H36            4.1741     6.5917     2.9272 H       
  37 H37            5.0849     6.4927     1.4011 H       
  38 H38            1.5963     4.0829     1.9731 H       
  39 H39            2.1405     5.1824     3.2628 H       
  40 H40            1.4369     5.8437     1.7675 H       
  41 H41            4.8085     7.0245    -0.4732 H       
  42 H42            7.2978     5.7745    -0.9394 H       
  43 H43            6.4404     5.9137    -2.4930 H       
  44 H44            6.8302     7.3769    -1.5574 H       
  45 H45           -1.6251    -1.2660    -1.4097 H       
  46 H46           -2.2439    -0.4408     0.0424 H       
  47 H47           -2.2775     1.0403    -2.5825 H       
  48 H48           -3.5048    -0.2165    -2.3015 H       
  49 H49           -3.9567     2.2840    -1.5631 H       
  50 H50           -4.4785     0.9335    -0.5347 H       
  51 H51           -1.3631     3.4960     0.3627 H       
  52 H52           -1.9058     3.2014    -1.3082 H       
  53 H53           -4.3951     2.1706     1.4892 H       
  54 H54           -2.9613     3.1529     1.8733 H       
  55 H55           -4.0282     3.6234     0.5285 H       
  56 H56            0.1856    -4.3980    -0.4093 H       
  57 H57            1.9018    -4.0779    -0.0749 H       
  58 H58            1.7922    -5.0676    -2.2734 H       
  59 H59            0.4846    -3.9612    -2.7700 H       
  60 H60            3.2685    -3.0324    -1.9146 H       
  61 H61            2.7873    -3.2840    -3.6134 H       
  62 H62            1.0655    -1.6016    -3.4610 H       
  63 H63            2.5430    -0.8892    -2.7762 H       
  64 H64            0.2143    -2.0614     0.4128 H       
@<TRIPOS>BOND
   1    1    2 1
   2    1    3 2
   3    1   23 1
   4    2   19 1
   5    2    5 1
   6    3    4 1
   7    3    7 1
   8    4    5 2
   9    5    6 1
  10    6   29 2
  11    6   28 1
  12    7    8 2
  13    7   10 am
  14    9   10 1
  15    9   11 1
  16    9   15 1
  17    9   30 1
  18   10   31 1
  19   11   12 1
  20   11   13 1
  21   11   14 1
  22   12   32 1
  23   12   33 1
  24   12   34 1
  25   13   35 1
  26   13   36 1
  27   13   37 1
  28   14   38 1
  29   14   39 1
  30   14   40 1
  31   15   16 am
  32   15   17 2
  33   16   18 1
  34   16   41 1
  35   18   42 1
  36   18   43 1
  37   18   44 1
  38   19   20 1
  39   19   45 1
  40   19   46 1
  41   20   21 1
  42   20   47 1
  43   20   48 1
  44   21   22 1
  45   21   49 1
  46   21   50 1
  47   22   23 1
  48   22   24 1
  49   23   51 1
  50   23   52 1
  51   24   53 1
  52   24   54 1
  53   24   55 1
  54   25   26 1
  55   25   29 1
  56   25   56 1
  57   25   57 1
  58   26   27 1
  59   26   58 1
  60   26   59 1
  61   27   28 1
  62   27   60 1
  63   27   61 1
  64   28   62 1
  65   28   63 1
  66   29   64 1

#	End of record

