#	Name: ASD01150140
#	Creating user name:	WinNT
#	Creation time:	15. 06. 2019 19:03

#	Modifying user name:	WinNT
#	Modification time:	15. 06. 2019 19:03

#	Program:	/corina/corina34_cracker 3.40 0067  02.08.2006

@<TRIPOS>MOLECULE
ASD01150140
  44   45    0    0    0
SMALL
NO_CHARGES


@<TRIPOS>ATOM
   1 O1            -0.0161     1.3340     0.0094 O.3     
   2 C2             0.0021    -0.0041     0.0020 C.2     
   3 C3             1.4589    -0.4218    -0.0141 C.3     
   4 C4             2.1983     0.8975    -0.0141 C.ar    
   5 C5             1.2218     1.8843     0.0005 C.ar    
   6 C6             3.5348     1.2237    -0.0247 C.ar    
   7 C7             3.9203     2.5534    -0.0209 C.ar    
   8 C8             2.9583     3.5461    -0.0063 C.ar    
   9 C9             1.6177     3.2197     0.0039 C.ar    
  10 O10           -0.9579    -0.7378     0.0076 O.2     
  11 C11            1.7778    -1.2193    -1.2803 C.3     
  12 F12            1.4896    -0.4410    -2.4066 F       
  13 F13            3.1338    -1.5632    -1.2857 F       
  14 F14            1.0015    -2.3828    -1.3064 F       
  15 O15            1.7792    -1.1792     1.1545 O.3     
  16 C16            0.5788     4.3112     0.0192 C.3     
  17 C17            1.2721     5.6751     0.0200 C.3     
  18 C18           -0.3066     4.1899    -1.2226 C.3     
  19 C19           -0.2837     4.1768     1.2757 C.3     
  20 C20            5.3827     2.9172    -0.0319 C.3     
  21 C21            6.2258     1.6405    -0.0465 C.3     
  22 C22            5.6924     3.7471    -1.2794 C.3     
  23 C23            5.7147     3.7333     1.2189 C.3     
  24 H24            4.2819     0.4439    -0.0357 H       
  25 H25            3.2579     4.5837    -0.0029 H       
  26 H26            1.2777    -2.0017     1.2398 H       
  27 H27            1.8866     5.7709    -0.8752 H       
  28 H28            0.5207     6.4646     0.0310 H       
  29 H29            1.9029     5.7615     0.9047 H       
  30 H30           -0.8005     3.2182    -1.2232 H       
  31 H31           -1.0581     4.9794    -1.2116 H       
  32 H32            0.3078     4.2857    -2.1178 H       
  33 H33            0.3471     4.2632     2.1604 H       
  34 H34           -1.0351     4.9663     1.2868 H       
  35 H35           -0.7776     3.2051     1.2751 H       
  36 H36            5.9892     1.0590    -0.9376 H       
  37 H37            7.2835     1.9036    -0.0545 H       
  38 H38            6.0051     1.0492     0.8423 H       
  39 H39            5.0918     4.6566    -1.2691 H       
  40 H40            6.7501     4.0102    -1.2875 H       
  41 H41            5.4559     3.1656    -2.1706 H       
  42 H42            5.4941     3.1421     2.1076 H       
  43 H43            6.7725     3.9964     1.2109 H       
  44 H44            5.1141     4.6429     1.2293 H       
@<TRIPOS>BOND
   1    1    2 1
   2    1    5 1
   3    2    3 1
   4    2   10 2
   5    3    4 1
   6    3   11 1
   7    3   15 1
   8    4    5 ar
   9    4    6 ar
  10    5    9 ar
  11    6    7 ar
  12    6   24 1
  13    7    8 ar
  14    7   20 1
  15    8    9 ar
  16    8   25 1
  17    9   16 1
  18   11   12 1
  19   11   13 1
  20   11   14 1
  21   15   26 1
  22   16   17 1
  23   16   19 1
  24   16   18 1
  25   17   27 1
  26   17   28 1
  27   17   29 1
  28   18   30 1
  29   18   31 1
  30   18   32 1
  31   19   33 1
  32   19   34 1
  33   19   35 1
  34   20   21 1
  35   20   23 1
  36   20   22 1
  37   21   36 1
  38   21   37 1
  39   21   38 1
  40   22   39 1
  41   22   40 1
  42   22   41 1
  43   23   42 1
  44   23   43 1
  45   23   44 1

#	End of record

