#	Name: ASD01900643
#	Creating user name:	WinNT
#	Creation time:	15. 06. 2019 19:52

#	Modifying user name:	WinNT
#	Modification time:	15. 06. 2019 19:52

#	Program:	/corina/corina34_cracker 3.40 0067  02.08.2006

@<TRIPOS>MOLECULE
ASD01900643
  45   49    0    0    0
SMALL
NO_CHARGES


@<TRIPOS>ATOM
   1 C1            -0.0186     1.4181     0.1364 C.ar    
   2 C2            -0.0085     0.0183     0.1256 C.ar    
   3 C3             1.2005    -0.6776     0.0646 C.ar    
   4 C4             2.3946     0.0228     0.0145 C.ar    
   5 C5             2.3660     1.4260     0.0306 C.ar    
   6 O6             3.5724    -0.6340    -0.0565 O.3     
   7 C7             4.7415    -0.0179     0.1899 C.2     
   8 C8             4.8675     1.3294     0.2209 C.2     
   9 C9             3.6622     2.1485    -0.0104 C.2     
  10 C10            5.9386    -0.8460     0.4377 C.ar    
  11 N11            7.1078    -0.2480     0.6840 N.ar    
  12 C12            8.2096    -0.9180     0.9128 C.ar    
  13 C13            8.1982    -2.3239     0.9059 C.ar    
  14 C14            6.9750    -2.9983     0.6481 C.ar    
  15 C15            5.8247    -2.2272     0.4154 C.ar    
  16 C16            9.3586    -3.0751     1.1457 C.ar    
  17 C17            9.2944    -4.4358     1.1276 C.ar    
  18 C18            8.0941    -5.0968     0.8742 C.ar    
  19 C19            6.9469    -4.4013     0.6374 C.ar    
  20 C20            1.1580     2.1126     0.0894 C.ar    
  21 C21           -1.2442    -0.7034     0.1778 C.1     
  22 C22           -2.2573    -1.2952     0.2205 C.1     
  23 C23           -3.4929    -2.0170     0.2727 C.ar    
  24 N24           -3.4817    -3.3465     0.2623 N.ar    
  25 C25           -4.7018    -1.3190     0.3399 C.ar    
  26 C26           -5.8862    -2.0312     0.3896 C.ar    
  27 C27           -5.8277    -3.4184     0.3708 C.ar    
  28 C28           -4.5967    -4.0460     0.3090 C.ar    
  29 N29            3.7318     3.4379    -0.2383 N.2     
  30 O30            2.5670     4.1565    -0.6016 O.3     
  31 H31           -0.9575     1.9503     0.1775 H       
  32 H32            1.2047    -1.7575     0.0569 H       
  33 H33            5.8246     1.7926     0.4103 H       
  34 H34            9.1306    -0.3885     1.1070 H       
  35 H35            4.8743    -2.6997     0.2154 H       
  36 H36           10.2968    -2.5778     1.3429 H       
  37 H37           10.1890    -5.0120     1.3124 H       
  38 H38            8.0729    -6.1765     0.8657 H       
  39 H39            6.0230    -4.9256     0.4423 H       
  40 H40            1.1495     3.1925     0.0974 H       
  41 H41           -4.7109    -0.2391     0.3531 H       
  42 H42           -6.8359    -1.5196     0.4423 H       
  43 H43           -6.7354    -4.0023     0.4085 H       
  44 H44           -4.5494    -5.1248     0.2939 H       
  45 H45            2.7172     5.1004    -0.7489 H       
@<TRIPOS>BOND
   1    1    2 ar
   2    1   20 ar
   3    1   31 1
   4    2    3 ar
   5    2   21 1
   6    3    4 ar
   7    3   32 1
   8    4    5 ar
   9    4    6 1
  10    5   20 ar
  11    5    9 1
  12    6    7 1
  13    7    8 2
  14    7   10 1
  15    8    9 1
  16    8   33 1
  17    9   29 2
  18   10   11 ar
  19   10   15 ar
  20   11   12 ar
  21   12   13 ar
  22   12   34 1
  23   13   14 ar
  24   13   16 ar
  25   14   15 ar
  26   14   19 ar
  27   15   35 1
  28   16   17 ar
  29   16   36 1
  30   17   18 ar
  31   17   37 1
  32   18   19 ar
  33   18   38 1
  34   19   39 1
  35   20   40 1
  36   21   22 3
  37   22   23 1
  38   23   24 ar
  39   23   25 ar
  40   24   28 ar
  41   25   26 ar
  42   25   41 1
  43   26   27 ar
  44   26   42 1
  45   27   28 ar
  46   27   43 1
  47   28   44 1
  48   29   30 1
  49   30   45 1

#	End of record

