#	Name: ASD01100068
#	Creating user name:	WinNT
#	Creation time:	15. 06. 2019 18:58

#	Modifying user name:	WinNT
#	Modification time:	15. 06. 2019 18:58

#	Program:	/corina/corina34_cracker 3.40 0067  02.08.2006

@<TRIPOS>MOLECULE
ASD01100068
  25   26    0    0    0
SMALL
NO_CHARGES


@<TRIPOS>ATOM
   1 C1            -0.0167     1.3793     0.0096 C.ar    
   2 C2             0.0021    -0.0041     0.0020 C.ar    
   3 C3             1.2098    -0.6789    -0.0131 C.ar    
   4 C4             2.3967     0.0292    -0.0207 C.ar    
   5 C5             2.3773     1.4115    -0.0131 C.ar    
   6 C6             1.1709     2.0863     0.0021 C.ar    
   7 C7             3.6719     2.1830    -0.0208 C.3     
   8 Cl8           -1.4892    -0.8928     0.0121 Cl      
   9 C9             4.0903     2.4478    -1.4441 C.2     
  10 N10            5.2263     3.1274    -1.6971 N.am    
  11 O11            3.4049     2.0492    -2.3618 O.2     
  12 C12            5.6123     3.3717    -3.0099 C.2     
  13 N13            6.6823     4.0131    -3.3621 N.2     
  14 C14            6.8958     4.1534    -4.6571 C.2     
  15 C15            5.9617     3.6045    -5.4361 C.2     
  16 S16            4.7488     2.8635    -4.3952 S.3     
  17 H17           -0.9592     1.9066     0.0170 H       
  18 H18            1.2250    -1.7588    -0.0187 H       
  19 H19            3.3395    -0.4974    -0.0321 H       
  20 H20            1.1564     3.1662     0.0080 H       
  21 H21            3.5331     3.1307     0.4994 H       
  22 H22            4.4442     1.6017     0.4829 H       
  23 H23            5.7746     3.4462    -0.9631 H       
  24 H24            7.7568     4.6707    -5.0540 H       
  25 H25            5.9526     3.6106    -6.5160 H       
@<TRIPOS>BOND
   1    1    2 ar
   2    1    6 ar
   3    1   17 1
   4    2    3 ar
   5    2    8 1
   6    3    4 ar
   7    3   18 1
   8    4    5 ar
   9    4   19 1
  10    5    6 ar
  11    5    7 1
  12    6   20 1
  13    7    9 1
  14    7   21 1
  15    7   22 1
  16    9   10 am
  17    9   11 2
  18   10   12 1
  19   10   23 1
  20   12   13 2
  21   12   16 1
  22   13   14 1
  23   14   15 2
  24   14   24 1
  25   15   16 1
  26   15   25 1

#	End of record

