#	Name: ASD01150209
#	Creating user name:	WinNT
#	Creation time:	15. 06. 2019 19:03

#	Modifying user name:	WinNT
#	Modification time:	15. 06. 2019 19:03

#	Program:	/corina/corina34_cracker 3.40 0067  02.08.2006

@<TRIPOS>MOLECULE
ASD01150209
  38   40    0    0    0
SMALL
NO_CHARGES


@<TRIPOS>ATOM
   1 C1            -0.0159     1.3205     0.0093 C.ar    
   2 N2             0.0021    -0.0041     0.0020 N.ar    
   3 C3             1.1588    -0.6427    -0.0124 C.ar    
   4 C4             2.3546     0.0631    -0.0200 C.ar    
   5 N5             2.3510     1.3823    -0.0125 N.ar    
   6 C6             1.1966     2.0331     0.0016 C.ar    
   7 C7             1.1375     3.5094     0.0100 C.2     
   8 N8            -0.0772     4.1001     0.0238 N.am    
   9 C9            -1.2044     3.3715     0.0303 C.2     
  10 N10           -1.2038     2.0278     0.0302 N.am    
  11 C11           -0.1659     5.5624     0.0324 C.3     
  12 O12            2.1549     4.1746     0.0050 O.2     
  13 C13           -0.2088     6.0714    -1.3854 C.ar    
  14 C14           -1.4236     6.2322    -2.0253 C.ar    
  15 C15           -1.4636     6.6990    -3.3256 C.ar    
  16 C16           -0.2875     7.0053    -3.9868 C.ar    
  17 C17            0.9280     6.8441    -3.3458 C.ar    
  18 C18            0.9664     6.3826    -2.0436 C.ar    
  19 Cl19          -0.3369     7.5911    -5.6202 Cl      
  20 O20           -2.2722     3.9524     0.0436 O.2     
  21 C21           -2.4772     1.3035     0.0375 C.3     
  22 C22           -2.9288     1.0515    -1.4025 C.3     
  23 C23           -4.2587     0.2951    -1.3949 C.3     
  24 H24            1.1743    -1.7225    -0.0180 H       
  25 H25            3.2931    -0.4711    -0.0318 H       
  26 H26           -1.0716     5.8684     0.5559 H       
  27 H27            0.7050     5.9762     0.5408 H       
  28 H28           -2.3415     5.9928    -1.5091 H       
  29 H29           -2.4126     6.8243    -3.8255 H       
  30 H30            1.8463     7.0831    -3.8615 H       
  31 H31            1.9151     6.2568    -1.5431 H       
  32 H32           -2.3501     0.3502     0.5505 H       
  33 H33           -3.2300     1.8974     0.5557 H       
  34 H34           -3.0559     2.0048    -1.9155 H       
  35 H35           -2.1760     0.4575    -1.9207 H       
  36 H36           -5.0116     0.8890    -0.8767 H       
  37 H37           -4.5805     0.1155    -2.4207 H       
  38 H38           -4.1316    -0.6582    -0.8819 H       
@<TRIPOS>BOND
   1    1    2 ar
   2    1    6 ar
   3    1   10 1
   4    2    3 ar
   5    3    4 ar
   6    3   24 1
   7    4    5 ar
   8    4   25 1
   9    5    6 ar
  10    6    7 1
  11    7    8 am
  12    7   12 2
  13    8    9 am
  14    8   11 1
  15    9   10 am
  16    9   20 2
  17   10   21 1
  18   11   13 1
  19   11   26 1
  20   11   27 1
  21   13   14 ar
  22   13   18 ar
  23   14   15 ar
  24   14   28 1
  25   15   16 ar
  26   15   29 1
  27   16   17 ar
  28   16   19 1
  29   17   18 ar
  30   17   30 1
  31   18   31 1
  32   21   22 1
  33   21   32 1
  34   21   33 1
  35   22   23 1
  36   22   34 1
  37   22   35 1
  38   23   36 1
  39   23   37 1
  40   23   38 1

#	End of record

