#	Name: ASD00071063
#	Creating user name:	WinNT
#	Creation time:	15. 06. 2019 18:30

#	Modifying user name:	WinNT
#	Modification time:	15. 06. 2019 18:30

#	Program:	/corina/corina34_cracker 3.40 0067  02.08.2006

@<TRIPOS>MOLECULE
ASD00071063
  35   37    0    0    0
SMALL
NO_CHARGES


@<TRIPOS>ATOM
   1 N1             1.8096     1.2511    -1.2075 N.ar    
   2 C2             1.6213    -0.0542    -1.1944 C.ar    
   3 C3             1.3535    -0.7459    -0.0036 C.ar    
   4 C4             1.2829    -0.0680     1.1762 C.ar    
   5 C5             1.4850     1.3262     1.1550 C.ar    
   6 C6             1.4302     2.1031     2.3196 C.ar    
   7 N7             1.6250     3.4008     2.2510 N.ar    
   8 C8             1.8763     4.0260     1.1096 C.ar    
   9 C9             1.9497     3.3593    -0.0757 C.ar    
  10 C10            1.7522     1.9662    -0.0826 C.ar    
  11 N11            1.6891    -0.7590    -2.3851 N.pl3   
  12 C12            1.1435    -2.2380    -0.0295 C.3     
  13 C13            1.0070    -2.7506     1.3810 C.ar    
  14 C14           -0.2437    -2.8545     1.9616 C.ar    
  15 C15           -0.3690    -3.3251     3.2567 C.ar    
  16 C16            0.7553    -3.6923     3.9728 C.ar    
  17 C17            2.0067    -3.5897     3.3970 C.ar    
  18 C18            2.1351    -3.1239     2.0962 C.ar    
  19 O19            3.3649    -3.0280     1.5260 O.3     
  20 C20            4.4819    -3.4302     2.3213 C.3     
  21 Cl21          -1.6573    -2.3938     1.0654 Cl      
  22 H22            1.0773    -0.5850     2.1019 H       
  23 H23            1.2279     1.6361     3.2722 H       
  24 H24            2.0269     5.0954     1.1198 H       
  25 H25            2.1555     3.8901    -0.9934 H       
  26 H26            1.7879    -0.2839    -3.2250 H       
  27 H27            1.6379    -1.7276    -2.3789 H       
  28 H28            0.2367    -2.4676    -0.5889 H       
  29 H29            1.9973    -2.7168    -0.5090 H       
  30 H30           -1.3464    -3.4054     3.7091 H       
  31 H31            0.6551    -4.0593     4.9836 H       
  32 H32            2.8843    -3.8764     3.9573 H       
  33 H33            5.4004    -3.3037     1.7482 H       
  34 H34            4.5274    -2.8161     3.2208 H       
  35 H35            4.3700    -4.4775     2.6018 H       
@<TRIPOS>BOND
   1    1    2 ar
   2    1   10 ar
   3    2    3 ar
   4    2   11 1
   5    3    4 ar
   6    3   12 1
   7    4    5 ar
   8    4   22 1
   9    5    6 ar
  10    5   10 ar
  11    6    7 ar
  12    6   23 1
  13    7    8 ar
  14    8    9 ar
  15    8   24 1
  16    9   10 ar
  17    9   25 1
  18   11   26 1
  19   11   27 1
  20   12   13 1
  21   12   28 1
  22   12   29 1
  23   13   14 ar
  24   13   18 ar
  25   14   15 ar
  26   14   21 1
  27   15   16 ar
  28   15   30 1
  29   16   17 ar
  30   16   31 1
  31   17   18 ar
  32   17   32 1
  33   18   19 1
  34   19   20 1
  35   20   33 1
  36   20   34 1
  37   20   35 1

#	End of record

