#	Name: ASD01911848
#	Creating user name:	WinNT
#	Creation time:	15. 06. 2019 19:58

#	Modifying user name:	WinNT
#	Modification time:	15. 06. 2019 19:58

#	Program:	/corina/corina34_cracker 3.40 0067  02.08.2006

@<TRIPOS>MOLECULE
ASD01911848
  32   34    0    0    0
SMALL
NO_CHARGES


@<TRIPOS>ATOM
   1 C1            -1.0604    -0.5030    -2.0843 C.ar    
   2 C2            -1.0562     0.0556    -0.8097 C.ar    
   3 C3            -1.0050     1.4358    -0.6792 C.ar    
   4 N4            -0.9614     2.2110    -1.7447 N.ar    
   5 C5            -0.9640     1.7138    -2.9659 C.ar    
   6 C6            -1.0130     0.3482    -3.1762 C.ar    
   7 O7            -1.1019    -0.7395     0.2915 O.3     
   8 C8            -1.1523    -2.0846     0.1054 C.ar    
   9 C9            -0.0018    -2.7821    -0.2370 C.ar    
  10 C10           -0.0515    -4.1497    -0.4265 C.ar    
  11 C11           -1.2459    -4.8277    -0.2761 C.ar    
  12 C12           -2.4005    -4.1352     0.0659 C.ar    
  13 C13           -2.3513    -2.7620     0.2628 C.ar    
  14 N14           -3.6097    -4.8213     0.2173 N.am    
  15 C15           -4.7718    -4.2168    -0.0996 C.2     
  16 C16           -6.0508    -4.8998     0.1565 C.2     
  17 C17           -7.2525    -4.3531    -0.1360 C.2     
  18 O18           -4.7640    -3.1069    -0.5973 O.2     
  19 S19           -8.4823    -5.4540     0.3085 S.3     
  20 C20           -7.3223    -6.5800     0.8588 C.2     
  21 N21           -6.1323    -6.1197     0.6944 N.2     
  22 H22           -1.0951    -1.5740    -2.2188 H       
  23 H23           -1.0013     1.8798     0.3053 H       
  24 H24           -0.9277     2.3824    -3.8133 H       
  25 H25           -1.0144    -0.0503    -4.1800 H       
  26 H26            0.9333    -2.2548    -0.3556 H       
  27 H27            0.8449    -4.6898    -0.6932 H       
  28 H28           -1.2821    -5.8968    -0.4248 H       
  29 H29           -3.2473    -2.2211     0.5292 H       
  30 H30           -3.6120    -5.7323     0.5504 H       
  31 H31           -7.4095    -3.3802    -0.5777 H       
  32 H32           -7.5551    -7.5458     1.2823 H       
@<TRIPOS>BOND
   1    1    2 ar
   2    1    6 ar
   3    1   22 1
   4    2    3 ar
   5    2    7 1
   6    3    4 ar
   7    3   23 1
   8    4    5 ar
   9    5    6 ar
  10    5   24 1
  11    6   25 1
  12    7    8 1
  13    8    9 ar
  14    8   13 ar
  15    9   10 ar
  16    9   26 1
  17   10   11 ar
  18   10   27 1
  19   11   12 ar
  20   11   28 1
  21   12   13 ar
  22   12   14 1
  23   13   29 1
  24   14   15 am
  25   14   30 1
  26   15   16 1
  27   15   18 2
  28   16   17 2
  29   16   21 1
  30   17   19 1
  31   17   31 1
  32   19   20 1
  33   20   21 2
  34   20   32 1

#	End of record

