#	Name: ASD08170090
#	Creating user name:	WinNT
#	Creation time:	15. 06. 2019 21:17

#	Modifying user name:	WinNT
#	Modification time:	15. 06. 2019 21:17

#	Program:	/corina/corina34_cracker 3.40 0067  02.08.2006

@<TRIPOS>MOLECULE
ASD08170090
  83   86    0    0    0
SMALL
NO_CHARGES


@<TRIPOS>ATOM
   1 N1            -0.0150     1.2583     0.0090 N.2     
   2 N2             0.0021    -0.0041     0.0020 N.2     
   3 C3             1.1271     1.8769     0.0014 C.2     
   4 S4             2.3826     0.7116    -0.0169 S.3     
   5 C5             1.1681    -0.5677    -0.0121 C.2     
   6 C6             1.4387    -2.0502    -0.0217 C.3     
   7 C7             1.5173    -2.5450    -1.4674 C.3     
   8 C8             2.1718    -6.2170    -3.4310 C.3     
   9 C9             2.2195    -6.5434    -4.9015 C.2     
  10 N10            3.2727    -6.5215    -5.6551 N.2     
  11 S11            0.8525    -7.0314    -5.9038 S.3     
  12 C12            1.9042    -7.1394    -7.2517 C.2     
  13 N13            3.1057    -6.8287    -6.8682 N.2     
  14 N14            1.5340    -7.5046    -8.5415 N.am    
  15 C15            2.4593    -7.5523    -9.5203 C.2     
  16 O16            3.6149    -7.2766    -9.2761 O.2     
  17 C17            2.0581    -7.9480   -10.9179 C.3     
  18 N18            1.3017     3.2566     0.0071 N.am    
  19 C19            0.2284     4.0717     0.0222 C.2     
  20 C20            0.4176     5.5667     0.0285 C.3     
  21 O21           -0.8897     3.6019     0.0309 O.2     
  22 C22            1.9004    -4.7224    -3.2489 C.3     
  23 C23            1.0119    -6.9644   -11.4460 C.3     
  24 C24            1.2096     5.9754     1.2721 C.3     
  25 O25            0.5521     5.4794     2.4399 O.3     
  26 O26            1.5216    -5.6325   -11.3551 O.3     
  27 S27            1.8430    -4.3295    -1.4789 S.3     
  28 N28            3.2355    -7.9232   -11.7894 N.am    
  29 N29           -0.8913     6.2246     0.0451 N.am    
  30 C30           -1.0232     7.4750    -0.4401 C.2     
  31 O31           -2.2261     8.0796    -0.4248 O.3     
  32 O32           -0.0566     8.0568    -0.8914 O.2     
  33 C33           -2.2940     9.4262    -0.9637 C.3     
  34 C34           -3.7083     9.9367    -0.8633 C.ar    
  35 C35           -4.1190    10.6170     0.2678 C.ar    
  36 C36           -5.4164    11.0853     0.3598 C.ar    
  37 C37           -6.3029    10.8736    -0.6794 C.ar    
  38 C38           -5.8920    10.1941    -1.8109 C.ar    
  39 C39           -4.5934     9.7296    -1.9048 C.ar    
  40 C40            3.2677    -8.6856   -12.9004 C.2     
  41 O41            4.3497    -8.6628   -13.7013 O.3     
  42 O42            2.3203    -9.3935   -13.1791 O.2     
  43 C43            4.3149    -9.5093   -14.8805 C.3     
  44 C44            5.6018    -9.3532   -15.6491 C.ar    
  45 C45            6.6764   -10.1776   -15.3726 C.ar    
  46 C46            7.8568   -10.0343   -16.0777 C.ar    
  47 C47            7.9624    -9.0669   -17.0594 C.ar    
  48 C48            6.8875    -8.2431   -17.3365 C.ar    
  49 C49            5.7056    -8.3892   -16.6345 C.ar    
  50 H50            2.3840    -2.2503     0.4827 H       
  51 H51            0.6331    -2.5700     0.4969 H       
  52 H52            0.5720    -2.3449    -1.9718 H       
  53 H53            2.3230    -2.0252    -1.9860 H       
  54 H54            1.3758    -6.7912    -2.9570 H       
  55 H55            3.1267    -6.4716    -2.9712 H       
  56 H56            0.6097    -7.7250    -8.7368 H       
  57 H57            1.6373    -8.9534   -10.9042 H       
  58 H58            2.1959     3.6323     0.0002 H       
  59 H59            0.9641     5.8675    -0.8654 H       
  60 H60            2.6965    -4.1481    -3.7229 H       
  61 H61            0.9455    -4.4678    -3.7088 H       
  62 H62            0.7872    -7.1971   -12.4869 H       
  63 H63            0.1026    -7.0469   -10.8507 H       
  64 H64            2.2149     5.5577     1.2162 H       
  65 H65            1.2702     7.0625     1.3233 H       
  66 H66            0.9998     5.7016     3.2677 H       
  67 H67            0.9098    -4.9546   -11.6733 H       
  68 H68            3.9918    -7.3581   -11.5669 H       
  69 H69           -1.6629     5.7602     0.4053 H       
  70 H70           -1.6310    10.0787    -0.3955 H       
  71 H71           -1.9849     9.4153    -2.0089 H       
  72 H72           -3.4263    10.7824     1.0797 H       
  73 H73           -5.7374    11.6161     1.2439 H       
  74 H74           -7.3168    11.2388    -0.6072 H       
  75 H75           -6.5848    10.0284    -2.6227 H       
  76 H76           -4.2724     9.1987    -2.7888 H       
  77 H77            4.1967   -10.5497   -14.5775 H       
  78 H78            3.4764    -9.2174   -15.5127 H       
  79 H79            6.5939   -10.9334   -14.6056 H       
  80 H80            8.6966   -10.6779   -15.8612 H       
  81 H81            8.8848    -8.9545   -17.6097 H       
  82 H82            6.9701    -7.4871   -18.1033 H       
  83 H83            4.8658    -7.7456   -16.8509 H       
@<TRIPOS>BOND
   1    1    2 1
   2    1    3 2
   3    2    5 2
   4    3    4 1
   5    3   18 1
   6    4    5 1
   7    5    6 1
   8    6    7 1
   9    6   50 1
  10    6   51 1
  11    7   27 1
  12    7   52 1
  13    7   53 1
  14    8    9 1
  15    8   22 1
  16    8   54 1
  17    8   55 1
  18    9   10 2
  19    9   11 1
  20   10   13 1
  21   11   12 1
  22   12   13 2
  23   12   14 1
  24   14   15 am
  25   14   56 1
  26   15   16 2
  27   15   17 1
  28   17   23 1
  29   17   28 1
  30   17   57 1
  31   18   19 am
  32   18   58 1
  33   19   20 1
  34   19   21 2
  35   20   24 1
  36   20   29 1
  37   20   59 1
  38   22   27 1
  39   22   60 1
  40   22   61 1
  41   23   26 1
  42   23   62 1
  43   23   63 1
  44   24   25 1
  45   24   64 1
  46   24   65 1
  47   25   66 1
  48   26   67 1
  49   28   40 am
  50   28   68 1
  51   29   30 am
  52   29   69 1
  53   30   31 1
  54   30   32 2
  55   31   33 1
  56   33   34 1
  57   33   70 1
  58   33   71 1
  59   34   35 ar
  60   34   39 ar
  61   35   36 ar
  62   35   72 1
  63   36   37 ar
  64   36   73 1
  65   37   38 ar
  66   37   74 1
  67   38   39 ar
  68   38   75 1
  69   39   76 1
  70   40   41 1
  71   40   42 2
  72   41   43 1
  73   43   44 1
  74   43   77 1
  75   43   78 1
  76   44   45 ar
  77   44   49 ar
  78   45   46 ar
  79   45   79 1
  80   46   47 ar
  81   46   80 1
  82   47   48 ar
  83   47   81 1
  84   48   49 ar
  85   48   82 1
  86   49   83 1

#	End of record

