#	Name: ASD01870629
#	Creating user name:	WinNT
#	Creation time:	15. 06. 2019 19:39

#	Modifying user name:	WinNT
#	Modification time:	15. 06. 2019 19:39

#	Program:	/corina/corina34_cracker 3.40 0067  02.08.2006

@<TRIPOS>MOLECULE
ASD01870629
  38   41    0    0    0
SMALL
NO_CHARGES


@<TRIPOS>ATOM
   1 C1            -0.0167     1.3820     0.0096 C.ar    
   2 C2             0.0021    -0.0041     0.0020 C.ar    
   3 C3             1.2029    -0.6885    -0.0127 C.ar    
   4 C4             2.4051     0.0016    -0.0204 C.ar    
   5 C5             2.4018     1.3872    -0.0134 C.ar    
   6 C6             1.1771     2.0852     0.0020 C.ar    
   7 C7             3.4571     2.4222    -0.0181 C.2     
   8 N8             2.8704     3.6326    -0.0065 N.am    
   9 C9             1.5299     3.5206     0.0064 C.2     
  10 C10            3.5655     4.8521    -0.0060 C.ar    
  11 C11            2.8797     6.0630     0.0064 C.ar    
  12 N12            3.5681     7.1922     0.0064 N.ar    
  13 C13            4.8920     7.1795    -0.0052 C.ar    
  14 N14            5.5776     6.0469    -0.0177 N.ar    
  15 C15            4.9568     4.8791    -0.0122 C.ar    
  16 O16            0.7414     4.4443     0.0181 O.2     
  17 O17            4.6536     2.2144    -0.0303 O.2     
  18 N18            5.5800     8.3866    -0.0048 N.am    
  19 C19            6.9277     8.3941    -0.0166 C.2     
  20 C20            7.6536     9.6677    -0.0162 C.2     
  21 O21            7.5420     7.3437    -0.0276 O.2     
  22 C22            9.0111     9.8178    -0.0272 C.2     
  23 C23            9.2645    11.1982    -0.0221 C.2     
  24 C24            8.0660    11.8226    -0.0083 C.2     
  25 O25            7.0978    10.8971    -0.0106 O.3     
  26 C26           10.0380     8.7149    -0.0417 C.3     
  27 H27           -0.9580     1.9115     0.0170 H       
  28 H28           -0.9280    -0.5530     0.0079 H       
  29 H29            1.2045    -1.7685    -0.0178 H       
  30 H30            3.3403    -0.5384    -0.0315 H       
  31 H31            1.7999     6.0804     0.0156 H       
  32 H32            5.5220     3.9589    -0.0171 H       
  33 H33            5.0904     9.2239     0.0039 H       
  34 H34           10.2348    11.6724    -0.0275 H       
  35 H35            7.9139    12.8918    -0.0007 H       
  36 H36           10.2766     8.4541    -1.0728 H       
  37 H37           10.9414     9.0529     0.4660 H       
  38 H38            9.6387     7.8400     0.4713 H       
@<TRIPOS>BOND
   1    1    2 ar
   2    1    6 ar
   3    1   27 1
   4    2    3 ar
   5    2   28 1
   6    3    4 ar
   7    3   29 1
   8    4    5 ar
   9    4   30 1
  10    5    7 1
  11    5    6 ar
  12    6    9 1
  13    7    8 am
  14    7   17 2
  15    8    9 am
  16    8   10 1
  17    9   16 2
  18   10   11 ar
  19   10   15 ar
  20   11   12 ar
  21   11   31 1
  22   12   13 ar
  23   13   14 ar
  24   13   18 1
  25   14   15 ar
  26   15   32 1
  27   18   19 am
  28   18   33 1
  29   19   20 1
  30   19   21 2
  31   20   22 2
  32   20   25 1
  33   22   23 1
  34   22   26 1
  35   23   24 2
  36   23   34 1
  37   24   25 1
  38   24   35 1
  39   26   36 1
  40   26   37 1
  41   26   38 1

#	End of record

