#	Name: ASD01910696
#	Creating user name:	WinNT
#	Creation time:	15. 06. 2019 19:56

#	Modifying user name:	WinNT
#	Modification time:	15. 06. 2019 19:56

#	Program:	/corina/corina34_cracker 3.40 0067  02.08.2006

@<TRIPOS>MOLECULE
ASD01910696
  56   59    0    0    0
SMALL
NO_CHARGES


@<TRIPOS>ATOM
   1 C1            12.4822    -1.9045     4.2711 C.ar    
   2 C2            13.1019    -2.0682     3.0396 C.ar    
   3 C3            12.3923    -1.7488     1.8958 C.ar    
   4 C4            11.0894    -1.2772     2.0176 C.ar    
   5 N5            10.5332    -1.1344     3.2108 N.ar    
   6 C6            11.1859    -1.4315     4.3184 C.ar    
   7 N7            10.3649    -0.9525     0.8766 N.3     
   8 C8             9.0194    -0.4770     1.2250 C.3     
   9 C9             8.3208     0.0391    -0.0375 C.3     
  10 N10            8.3616    -1.0180    -1.0594 N.am    
  11 C11            9.6586    -1.6407    -1.3650 C.3     
  12 C12           10.3044    -2.0906    -0.0503 C.3     
  13 C13            7.2404    -1.4055    -1.6989 C.2     
  14 C14            7.3210    -2.3784    -2.8064 C.ar    
  15 O15            6.1624    -0.9539    -1.3639 O.2     
  16 C16            6.3467    -3.3725    -2.9364 C.ar    
  17 C17            6.4185    -4.2829    -3.9683 C.ar    
  18 C18            7.4578    -4.2190    -4.8854 C.ar    
  19 C19            8.4405    -3.2256    -4.7647 C.ar    
  20 C20            8.3664    -2.3028    -3.7269 C.ar    
  21 C21            9.5140    -3.1586    -5.7101 C.1     
  22 C22           10.3941    -3.1037    -6.4851 C.1     
  23 C23           11.4976    -3.0349    -7.4569 C.3     
  24 O24            7.5237    -5.1181    -5.8990 O.3     
  25 C25            6.4899    -6.1027    -5.9610 C.3     
  26 C26           12.4073    -1.8866    -7.1034 C.ar    
  27 C27           13.4772    -2.0893    -6.2518 C.ar    
  28 C28           14.3117    -1.0360    -5.9275 C.ar    
  29 C29           14.0765     0.2198    -6.4552 C.ar    
  30 C30           13.0072     0.4223    -7.3074 C.ar    
  31 C31           12.1753    -0.6319    -7.6352 C.ar    
  32 H32           13.0072    -2.1489     5.1827 H       
  33 H33           14.1153    -2.4362     2.9759 H       
  34 H34           12.8439    -1.8638     0.9215 H       
  35 H35           10.7002    -1.3023     5.2743 H       
  36 H36            8.4422    -1.2981     1.6501 H       
  37 H37            9.0961     0.3298     1.9538 H       
  38 H38            7.2844     0.2862     0.1925 H       
  39 H39            8.8382     0.9248    -0.4062 H       
  40 H40            9.5066    -2.5041    -2.0127 H       
  41 H41           10.3046    -0.9164    -1.8613 H       
  42 H42           11.3132    -2.4541    -0.2463 H       
  43 H43            9.7094    -2.8892     0.3927 H       
  44 H44            5.5354    -3.4273    -2.2256 H       
  45 H45            5.6633    -5.0491    -4.0633 H       
  46 H46            9.1203    -1.5357    -3.6290 H       
  47 H47           12.0623    -3.9668    -7.4320 H       
  48 H48           11.0920    -2.8824    -8.4570 H       
  49 H49            6.6619    -6.7568    -6.8159 H       
  50 H50            6.4951    -6.6933    -5.0449 H       
  51 H51            5.5241    -5.6092    -6.0697 H       
  52 H52           13.6609    -3.0705    -5.8396 H       
  53 H53           15.1471    -1.1942    -5.2617 H       
  54 H54           14.7280     1.0429    -6.2012 H       
  55 H55           12.8232     1.4036    -7.7194 H       
  56 H56           11.3398    -0.4737    -8.3010 H       
@<TRIPOS>BOND
   1    1    2 ar
   2    1    6 ar
   3    1   32 1
   4    2    3 ar
   5    2   33 1
   6    3    4 ar
   7    3   34 1
   8    4    5 ar
   9    4    7 1
  10    5    6 ar
  11    6   35 1
  12    7    8 1
  13    7   12 1
  14    8    9 1
  15    8   36 1
  16    8   37 1
  17    9   10 1
  18    9   38 1
  19    9   39 1
  20   10   11 1
  21   10   13 am
  22   11   12 1
  23   11   40 1
  24   11   41 1
  25   12   42 1
  26   12   43 1
  27   13   14 1
  28   13   15 2
  29   14   16 ar
  30   14   20 ar
  31   16   17 ar
  32   16   44 1
  33   17   18 ar
  34   17   45 1
  35   18   19 ar
  36   18   24 1
  37   19   20 ar
  38   19   21 1
  39   20   46 1
  40   21   22 3
  41   22   23 1
  42   23   26 1
  43   23   47 1
  44   23   48 1
  45   24   25 1
  46   25   49 1
  47   25   50 1
  48   25   51 1
  49   26   27 ar
  50   26   31 ar
  51   27   28 ar
  52   27   52 1
  53   28   29 ar
  54   28   53 1
  55   29   30 ar
  56   29   54 1
  57   30   31 ar
  58   30   55 1
  59   31   56 1

#	End of record

