#	Name: ASD01811662
#	Creating user name:	WinNT
#	Creation time:	15. 06. 2019 19:27

#	Modifying user name:	WinNT
#	Modification time:	15. 06. 2019 19:27

#	Program:	/corina/corina34_cracker 3.40 0067  02.08.2006

@<TRIPOS>MOLECULE
ASD01811662
  30   32    0    0    0
SMALL
NO_CHARGES


@<TRIPOS>ATOM
   1 C1             0.3024     1.7831     0.5685 C.ar    
   2 C2             0.1649     0.4042     0.5814 C.ar    
   3 C3             1.2650    -0.3996     0.3828 C.ar    
   4 C4             2.5307     0.1657     0.1662 C.ar    
   5 C5             2.6659     1.5530     0.1550 C.ar    
   6 C6             1.5390     2.3523     0.3576 C.ar    
   7 C7             3.6611    -0.7525    -0.0423 C.2     
   8 N8             4.6029    -0.5770    -0.9002 N.2     
   9 C9             4.6430     0.5953    -1.7735 C.3     
  10 C10            4.8032     1.8282    -0.9265 C.2     
  11 N11            3.8755     2.1981    -0.0466 N.am    
  12 S12            6.1225     2.7173    -1.0873 S.2     
  13 C13            3.7190    -1.9703     0.7995 C.ar    
  14 C14            3.0673    -2.0010     2.0322 C.ar    
  15 C15            3.1246    -3.1383     2.8114 C.ar    
  16 C16            3.8269    -4.2464     2.3724 C.ar    
  17 C17            4.4757    -4.2219     1.1508 C.ar    
  18 C18            4.4206    -3.0926     0.3598 C.ar    
  19 Cl19          -1.3947    -0.3100     0.8486 Cl      
  20 H20           -0.5622     2.4126     0.7195 H       
  21 H21            1.1528    -1.4737     0.3941 H       
  22 H22            1.6379     3.4277     0.3485 H       
  23 H23            5.4862     0.5112    -2.4590 H       
  24 H24            3.7143     0.6600    -2.3405 H       
  25 H25            4.0607     2.9805     0.4960 H       
  26 H26            2.5194    -1.1363     2.3762 H       
  27 H27            2.6203    -3.1633     3.7662 H       
  28 H28            3.8691    -5.1342     2.9860 H       
  29 H29            5.0227    -5.0899     0.8136 H       
  30 H30            4.9272    -3.0747    -0.5939 H       
@<TRIPOS>BOND
   1    1    2 ar
   2    1    6 ar
   3    1   20 1
   4    2    3 ar
   5    2   19 1
   6    3    4 ar
   7    3   21 1
   8    4    5 ar
   9    4    7 1
  10    5    6 ar
  11    5   11 1
  12    6   22 1
  13    7    8 2
  14    7   13 1
  15    8    9 1
  16    9   10 1
  17    9   23 1
  18    9   24 1
  19   10   11 am
  20   10   12 2
  21   11   25 1
  22   13   14 ar
  23   13   18 ar
  24   14   15 ar
  25   14   26 1
  26   15   16 ar
  27   15   27 1
  28   16   17 ar
  29   16   28 1
  30   17   18 ar
  31   17   29 1
  32   18   30 1

#	End of record

