#	Name: ASD01420173
#	Creating user name:	WinNT
#	Creation time:	15. 06. 2019 19:20

#	Modifying user name:	WinNT
#	Modification time:	15. 06. 2019 19:20

#	Program:	/corina/corina34_cracker 3.40 0067  02.08.2006

@<TRIPOS>MOLECULE
ASD01420173
  58   61    0    0    0
SMALL
NO_CHARGES


@<TRIPOS>ATOM
   1 C1            -0.3407     0.5762    -0.1471 C.2     
   2 O2            -0.3076    -0.6327    -0.0183 O.2     
   3 C3             0.9299     2.7075    -0.5532 C.3     
   4 N4             0.8056     1.2703    -0.2902 N.am    
   5 C5             2.1679     0.7332    -0.2121 C.3     
   6 C6             3.1248     1.8770    -0.4338 C.ar    
   7 C7             4.5150     1.9167    -0.4614 C.ar    
   8 C8             5.1696     3.1195    -0.6898 C.ar    
   9 C9             4.4380     4.2740    -0.8892 C.ar    
  10 C10            3.0570     4.2314    -0.8612 C.ar    
  11 C11            2.4000     3.0334    -0.6336 C.ar    
  12 N12            5.2518     0.7475    -0.2589 N.3     
  13 C13            5.0780     0.2461     1.1115 C.3     
  14 C14            5.8351    -1.0747     1.2685 C.3     
  15 N15            7.2570    -0.8603     0.9656 N.3     
  16 C16            7.4308    -0.3589    -0.4048 C.3     
  17 C17            6.6737     0.9620    -0.5618 C.3     
  18 C18            8.0319    -2.0900     1.1785 C.3     
  19 C19           -1.6341     1.2810    -0.1529 C.ar    
  20 C20           -2.5955     0.9975     0.8293 C.ar    
  21 C21           -3.8080     1.6647     0.8168 C.ar    
  22 C22           -4.0703     2.6098    -0.1643 C.ar    
  23 C23           -3.1181     2.8921    -1.1389 C.ar    
  24 C24           -1.9068     2.2396    -1.1336 C.ar    
  25 C25           -3.4123     3.9204    -2.2005 C.3     
  26 C26           -2.3791     5.0459    -2.1206 C.3     
  27 C27           -3.3444     3.2627    -3.5803 C.3     
  28 O28           -5.2607     3.2614    -0.1739 O.3     
  29 O29           -2.3375     0.0723     1.7873 O.3     
  30 H30            0.4448     2.9535    -1.4978 H       
  31 H31            0.4700     3.2726     0.2575 H       
  32 H32            2.3367     0.2956     0.7719 H       
  33 H33            2.3115    -0.0235    -0.9835 H       
  34 H34            6.2489     3.1525    -0.7113 H       
  35 H35            4.9455     5.2106    -1.0667 H       
  36 H36            2.4878     5.1359    -1.0171 H       
  37 H37            5.4708     0.9767     1.8186 H       
  38 H38            4.0182     0.0833     1.3075 H       
  39 H39            5.7315    -1.4338     2.2924 H       
  40 H40            5.4241    -1.8134     0.5804 H       
  41 H41            8.4906    -0.1960    -0.6008 H       
  42 H42            7.0380    -1.0895    -1.1119 H       
  43 H43            6.7773     1.3210    -1.5857 H       
  44 H44            7.0847     1.7007     0.1263 H       
  45 H45            7.6507    -2.8769     0.5276 H       
  46 H46            9.0806    -1.9033     0.9471 H       
  47 H47            7.9393    -2.4022     2.2187 H       
  48 H48           -4.5504     1.4493     1.5709 H       
  49 H49           -1.1685     2.4647    -1.8891 H       
  50 H50           -4.4097     4.3308    -2.0423 H       
  51 H51           -2.5920     5.7897    -2.8884 H       
  52 H52           -2.4275     5.5145    -1.1376 H       
  53 H53           -1.3818     4.6356    -2.2788 H       
  54 H54           -4.0805     2.4608    -3.6372 H       
  55 H55           -3.5573     4.0065    -4.3481 H       
  56 H56           -2.3471     2.8523    -3.7385 H       
  57 H57           -5.2647     4.0808     0.3396 H       
  58 H58           -1.9209     0.4341     2.5815 H       
@<TRIPOS>BOND
   1    1    2 2
   2    1    4 am
   3    1   19 1
   4    3    4 1
   5    3   11 1
   6    3   30 1
   7    3   31 1
   8    4    5 1
   9    5    6 1
  10    5   32 1
  11    5   33 1
  12    6    7 ar
  13    6   11 ar
  14    7    8 ar
  15    7   12 1
  16    8    9 ar
  17    8   34 1
  18    9   10 ar
  19    9   35 1
  20   10   11 ar
  21   10   36 1
  22   12   13 1
  23   12   17 1
  24   13   14 1
  25   13   37 1
  26   13   38 1
  27   14   15 1
  28   14   39 1
  29   14   40 1
  30   15   16 1
  31   15   18 1
  32   16   17 1
  33   16   41 1
  34   16   42 1
  35   17   43 1
  36   17   44 1
  37   18   45 1
  38   18   46 1
  39   18   47 1
  40   19   20 ar
  41   19   24 ar
  42   20   21 ar
  43   20   29 1
  44   21   22 ar
  45   21   48 1
  46   22   23 ar
  47   22   28 1
  48   23   24 ar
  49   23   25 1
  50   24   49 1
  51   25   26 1
  52   25   27 1
  53   25   50 1
  54   26   51 1
  55   26   52 1
  56   26   53 1
  57   27   54 1
  58   27   55 1
  59   27   56 1
  60   28   57 1
  61   29   58 1

#	End of record

