#	Name: ASD01882962
#	Creating user name:	WinNT
#	Creation time:	15. 06. 2019 19:45

#	Modifying user name:	WinNT
#	Modification time:	15. 06. 2019 19:45

#	Program:	/corina/corina34_cracker 3.40 0067  02.08.2006

@<TRIPOS>MOLECULE
ASD01882962
  37   39    0    0    0
SMALL
NO_CHARGES


@<TRIPOS>ATOM
   1 C1            -0.1409     0.9055     0.0031 C.2     
   2 C2            -0.3086    -0.4713    -0.2219 C.2     
   3 C3            -1.6145    -0.9810    -0.3533 C.2     
   4 C4            -2.6773    -0.1489    -0.2622 C.2     
   5 N5            -2.5167     1.1813    -0.0449 N.am    
   6 C6            -1.2934     1.7252     0.0948 C.2     
   7 C7            -3.6991     2.0416     0.0455 C.3     
   8 O8            -4.3229     1.8616     1.3185 O.3     
   9 C9             0.8641    -1.3678    -0.3195 C.ar    
  10 C10            1.1684     1.4683     0.1429 C.1     
  11 N11            2.2071     1.9148     0.2539 N.1     
  12 O12           -1.1766     2.9230     0.2895 O.2     
  13 C13           -5.4832     2.5343     1.5376 C.ar    
  14 C14           -6.1992     2.3222     2.7068 C.ar    
  15 C15           -7.3784     3.0072     2.9271 C.ar    
  16 C16           -7.8453     3.9035     1.9835 C.ar    
  17 C17           -7.1338     4.1163     0.8172 C.ar    
  18 C18           -5.9509     3.4384     0.5950 C.ar    
  19 C19            1.0681    -2.3618     0.6390 C.ar    
  20 C20            2.1637    -3.1944     0.5422 C.ar    
  21 C21            3.0594    -3.0459    -0.5019 C.ar    
  22 C22            2.8630    -2.0625    -1.4553 C.ar    
  23 C23            1.7683    -1.2270    -1.3734 C.ar    
  24 H24           -1.7678    -2.0358    -0.5270 H       
  25 H25           -3.6743    -0.5513    -0.3650 H       
  26 H26           -3.3999     3.0835    -0.0684 H       
  27 H27           -4.4021     1.7770    -0.7443 H       
  28 H28           -5.8351     1.6220     3.4440 H       
  29 H29           -7.9363     2.8422     3.8370 H       
  30 H30           -8.7675     4.4381     2.1576 H       
  31 H31           -7.5010     4.8164     0.0814 H       
  32 H32           -5.3955     3.6050    -0.3162 H       
  33 H33            0.3699    -2.4785     1.4546 H       
  34 H34            2.3229    -3.9637     1.2833 H       
  35 H35            3.9157    -3.7001    -0.5729 H       
  36 H36            3.5659    -1.9515    -2.2677 H       
  37 H37            1.6161    -0.4598    -2.1182 H       
@<TRIPOS>BOND
   1    1    2 2
   2    1   10 1
   3    1    6 1
   4    2    3 1
   5    2    9 1
   6    3    4 2
   7    3   24 1
   8    4    5 1
   9    4   25 1
  10    5    7 1
  11    5    6 am
  12    6   12 2
  13    7    8 1
  14    7   26 1
  15    7   27 1
  16    8   13 1
  17    9   19 ar
  18    9   23 ar
  19   10   11 3
  20   13   14 ar
  21   13   18 ar
  22   14   15 ar
  23   14   28 1
  24   15   16 ar
  25   15   29 1
  26   16   17 ar
  27   16   30 1
  28   17   18 ar
  29   17   31 1
  30   18   32 1
  31   19   20 ar
  32   19   33 1
  33   20   21 ar
  34   20   34 1
  35   21   22 ar
  36   21   35 1
  37   22   23 ar
  38   22   36 1
  39   23   37 1

#	End of record

