#	Name: ASD00170363
#	Creating user name:	WinNT
#	Creation time:	15. 06. 2019 18:32

#	Modifying user name:	WinNT
#	Modification time:	15. 06. 2019 18:32

#	Program:	/corina/corina34_cracker 3.40 0067  02.08.2006

@<TRIPOS>MOLECULE
ASD00170363
  43   46    0    0    0
SMALL
NO_CHARGES


@<TRIPOS>ATOM
   1 C1            -0.0250     1.3571     0.1823 C.2     
   2 C2            -0.0294     0.0266    -0.1088 C.2     
   3 C3             1.3192     1.8964     0.2836 C.2     
   4 C4             2.2925     0.9509     0.0646 C.2     
   5 S5             1.6112    -0.5756    -0.2610 S.3     
   6 N6             3.6462     1.2054     0.1038 N.pl3   
   7 C7             1.6070     3.2973     0.5858 C.2     
   8 O8             1.8033     4.0877    -0.3197 O.2     
   9 C9             1.6600     3.7548     1.9911 C.ar    
  10 C10            1.8236     5.1106     2.2810 C.ar    
  11 C11            1.8717     5.5313     3.5933 C.ar    
  12 C12            1.7582     4.6118     4.6229 C.ar    
  13 C13            1.5961     3.2652     4.3415 C.ar    
  14 C14            1.5407     2.8333     3.0330 C.ar    
  15 Cl15           1.8197     5.1489     6.2726 Cl      
  16 C16           -1.2519     2.1635     0.3681 C.ar    
  17 C17           -2.0863     1.9274     1.4615 C.ar    
  18 C18           -3.2286     2.6822     1.6295 C.ar    
  19 C19           -3.5483     3.6721     0.7156 C.ar    
  20 C20           -2.7244     3.9105    -0.3715 C.ar    
  21 C21           -1.5760     3.1666    -0.5462 C.ar    
  22 C22           -1.2446    -0.7940    -0.2725 C.ar    
  23 C23           -2.2923    -0.3430    -1.0793 C.ar    
  24 C24           -3.4251    -1.1151    -1.2284 C.ar    
  25 C25           -3.5258    -2.3348    -0.5802 C.ar    
  26 C26           -2.4911    -2.7875     0.2214 C.ar    
  27 C27           -1.3502    -2.0280     0.3741 C.ar    
  28 Cl28          -4.9556    -3.3004    -0.7728 Cl      
  29 Cl29          -4.9879     4.6176     0.9332 Cl      
  30 H30            3.9675     2.0818     0.3678 H       
  31 H31            4.2779     0.5082    -0.1324 H       
  32 H32            1.9126     5.8285     1.4790 H       
  33 H33            1.9986     6.5799     3.8188 H       
  34 H34            1.5088     2.5527     5.1484 H       
  35 H35            1.4144     1.7832     2.8148 H       
  36 H36           -1.8383     1.1551     2.1745 H       
  37 H37           -3.8751     2.5004     2.4753 H       
  38 H38           -2.9791     4.6834    -1.0815 H       
  39 H39           -0.9341     3.3534    -1.3945 H       
  40 H40           -2.2153     0.6083    -1.5848 H       
  41 H41           -4.2358    -0.7677    -1.8518 H       
  42 H42           -2.5762    -3.7392     0.7248 H       
  43 H43           -0.5440    -2.3821     0.9994 H       
@<TRIPOS>BOND
   1    1    2 2
   2    1    3 1
   3    1   16 1
   4    2   22 1
   5    2    5 1
   6    3    4 2
   7    3    7 1
   8    4    5 1
   9    4    6 1
  10    6   30 1
  11    6   31 1
  12    7    8 2
  13    7    9 1
  14    9   10 ar
  15    9   14 ar
  16   10   11 ar
  17   10   32 1
  18   11   12 ar
  19   11   33 1
  20   12   13 ar
  21   12   15 1
  22   13   14 ar
  23   13   34 1
  24   14   35 1
  25   16   17 ar
  26   16   21 ar
  27   17   18 ar
  28   17   36 1
  29   18   19 ar
  30   18   37 1
  31   19   20 ar
  32   19   29 1
  33   20   21 ar
  34   20   38 1
  35   21   39 1
  36   22   23 ar
  37   22   27 ar
  38   23   24 ar
  39   23   40 1
  40   24   25 ar
  41   24   41 1
  42   25   26 ar
  43   25   28 1
  44   26   27 ar
  45   26   42 1
  46   27   43 1

#	End of record

