#	Name: ASD00131009
#	Creating user name:	WinNT
#	Creation time:	15. 06. 2019 18:31

#	Modifying user name:	WinNT
#	Modification time:	15. 06. 2019 18:31

#	Program:	/corina/corina34_cracker 3.40 0067  02.08.2006

@<TRIPOS>MOLECULE
ASD00131009
  63   67    0    0    0
SMALL
NO_CHARGES


@<TRIPOS>ATOM
   1 N1             0.1595     1.5842    -0.0356 N.am    
   2 C2            -0.1202     0.2705    -0.0780 C.2     
   3 C3             0.9492    -0.7262    -0.0431 C.2     
   4 C4             2.2756    -0.2954     0.0350 C.2     
   5 C5             2.5360     1.1472     0.0787 C.ar    
   6 C6             3.8466     1.6324     0.1577 C.ar    
   7 C7             4.0712     2.9790     0.1979 C.ar    
   8 C8             3.0089     3.8716     0.1612 C.ar    
   9 C9             1.7108     3.4162     0.0835 C.ar    
  10 C10            1.4567     2.0477     0.0418 C.ar    
  11 C11            0.6332    -2.1592    -0.0890 C.2     
  12 O12            1.5289    -2.9768    -0.1873 O.2     
  13 N13           -0.6490    -2.5690    -0.0223 N.am    
  14 O14           -1.2803    -0.0949    -0.1461 O.2     
  15 C15           -0.9415     2.5496    -0.0786 C.3     
  16 C16           -1.6720     2.4307    -1.4176 C.3     
  17 C17           -1.9184     2.2603     1.0628 C.3     
  18 O18            3.2910    -1.1834     0.0699 O.3     
  19 N19           -2.1952    -5.0036     1.9032 N.3     
  20 C20           -0.8863    -4.4734     1.4982 C.3     
  21 C21           -0.9583    -3.9995     0.0437 C.3     
  22 C22           -2.3766    -4.2437    -0.4869 C.3     
  23 C23           -3.3679    -3.4730     0.3941 C.3     
  24 C24           -3.2297    -3.9620     1.8386 C.3     
  25 C25           -2.5689    -6.1672     1.0873 C.3     
  26 C26           -2.6881    -5.7417    -0.3788 C.3     
  27 C27           -0.5109    -3.2963     2.4006 C.3     
  28 C28           -0.3226    -3.7865     3.8132 C.ar    
  29 C29            0.8649    -3.5301     4.4726 C.ar    
  30 C30            1.0279    -3.9849     5.7719 C.ar    
  31 C31           -0.0144    -4.6838     6.3622 C.ar    
  32 C32           -1.1725    -4.9021     5.6407 C.ar    
  33 N33           -1.2945    -4.4502     4.4077 N.ar    
  34 H34            4.6780     0.9437     0.1870 H       
  35 H35            5.0829     3.3520     0.2592 H       
  36 H36            3.2017     4.9338     0.1941 H       
  37 H37            0.8916     4.1195     0.0558 H       
  38 H38           -1.3670    -1.9168    -0.0180 H       
  39 H39           -0.5443     3.5588     0.0303 H       
  40 H40           -2.0693     1.4216    -1.5265 H       
  41 H41           -2.4912     3.1491    -1.4496 H       
  42 H42           -0.9761     2.6369    -2.2308 H       
  43 H43           -2.3157     1.2511     0.9540 H       
  44 H44           -1.3980     2.3450     2.0168 H       
  45 H45           -2.7376     2.9786     1.0308 H       
  46 H46            3.0052    -2.1057     0.1221 H       
  47 H47           -0.1332    -5.2561     1.5887 H       
  48 H48           -0.2402    -4.5566    -0.5579 H       
  49 H49           -2.4532    -3.9067    -1.5206 H       
  50 H50           -3.1463    -2.4068     0.3467 H       
  51 H51           -4.3842    -3.6526     0.0435 H       
  52 H52           -4.1811    -4.3729     2.1761 H       
  53 H53           -2.9458    -3.1272     2.4795 H       
  54 H54           -1.8040    -6.9380     1.1813 H       
  55 H55           -3.5258    -6.5600     1.4310 H       
  56 H56           -3.7017    -5.9304    -0.7326 H       
  57 H57           -1.9776    -6.3069    -0.9820 H       
  58 H58            0.4165    -2.8473     2.0451 H       
  59 H59           -1.3072    -2.5523     2.3773 H       
  60 H60            1.6559    -2.9827     3.9816 H       
  61 H61            1.9449    -3.7997     6.3116 H       
  62 H62            0.0781    -5.0531     7.3728 H       
  63 H63           -1.9888    -5.4455     6.0932 H       
@<TRIPOS>BOND
   1    1    2 am
   2    1   10 1
   3    1   15 1
   4    2    3 1
   5    2   14 2
   6    3    4 2
   7    3   11 1
   8    4    5 1
   9    4   18 1
  10    5    6 ar
  11    5   10 ar
  12    6    7 ar
  13    6   34 1
  14    7    8 ar
  15    7   35 1
  16    8    9 ar
  17    8   36 1
  18    9   10 ar
  19    9   37 1
  20   11   12 2
  21   11   13 am
  22   13   21 1
  23   13   38 1
  24   15   16 1
  25   15   17 1
  26   15   39 1
  27   16   40 1
  28   16   41 1
  29   16   42 1
  30   17   43 1
  31   17   44 1
  32   17   45 1
  33   18   46 1
  34   19   20 1
  35   19   24 1
  36   19   25 1
  37   20   21 1
  38   20   27 1
  39   20   47 1
  40   21   22 1
  41   21   48 1
  42   22   23 1
  43   22   26 1
  44   22   49 1
  45   23   24 1
  46   23   50 1
  47   23   51 1
  48   24   52 1
  49   24   53 1
  50   25   26 1
  51   25   54 1
  52   25   55 1
  53   26   56 1
  54   26   57 1
  55   27   28 1
  56   27   58 1
  57   27   59 1
  58   28   29 ar
  59   28   33 ar
  60   29   30 ar
  61   29   60 1
  62   30   31 ar
  63   30   61 1
  64   31   32 ar
  65   31   62 1
  66   32   33 ar
  67   32   63 1

#	End of record

