#	Name: ASD07110010
#	Creating user name:	WinNT
#	Creation time:	15. 06. 2019 21:08

#	Modifying user name:	WinNT
#	Modification time:	15. 06. 2019 21:08

#	Program:	/corina/corina34_cracker 3.40 0067  02.08.2006

@<TRIPOS>MOLECULE
ASD07110010
 422  431    0    0    0
SMALL
NO_CHARGES


@<TRIPOS>ATOM
   1 C1           -24.0007   -13.9213   -37.6936 C.2     
   2 O2           -24.2863   -14.9678   -37.1514 O.2     
   3 N3           -25.5668   -14.6192   -39.4156 N.3     
   4 C4           -24.6418   -13.5537   -39.0070 C.3     
   5 C5           -23.4298   -13.4675   -34.7328 C.2     
   6 O6           -24.6155   -13.3926   -34.9762 O.2     
   7 N7           -23.1142   -13.0845   -37.1189 N.am    
   8 C8           -22.4217   -13.3146   -35.8426 C.3     
   9 C9           -21.5306   -12.0832   -35.5762 C.3     
  10 C10          -22.1997   -10.9777   -36.4351 C.3     
  11 C11          -22.6734   -11.7897   -37.6691 C.3     
  12 C12          -23.3557   -13.4617   -31.0780 C.2     
  13 O13          -22.1967   -13.1059   -31.0465 O.2     
  14 N14          -23.0136   -13.6873   -33.4699 N.am    
  15 C15          -23.9935   -13.8359   -32.3911 C.3     
  16 C16          -24.4697   -15.2887   -32.3312 C.3     
  17 O17          -23.3762   -16.1337   -31.9676 O.3     
  18 C18          -24.1742   -13.8552   -27.5371 C.2     
  19 O19          -25.3233   -14.2144   -27.6836 O.2     
  20 N20          -24.0733   -13.5224   -29.9388 N.am    
  21 C21          -23.4532   -13.1586   -28.6623 C.3     
  22 C22          -23.5427   -11.6440   -28.4651 C.3     
  23 C23          -22.7077   -10.9400   -29.5365 C.3     
  24 C24          -22.9240    -9.4284   -29.4402 C.3     
  25 C25          -21.2269   -11.2581   -29.3197 C.3     
  26 C26          -21.2532   -14.5765   -27.0413 C.2     
  27 O27          -21.7584   -15.2731   -27.8960 O.2     
  28 N28          -23.5420   -14.0789   -26.3680 N.am    
  29 C29          -22.1258   -13.7965   -26.0919 C.3     
  30 C30          -21.8455   -14.2367   -24.6396 C.3     
  31 C31          -22.9756   -15.2633   -24.3634 C.3     
  32 C32          -24.1576   -14.6413   -25.1522 C.3     
  33 C33          -18.9916   -16.7223   -27.2631 C.2     
  34 O34          -19.5895   -17.0088   -26.2476 O.2     
  35 N35          -19.9114   -14.4999   -26.9406 N.am    
  36 C36          -19.0636   -15.3197   -27.8097 C.3     
  37 C37          -17.6570   -14.7202   -27.8628 C.3     
  38 C38          -17.7128   -13.3653   -28.5203 C.2     
  39 C39          -17.5086   -13.0996   -29.8201 C.2     
  40 N40          -17.6423   -11.7571   -30.0485 N.pl3   
  41 C41          -17.9434   -11.1097   -28.8712 C.ar    
  42 C42          -18.1784    -9.7786   -28.5434 C.ar    
  43 C43          -18.4637    -9.4350   -27.2399 C.ar    
  44 C44          -18.5193   -10.4044   -26.2482 C.ar    
  45 C45          -18.2912   -11.7181   -26.5481 C.ar    
  46 C46          -18.0066   -12.0894   -27.8633 C.ar    
  47 C47          -16.9191   -19.6780   -27.8387 C.2     
  48 O48          -16.3940   -19.3170   -28.8706 O.2     
  49 N49          -18.2627   -17.6582   -27.9028 N.am    
  50 C50          -18.1926   -19.0216   -27.3715 C.3     
  51 C51          -19.3942   -19.8261   -27.8715 C.3     
  52 C52          -20.6586   -19.2637   -27.2749 C.ar    
  53 C53          -21.3472   -18.2627   -27.9348 C.ar    
  54 C54          -22.5063   -17.7451   -27.3898 C.ar    
  55 C55          -22.9795   -18.2309   -26.1795 C.ar    
  56 O56          -24.1198   -17.7237   -25.6415 O.3     
  57 C57          -22.2870   -19.2357   -25.5196 C.ar    
  58 C58          -21.1312   -19.7535   -26.0714 C.ar    
  59 C59          -15.4634   -22.1818   -28.7929 C.2     
  60 O60          -16.5349   -22.0496   -29.3454 O.2     
  61 N61          -16.3637   -20.6663   -27.1099 N.am    
  62 C62          -15.1893   -21.4611   -27.4981 C.3     
  63 C63          -14.9359   -22.4846   -26.3712 C.3     
  64 C64          -16.3194   -22.5860   -25.6763 C.3     
  65 C65          -16.8292   -21.1252   -25.7885 C.3     
  66 C66          -13.5752   -24.4850   -30.9847 C.2     
  67 O67          -12.5882   -24.4786   -30.2799 O.2     
  68 N68          -14.5177   -22.9731   -29.3369 N.am    
  69 C69          -14.7842   -23.6737   -30.5957 C.3     
  70 C70          -11.3802   -25.2862   -33.1147 C.2     
  71 O71          -11.5398   -24.0996   -33.3082 O.2     
  72 N72          -13.5908   -25.2176   -32.1158 N.am    
  73 C73          -12.4599   -26.0912   -32.4384 C.3     
  74 C74          -12.9278   -27.2060   -33.3760 C.3     
  75 C75          -13.8991   -28.0996   -32.6486 C.2     
  76 O76          -14.1078   -27.9323   -31.4703 O.2     
  77 O77          -14.5323   -29.0813   -33.3096 O.3     
  78 C78           -9.3877   -24.8563   -35.5316 C.2     
  79 O79          -10.3767   -25.3170   -36.0612 O.2     
  80 N80          -10.2374   -25.8848   -33.5045 N.am    
  81 C81           -9.1444   -25.0844   -34.0620 C.3     
  82 C82           -7.8204   -25.8276   -33.8735 C.3     
  83 C83           -7.5042   -25.9256   -32.4034 C.2     
  84 O84           -8.2034   -25.3607   -31.5960 O.2     
  85 O85           -6.4457   -26.6405   -31.9907 O.3     
  86 C86           -7.4286   -23.6678   -38.3799 C.2     
  87 O87           -6.4702   -23.2844   -37.7431 O.2     
  88 N88           -8.5062   -24.1403   -36.2575 N.am    
  89 C89           -8.7427   -23.9186   -37.6861 C.3     
  90 C90           -9.6561   -22.7050   -37.8696 C.3     
  91 C91           -5.8043   -22.1020   -40.4312 C.2     
  92 O92           -6.4894   -21.3692   -39.7496 O.2     
  93 N93           -7.3184   -23.8694   -39.7079 N.am    
  94 C94           -6.1332   -23.5697   -40.5246 C.3     
  95 C95           -6.4766   -23.9388   -41.9832 C.3     
  96 C96           -8.0275   -23.8953   -41.9967 C.3     
  97 C97           -8.3640   -24.4331   -40.5810 C.3     
  98 C98           -3.6707   -19.7527   -42.2456 C.2     
  99 O99           -3.2935   -20.5856   -43.0424 O.2     
 100 N100          -4.7488   -21.6037   -41.1051 N.am    
 101 C101          -4.4290   -20.1769   -41.0143 C.3     
 102 C102          -3.5695   -19.9248   -39.7739 C.3     
 103 C103          -4.3912   -20.2152   -38.5164 C.3     
 104 C104          -2.3456   -20.8423   -39.8065 C.3     
 105 C105          -1.9492   -16.7122   -43.3204 C.2     
 106 O106          -2.1508   -16.1569   -42.2612 O.2     
 107 N107          -3.4119   -18.4478   -42.4614 N.am    
 108 C108          -2.5954   -18.0428   -43.6084 C.3     
 109 C109          -3.4831   -17.9208   -44.8486 C.3     
 110 C110          -4.0404   -19.2980   -45.2144 C.3     
 111 C111          -4.9147   -19.1779   -46.4359 C.2     
 112 O112          -5.0757   -18.1012   -46.9601 O.2     
 113 O113          -5.5147   -20.2669   -46.9415 O.3     
 114 C114          -1.3110   -13.7182   -44.2334 C.2     
 115 O115          -2.4245   -13.8918   -44.6816 O.2     
 116 N116          -1.1473   -16.1394   -44.2397 N.am    
 117 C117          -0.4325   -14.9016   -43.9188 C.3     
 118 C118           0.8484   -14.8216   -44.7518 C.3     
 119 C119           1.7908   -15.9195   -44.3307 C.2     
 120 O120           1.4395   -16.7367   -43.5130 O.2     
 121 O121           3.0207   -15.9896   -44.8639 O.3     
 122 C122          -0.8524   -10.1092   -44.5910 C.2     
 123 O123           0.3555   -10.2006   -44.5325 O.2     
 124 N124          -0.8592   -12.4670   -44.0168 N.am    
 125 C125          -1.7133   -11.3167   -44.3226 C.3     
 126 C126          -2.6326   -11.0334   -43.1329 C.3     
 127 C127          -3.5919   -12.2093   -42.9383 C.3     
 128 C128          -4.4974   -11.9302   -41.7664 C.2     
 129 O129          -4.3864   -10.8929   -41.1478 O.2     
 130 N130          -5.4306   -12.8333   -41.4058 N.am    
 131 C131          -1.3748    -6.5018   -44.8672 C.2     
 132 O132          -2.5217    -6.5819   -44.4809 O.2     
 133 N133          -1.4249    -8.9278   -44.8960 N.am    
 134 C134          -0.5880    -7.7540   -45.1569 C.3     
 135 C135          -0.1518    -7.7545   -46.6233 C.3     
 136 C136           0.7508    -8.9616   -46.8866 C.3     
 137 C137           1.1805    -8.9620   -48.3310 C.2     
 138 O138           0.8036    -8.0867   -49.0737 O.2     
 139 O139           1.9820    -9.9348   -48.7925 O.3     
 140 C140          -1.0056    -2.9313   -45.5588 C.2     
 141 O141          -0.0585    -3.1146   -46.2939 O.2     
 142 N142          -0.8040    -5.2928   -45.0375 N.am    
 143 C143          -1.5689    -4.0754   -44.7559 C.3     
 144 C144          -1.4743    -3.7472   -43.2646 C.3     
 145 C145          -2.1578    -4.8510   -42.4550 C.3     
 146 C146          -2.0632    -4.5227   -40.9637 C.3     
 147 N147          -2.7177    -5.5796   -40.1885 N.pl3   
 148 C148          -2.7587    -5.5009   -38.8166 C.2     
 149 N149          -2.2152    -4.4859   -38.2055 N.2     
 150 N150          -3.3729    -6.4928   -38.0892 N.pl3   
 151 C151          -1.3273     0.7101   -45.5529 C.2     
 152 O152          -1.9517     0.7091   -44.5132 O.2     
 153 N153          -1.5543    -1.7042   -45.4601 N.am    
 154 C154          -1.0067    -0.5920   -46.2406 C.3     
 155 C155          -1.6270    -0.5963   -47.6392 C.3     
 156 C156          -1.2048    -1.8435   -48.3721 C.ar    
 157 C157          -1.9701    -2.9911   -48.2812 C.ar    
 158 C158          -1.5829    -4.1352   -48.9534 C.ar    
 159 C159          -0.4305    -4.1316   -49.7170 C.ar    
 160 C160           0.3343    -2.9838   -49.8086 C.ar    
 161 C161          -0.0553    -1.8384   -49.1399 C.ar    
 162 C162          -2.6987     3.5225   -45.9773 C.2     
 163 O163          -3.2822     2.8011   -46.7583 O.2     
 164 N164          -0.9201     1.8757   -46.0933 N.am    
 165 C165          -1.3249     3.1458   -45.4857 C.3     
 166 C166          -0.3268     4.2382   -45.8745 C.3     
 167 C167           1.0141     3.9367   -45.2563 C.2     
 168 O168           1.1800     2.9047   -44.6412 O.2     
 169 N169           2.0290     4.8138   -45.3870 N.am    
 170 C170          -4.6509     5.7036   -47.2579 C.2     
 171 O171          -3.6005     5.9399   -47.8162 O.2     
 172 N172          -3.2790     4.6611   -45.5490 N.am    
 173 C173          -4.6560     4.9734   -45.9396 C.3     
 174 C174          -5.3017     5.8564   -44.8700 C.3     
 175 C175          -5.4413     5.0739   -43.5897 C.2     
 176 O176          -5.1602     3.8943   -43.5662 O.2     
 177 N177          -5.8785     5.6848   -42.4707 N.am    
 178 C178          -7.0558     7.6420   -49.2128 C.2     
 179 O179          -7.8688     7.6460   -48.3128 O.2     
 180 N180          -5.8136     6.0940   -47.8165 N.am    
 181 C181          -5.8087     6.8039   -49.0980 C.3     
 182 C182          -5.7688     5.7895   -50.2427 C.3     
 183 C183          -7.0002     4.8848   -50.1656 C.3     
 184 C184          -7.0254     3.9532   -51.3791 C.3     
 185 C185          -4.5026     4.9386   -50.1262 C.3     
 186 C186          -8.8009     9.4287   -51.8822 C.2     
 187 O187          -8.0870     8.9562   -52.7413 O.2     
 188 N188          -7.2678     8.3872   -50.3157 N.am    
 189 C189          -8.4802     9.2020   -50.4273 C.3     
 190 C190          -8.2542    10.5495   -49.7388 C.3     
 191 C191          -8.0551    10.3315   -48.2611 C.2     
 192 C192          -7.0025    10.7520   -47.5339 C.2     
 193 N193          -7.2231    10.3449   -46.2457 N.pl3   
 194 C194          -8.4036     9.6894   -46.2306 C.2     
 195 N195          -8.8979     9.6896   -47.4384 N.2     
 196 C196         -10.9984    11.6422   -53.7886 C.2     
 197 O197         -11.2840    12.2955   -52.8076 O.2     
 198 N198          -9.8810    10.1565   -52.2287 N.am    
 199 C199         -10.1928    10.3769   -53.6431 C.3     
 200 C200         -11.0013     9.1931   -54.1776 C.3     
 201 C201         -10.1385     7.9301   -54.1454 C.3     
 202 C202         -10.9835     6.7244   -54.5615 C.3     
 203 C203          -8.9651     8.0892   -55.1142 C.3     
 204 C204         -13.0074    13.2071   -56.4112 C.2     
 205 O205         -12.9457    12.2260   -57.1215 O.2     
 206 N206         -11.4015    12.0478   -55.0091 N.am    
 207 C207         -12.1847    13.2777   -55.1506 C.3     
 208 C208         -11.2394    14.4785   -55.2251 C.3     
 209 C209         -10.4939    14.6239   -53.8970 C.3     
 210 C210          -9.5629    15.8066   -53.9704 C.2     
 211 O211          -9.5016    16.4681   -54.9851 O.2     
 212 N212          -8.7982    16.1293   -52.9085 N.am    
 213 C213         -13.7786    14.6219   -59.1446 C.2     
 214 O214         -12.6341    14.9689   -58.9724 O.2     
 215 N215         -13.8119    14.2343   -56.7493 N.am    
 216 C216         -14.6117    14.1656   -57.9748 C.3     
 217 C217         -15.8361    15.0725   -57.8361 C.3     
 218 C218         -16.7317    14.5441   -56.7453 C.2     
 219 C219         -17.1650    15.2344   -55.6732 C.2     
 220 N220         -17.9493    14.3820   -54.9439 N.pl3   
 221 C221         -17.9680    13.1997   -55.5961 C.2     
 222 N222         -17.2418    13.3055   -56.6752 N.2     
 223 O223         -14.3079    14.6429   -60.3780 O.3     
 224 H224         -26.0098   -14.3962   -40.2943 H       
 225 H225         -25.0941   -15.5093   -39.4646 H       
 226 H226         -25.1912   -12.6191   -38.8941 H       
 227 H227         -23.8696   -13.4318   -39.7667 H       
 228 H228         -21.8069   -14.2121   -35.9109 H       
 229 H229         -21.5491   -11.8149   -34.5199 H       
 230 H230         -20.5095   -12.2664   -35.9108 H       
 231 H231         -23.0438   -10.5317   -35.9092 H       
 232 H232         -21.4755   -10.2164   -36.7251 H       
 233 H233         -21.8506   -11.9353   -38.3690 H       
 234 H234         -23.5047   -11.2832   -38.1596 H       
 235 H235         -22.0652   -13.7471   -33.2753 H       
 236 H236         -24.8448   -13.1821   -32.5809 H       
 237 H237         -25.2625   -15.3808   -31.5888 H       
 238 H238         -24.8502   -15.5869   -33.3081 H       
 239 H239         -23.6058   -17.0713   -31.9103 H       
 240 H240         -25.0002   -13.8069   -29.9640 H       
 241 H241         -22.4066   -13.4632   -28.6669 H       
 242 H242         -24.5824   -11.3276   -28.5487 H       
 243 H243         -23.1617   -11.3830   -27.4778 H       
 244 H244         -23.0135   -11.2887   -30.5229 H       
 245 H245         -22.6181    -9.0798   -28.4538 H       
 246 H246         -22.3291    -8.9269   -30.2035 H       
 247 H247         -23.9789    -9.2018   -29.5947 H       
 248 H248         -21.0633   -12.3286   -29.4434 H       
 249 H249         -20.6275   -10.7124   -30.0485 H       
 250 H250         -20.9348   -10.9599   -28.3128 H       
 251 H251         -21.9322   -12.7296   -26.2023 H       
 252 H252         -20.8668   -14.7102   -24.5622 H       
 253 H253         -21.9198   -13.3889   -23.9585 H       
 254 H254         -22.7145   -16.2465   -24.7549 H       
 255 H255         -23.2035   -15.3165   -23.2988 H       
 256 H256         -24.6333   -13.8532   -24.5685 H       
 257 H257         -24.8838   -15.4103   -25.4157 H       
 258 H258         -19.5070   -13.9019   -26.2926 H       
 259 H259         -19.4870   -15.3424   -28.8138 H       
 260 H260         -17.2676   -14.6167   -26.8499 H       
 261 H261         -17.0037   -15.3765   -28.4379 H       
 262 H262         -17.2734   -13.8363   -30.5740 H       
 263 H263         -17.5401   -11.3258   -30.9113 H       
 264 H264         -18.1371    -9.0169   -29.3079 H       
 265 H265         -18.6456    -8.4008   -26.9873 H       
 266 H266         -18.7442   -10.1183   -25.2314 H       
 267 H267         -18.3356   -12.4669   -25.7711 H       
 268 H268         -17.7844   -17.4290   -28.7150 H       
 269 H269         -18.2057   -18.9882   -26.2821 H       
 270 H270         -19.4463   -19.7638   -28.9584 H       
 271 H271         -19.2835   -20.8684   -27.5721 H       
 272 H272         -20.9785   -17.8848   -28.8769 H       
 273 H273         -23.0435   -16.9627   -27.9053 H       
 274 H274         -24.9236   -18.1862   -25.9156 H       
 275 H275         -22.6531   -19.6153   -24.5771 H       
 276 H276         -20.5941   -20.5388   -25.5602 H       
 277 H277         -14.3225   -20.8102   -27.6126 H       
 278 H278         -14.6407   -23.4488   -26.7852 H       
 279 H279         -14.1817   -22.1147   -25.6767 H       
 280 H280         -16.9751   -23.2742   -26.2097 H       
 281 H281         -16.2117   -22.8813   -24.6326 H       
 282 H282         -16.3983   -20.5089   -24.9994 H       
 283 H283         -17.9178   -21.0989   -25.7397 H       
 284 H284         -13.6607   -23.0788   -28.8950 H       
 285 H285         -15.0004   -22.9460   -31.3778 H       
 286 H286         -15.6406   -24.3359   -30.4687 H       
 287 H287         -14.3509   -25.1665   -32.7164 H       
 288 H288         -12.0660   -26.5292   -31.5213 H       
 289 H289         -13.4183   -26.7678   -34.2452 H       
 290 H290         -12.0682   -27.7921   -33.7010 H       
 291 H291         -15.1460   -29.6285   -32.8005 H       
 292 H292         -10.1386   -26.8457   -33.4159 H       
 293 H293          -9.0984   -24.1242   -33.5480 H       
 294 H294          -7.9029   -26.8294   -34.2950 H       
 295 H295          -7.0233   -25.2844   -34.3812 H       
 296 H296          -6.2830   -26.6741   -31.0381 H       
 297 H297          -7.7152   -23.7718   -35.8339 H       
 298 H298          -9.2184   -24.7998   -38.1167 H       
 299 H299          -9.1453   -21.8091   -37.5165 H       
 300 H300          -9.9013   -22.5911   -38.9255 H       
 301 H301         -10.5724   -22.8501   -37.2974 H       
 302 H302          -5.2857   -24.1620   -40.1796 H       
 303 H303          -6.0642   -23.2037   -42.6743 H       
 304 H304          -6.1167   -24.9394   -42.2227 H       
 305 H305          -8.3886   -22.8751   -42.1268 H       
 306 H306          -8.4300   -24.5519   -42.7680 H       
 307 H307          -8.3235   -25.5222   -40.5669 H       
 308 H308          -9.3482   -24.0851   -40.2676 H       
 309 H309          -4.2009   -22.1898   -41.6503 H       
 310 H310          -5.3519   -19.6017   -40.9399 H       
 311 H311          -3.2437   -18.8847   -39.7629 H       
 312 H312          -4.7170   -21.2553   -38.5274 H       
 313 H313          -3.7789   -20.0356   -37.6328 H       
 314 H314          -5.2632   -19.5615   -38.4932 H       
 315 H315          -2.6684   -21.8812   -39.7395 H       
 316 H316          -1.8021   -20.6901   -40.7390 H       
 317 H317          -1.6942   -20.6092   -38.9642 H       
 318 H318          -3.7661   -17.7767   -41.8572 H       
 319 H319          -1.8229   -18.7909   -43.7867 H       
 320 H320          -4.3076   -17.2391   -44.6396 H       
 321 H321          -2.8942   -17.5346   -45.6804 H       
 322 H322          -3.2159   -19.9797   -45.4233 H       
 323 H323          -4.6293   -19.6843   -44.3825 H       
 324 H324          -6.0658   -20.1402   -47.7259 H       
 325 H325          -1.0434   -16.5468   -45.1139 H       
 326 H326          -0.1778   -14.8934   -42.8590 H       
 327 H327           0.6031   -14.9384   -45.8075 H       
 328 H328           1.3244   -13.8538   -44.5943 H       
 329 H329           3.5893   -16.7114   -44.5627 H       
 330 H330           0.0313   -12.3282   -43.6584 H       
 331 H331          -2.3164   -11.5360   -45.2037 H       
 332 H332          -2.0319   -10.9017   -42.2329 H       
 333 H333          -3.2047   -10.1255   -43.3239 H       
 334 H334          -4.1925   -12.3410   -43.8383 H       
 335 H335          -3.0197   -13.1172   -42.7472 H       
 336 H336          -5.5193   -13.6629   -41.9006 H       
 337 H337          -6.0134   -12.6537   -40.6515 H       
 338 H338          -2.3910    -8.8547   -44.9427 H       
 339 H339           0.2929    -7.7861   -44.5157 H       
 340 H340          -1.0316    -7.8120   -47.2642 H       
 341 H341           0.3960    -6.8372   -46.8397 H       
 342 H342           1.6306    -8.9040   -46.2457 H       
 343 H343           0.2030    -9.8788   -46.6701 H       
 344 H344           2.2308    -9.8928   -49.7260 H       
 345 H345           0.1132    -5.2287   -45.3464 H       
 346 H346          -2.6128    -4.2311   -45.0282 H       
 347 H347          -0.4261    -3.6790   -42.9733 H       
 348 H348          -1.9681    -2.7951   -43.0700 H       
 349 H349          -3.2060    -4.9191   -42.7463 H       
 350 H350          -1.6640    -5.8030   -42.6496 H       
 351 H351          -1.0151    -4.4546   -40.6724 H       
 352 H352          -2.5570    -3.5706   -40.7691 H       
 353 H353          -3.1222    -6.3349   -40.6433 H       
 354 H354          -2.2441    -4.4304   -37.2375 H       
 355 H355          -3.7773    -7.2481   -38.5439 H       
 356 H356          -3.4018    -6.4372   -37.1212 H       
 357 H357          -2.3118    -1.5575   -44.8722 H       
 358 H358           0.0746    -0.7031   -46.3223 H       
 359 H359          -2.7135    -0.5746   -47.5548 H       
 360 H360          -1.2877     0.2811   -48.1898 H       
 361 H361          -2.8704    -2.9939   -47.6846 H       
 362 H362          -2.1804    -5.0320   -48.8818 H       
 363 H363          -0.1276    -5.0257   -50.2416 H       
 364 H364           1.2347    -2.9811   -50.4049 H       
 365 H365           0.5402    -0.9406   -49.2145 H       
 366 H366          -0.3590     1.8737   -46.8845 H       
 367 H367          -1.3435     3.0400   -44.4010 H       
 368 H368          -0.2277     4.2704   -46.9595 H       
 369 H369          -0.6846     5.2025   -45.5136 H       
 370 H370           1.8964     5.6392   -45.8790 H       
 371 H371           2.8921     4.6197   -44.9891 H       
 372 H372          -2.7848     5.2738   -44.9822 H       
 373 H373          -5.2241     4.0485   -46.0388 H       
 374 H374          -4.6757     6.7313   -44.6946 H       
 375 H375          -6.2868     6.1766   -45.2093 H       
 376 H376          -6.1033     6.6282   -42.4895 H       
 377 H377          -5.9683     5.1811   -41.6466 H       
 378 H378          -6.6538     5.9050   -47.3700 H       
 379 H379          -4.9314     7.4484   -49.1529 H       
 380 H380          -5.7651     6.3176   -51.1962 H       
 381 H381          -6.9581     4.2909   -49.2525 H       
 382 H382          -7.9015     5.4976   -50.1593 H       
 383 H383          -6.1241     3.3403   -51.3855 H       
 384 H384          -7.9027     3.3087   -51.3242 H       
 385 H385          -7.0675     4.5470   -52.2922 H       
 386 H386          -4.5063     4.4104   -49.1727 H       
 387 H387          -4.4741     4.2159   -50.9417 H       
 388 H388          -3.6253     5.5831   -50.1811 H       
 389 H389          -6.6177     8.3840   -51.0355 H       
 390 H390          -9.3113     8.6842   -49.9484 H       
 391 H391          -7.3690    11.0278   -50.1581 H       
 392 H392          -9.1225    11.1889   -49.8980 H       
 393 H393          -6.1483    11.3039   -47.8973 H       
 394 H394          -6.6403    10.4986   -45.4857 H       
 395 H395          -8.8644     9.2425   -45.3620 H       
 396 H396         -10.4520    10.5344   -51.5416 H       
 397 H397          -9.2660    10.4692   -54.2093 H       
 398 H398         -11.8844     9.0459   -53.5557 H       
 399 H399         -11.3091     9.3969   -55.2032 H       
 400 H400          -9.7577     7.7759   -53.1358 H       
 401 H401         -11.3643     6.8786   -55.5711 H       
 402 H402         -10.3688     5.8246   -54.5385 H       
 403 H403         -11.8195     6.6110   -53.8712 H       
 404 H404          -8.3503     7.1894   -55.0913 H       
 405 H405          -9.3458     8.2434   -56.1238 H       
 406 H406          -8.3630     8.9482   -54.8178 H       
 407 H407         -11.1730    11.5253   -55.7938 H       
 408 H408         -12.8457    13.3885   -54.2910 H       
 409 H409         -10.5208    14.3258   -56.0303 H       
 410 H410         -11.8157    15.3831   -55.4192 H       
 411 H411         -11.2125    14.7766   -53.0918 H       
 412 H412          -9.9176    13.7193   -53.7029 H       
 413 H413          -8.8472    15.6002   -52.0969 H       
 414 H414          -8.1990    16.8905   -52.9557 H       
 415 H415         -13.8613    15.0190   -56.1812 H       
 416 H416         -14.9372    13.1384   -58.1392 H       
 417 H417         -15.5134    16.0826   -57.5837 H       
 418 H418         -16.3834    15.0908   -58.7786 H       
 419 H419         -16.9371    16.2627   -55.4346 H       
 420 H420         -18.4062    14.5886   -54.1136 H       
 421 H421         -18.4994    12.3144   -55.2794 H       
 422 H422         -13.7348    14.9433   -61.0966 H       
@<TRIPOS>BOND
   1    1    2 2
   2    1    4 1
   3    1    7 am
   4    3    4 1
   5    3  224 1
   6    3  225 1
   7    4  226 1
   8    4  227 1
   9    5    6 2
  10    5   14 am
  11    5    8 1
  12    7    8 1
  13    7   11 1
  14    8    9 1
  15    8  228 1
  16    9   10 1
  17    9  229 1
  18    9  230 1
  19   10   11 1
  20   10  231 1
  21   10  232 1
  22   11  233 1
  23   11  234 1
  24   12   13 2
  25   12   15 1
  26   12   20 am
  27   14   15 1
  28   14  235 1
  29   15   16 1
  30   15  236 1
  31   16   17 1
  32   16  237 1
  33   16  238 1
  34   17  239 1
  35   18   19 2
  36   18   21 1
  37   18   28 am
  38   20   21 1
  39   20  240 1
  40   21   22 1
  41   21  241 1
  42   22   23 1
  43   22  242 1
  44   22  243 1
  45   23   24 1
  46   23   25 1
  47   23  244 1
  48   24  245 1
  49   24  246 1
  50   24  247 1
  51   25  248 1
  52   25  249 1
  53   25  250 1
  54   26   27 2
  55   26   35 am
  56   26   29 1
  57   28   29 1
  58   28   32 1
  59   29   30 1
  60   29  251 1
  61   30   31 1
  62   30  252 1
  63   30  253 1
  64   31   32 1
  65   31  254 1
  66   31  255 1
  67   32  256 1
  68   32  257 1
  69   33   34 2
  70   33   36 1
  71   33   49 am
  72   35   36 1
  73   35  258 1
  74   36   37 1
  75   36  259 1
  76   37   38 1
  77   37  260 1
  78   37  261 1
  79   38   39 2
  80   38   46 1
  81   39   40 1
  82   39  262 1
  83   40   41 1
  84   40  263 1
  85   41   42 ar
  86   41   46 ar
  87   42   43 ar
  88   42  264 1
  89   43   44 ar
  90   43  265 1
  91   44   45 ar
  92   44  266 1
  93   45   46 ar
  94   45  267 1
  95   47   48 2
  96   47   50 1
  97   47   61 am
  98   49   50 1
  99   49  268 1
 100   50   51 1
 101   50  269 1
 102   51   52 1
 103   51  270 1
 104   51  271 1
 105   52   53 ar
 106   52   58 ar
 107   53   54 ar
 108   53  272 1
 109   54   55 ar
 110   54  273 1
 111   55   56 1
 112   55   57 ar
 113   56  274 1
 114   57   58 ar
 115   57  275 1
 116   58  276 1
 117   59   60 2
 118   59   68 am
 119   59   62 1
 120   61   62 1
 121   61   65 1
 122   62   63 1
 123   62  277 1
 124   63   64 1
 125   63  278 1
 126   63  279 1
 127   64   65 1
 128   64  280 1
 129   64  281 1
 130   65  282 1
 131   65  283 1
 132   66   67 2
 133   66   69 1
 134   66   72 am
 135   68   69 1
 136   68  284 1
 137   69  285 1
 138   69  286 1
 139   70   71 2
 140   70   73 1
 141   70   80 am
 142   72   73 1
 143   72  287 1
 144   73   74 1
 145   73  288 1
 146   74   75 1
 147   74  289 1
 148   74  290 1
 149   75   76 2
 150   75   77 1
 151   77  291 1
 152   78   79 2
 153   78   81 1
 154   78   88 am
 155   80   81 1
 156   80  292 1
 157   81   82 1
 158   81  293 1
 159   82   83 1
 160   82  294 1
 161   82  295 1
 162   83   84 2
 163   83   85 1
 164   85  296 1
 165   86   87 2
 166   86   89 1
 167   86   93 am
 168   88   89 1
 169   88  297 1
 170   89   90 1
 171   89  298 1
 172   90  299 1
 173   90  300 1
 174   90  301 1
 175   91   92 2
 176   91  100 am
 177   91   94 1
 178   93   94 1
 179   93   97 1
 180   94   95 1
 181   94  302 1
 182   95   96 1
 183   95  303 1
 184   95  304 1
 185   96   97 1
 186   96  305 1
 187   96  306 1
 188   97  307 1
 189   97  308 1
 190   98   99 2
 191   98  101 1
 192   98  107 am
 193  100  101 1
 194  100  309 1
 195  101  102 1
 196  101  310 1
 197  102  103 1
 198  102  104 1
 199  102  311 1
 200  103  312 1
 201  103  313 1
 202  103  314 1
 203  104  315 1
 204  104  316 1
 205  104  317 1
 206  105  106 2
 207  105  108 1
 208  105  116 am
 209  107  108 1
 210  107  318 1
 211  108  109 1
 212  108  319 1
 213  109  110 1
 214  109  320 1
 215  109  321 1
 216  110  111 1
 217  110  322 1
 218  110  323 1
 219  111  112 2
 220  111  113 1
 221  113  324 1
 222  114  115 2
 223  114  117 1
 224  114  124 am
 225  116  117 1
 226  116  325 1
 227  117  118 1
 228  117  326 1
 229  118  119 1
 230  118  327 1
 231  118  328 1
 232  119  120 2
 233  119  121 1
 234  121  329 1
 235  122  123 2
 236  122  125 1
 237  122  133 am
 238  124  125 1
 239  124  330 1
 240  125  126 1
 241  125  331 1
 242  126  127 1
 243  126  332 1
 244  126  333 1
 245  127  128 1
 246  127  334 1
 247  127  335 1
 248  128  129 2
 249  128  130 am
 250  130  336 1
 251  130  337 1
 252  131  132 2
 253  131  134 1
 254  131  142 am
 255  133  134 1
 256  133  338 1
 257  134  135 1
 258  134  339 1
 259  135  136 1
 260  135  340 1
 261  135  341 1
 262  136  137 1
 263  136  342 1
 264  136  343 1
 265  137  138 2
 266  137  139 1
 267  139  344 1
 268  140  141 2
 269  140  143 1
 270  140  153 am
 271  142  143 1
 272  142  345 1
 273  143  144 1
 274  143  346 1
 275  144  145 1
 276  144  347 1
 277  144  348 1
 278  145  146 1
 279  145  349 1
 280  145  350 1
 281  146  147 1
 282  146  351 1
 283  146  352 1
 284  147  148 1
 285  147  353 1
 286  148  149 2
 287  148  150 1
 288  149  354 1
 289  150  355 1
 290  150  356 1
 291  151  152 2
 292  151  154 1
 293  151  164 am
 294  153  154 1
 295  153  357 1
 296  154  155 1
 297  154  358 1
 298  155  156 1
 299  155  359 1
 300  155  360 1
 301  156  157 ar
 302  156  161 ar
 303  157  158 ar
 304  157  361 1
 305  158  159 ar
 306  158  362 1
 307  159  160 ar
 308  159  363 1
 309  160  161 ar
 310  160  364 1
 311  161  365 1
 312  162  163 2
 313  162  165 1
 314  162  172 am
 315  164  165 1
 316  164  366 1
 317  165  166 1
 318  165  367 1
 319  166  167 1
 320  166  368 1
 321  166  369 1
 322  167  168 2
 323  167  169 am
 324  169  370 1
 325  169  371 1
 326  170  171 2
 327  170  173 1
 328  170  180 am
 329  172  173 1
 330  172  372 1
 331  173  174 1
 332  173  373 1
 333  174  175 1
 334  174  374 1
 335  174  375 1
 336  175  176 2
 337  175  177 am
 338  177  376 1
 339  177  377 1
 340  178  179 2
 341  178  181 1
 342  178  188 am
 343  180  181 1
 344  180  378 1
 345  181  182 1
 346  181  379 1
 347  182  183 1
 348  182  185 1
 349  182  380 1
 350  183  184 1
 351  183  381 1
 352  183  382 1
 353  184  383 1
 354  184  384 1
 355  184  385 1
 356  185  386 1
 357  185  387 1
 358  185  388 1
 359  186  187 2
 360  186  189 1
 361  186  198 am
 362  188  189 1
 363  188  389 1
 364  189  190 1
 365  189  390 1
 366  190  191 1
 367  190  391 1
 368  190  392 1
 369  191  192 2
 370  191  195 1
 371  192  193 1
 372  192  393 1
 373  193  194 1
 374  193  394 1
 375  194  195 2
 376  194  395 1
 377  196  197 2
 378  196  199 1
 379  196  206 am
 380  198  199 1
 381  198  396 1
 382  199  200 1
 383  199  397 1
 384  200  201 1
 385  200  398 1
 386  200  399 1
 387  201  202 1
 388  201  203 1
 389  201  400 1
 390  202  401 1
 391  202  402 1
 392  202  403 1
 393  203  404 1
 394  203  405 1
 395  203  406 1
 396  204  205 2
 397  204  207 1
 398  204  215 am
 399  206  207 1
 400  206  407 1
 401  207  208 1
 402  207  408 1
 403  208  209 1
 404  208  409 1
 405  208  410 1
 406  209  210 1
 407  209  411 1
 408  209  412 1
 409  210  211 2
 410  210  212 am
 411  212  413 1
 412  212  414 1
 413  213  214 2
 414  213  216 1
 415  213  223 1
 416  215  216 1
 417  215  415 1
 418  216  217 1
 419  216  416 1
 420  217  218 1
 421  217  417 1
 422  217  418 1
 423  218  219 2
 424  218  222 1
 425  219  220 1
 426  219  419 1
 427  220  221 1
 428  220  420 1
 429  221  222 2
 430  221  421 1
 431  223  422 1

#	End of record

