#	Name: ASD01912552
#	Creating user name:	WinNT
#	Creation time:	15. 06. 2019 19:59

#	Modifying user name:	WinNT
#	Modification time:	15. 06. 2019 19:59

#	Program:	/corina/corina34_cracker 3.40 0067  02.08.2006

@<TRIPOS>MOLECULE
ASD01912552
  53   57    0    0    0
SMALL
NO_CHARGES


@<TRIPOS>ATOM
   1 C1            -0.0218     1.7546     0.0117 C.2     
   2 S2             0.0021    -0.0041     0.0020 S.3     
   3 C3             1.1696     2.6219     0.0050 C.2     
   4 N4             2.4669     2.2109    -0.1051 N.pl3   
   5 C5             1.1777     3.9854     0.1019 C.2     
   6 C6             2.5155     4.4101     0.0546 C.2     
   7 N7             3.2838     3.3480    -0.0691 N.2     
   8 C8             2.9834     5.8170     0.1274 C.ar    
   9 C9             4.3453     6.1047     0.0690 C.ar    
  10 C10            2.0619     6.8548     0.2486 C.ar    
  11 C11            2.5024     8.1612     0.3154 C.ar    
  12 C12            3.8560     8.4408     0.2623 C.ar    
  13 C13            4.7749     7.4146     0.1367 C.ar    
  14 C14            2.9239     0.8252    -0.2368 C.3     
  15 C15            2.9941     0.4560    -1.6961 C.2     
  16 N16            3.3924    -0.7790    -2.0604 N.am    
  17 O17            2.6922     1.2701    -2.5429 O.2     
  18 C18            3.4680    -1.1601    -3.4789 C.3     
  19 C19            4.8521    -1.7599    -3.7487 C.3     
  20 N20            5.1030    -2.8513    -2.7981 N.3     
  21 C21            5.1354    -2.3567    -1.4152 C.3     
  22 C22            3.7687    -1.7794    -1.0501 C.3     
  23 C23            6.2715    -3.5236    -3.1119 C.ar    
  24 N24            6.6543    -4.5424    -2.3563 N.ar    
  25 C25            7.7656    -5.2061    -2.6286 C.ar    
  26 C26            8.5315    -4.8238    -3.7188 C.ar    
  27 C27            8.1019    -3.7538    -4.4879 C.ar    
  28 N28            6.9778    -3.1364    -4.1638 N.ar    
  29 C29           -1.7555    -0.0596     0.0174 C.2     
  30 C30           -2.2476     1.1835     0.0284 C.2     
  31 C31           -1.3007     2.1869     0.0203 C.2     
  32 Cl32          -3.9523     1.5109     0.0454 Cl      
  33 H33            0.3105     4.6221     0.1973 H       
  34 H34            5.0636     5.3041    -0.0286 H       
  35 H35            1.0048     6.6375     0.2898 H       
  36 H36            1.7889     8.9665     0.4090 H       
  37 H37            4.1963     9.4644     0.3145 H       
  38 H38            5.8306     7.6384     0.0960 H       
  39 H39            3.9123     0.7245     0.2115 H       
  40 H40            2.2246     0.1621     0.2726 H       
  41 H41            2.6988    -1.8998    -3.7008 H       
  42 H42            3.3230    -0.2784    -4.1032 H       
  43 H43            4.8880    -2.1485    -4.7664 H       
  44 H44            5.6128    -0.9888    -3.6263 H       
  45 H45            5.3767    -3.1782    -0.7407 H       
  46 H46            5.8921    -1.5774    -1.3253 H       
  47 H47            3.8205    -1.3090    -0.0682 H       
  48 H48            3.0257    -2.5768    -1.0384 H       
  49 H49            8.0727    -6.0355    -2.0089 H       
  50 H50            9.4434    -5.3482    -3.9634 H       
  51 H51            8.6758    -3.4305    -5.3437 H       
  52 H52           -2.3484    -0.9623     0.0173 H       
  53 H53           -1.5618     3.2349     0.0277 H       
@<TRIPOS>BOND
   1    1    2 1
   2    1    3 1
   3    1   31 2
   4    2   29 1
   5    3    4 1
   6    3    5 2
   7    4   14 1
   8    4    7 1
   9    5    6 1
  10    5   33 1
  11    6    7 2
  12    6    8 1
  13    8    9 ar
  14    8   10 ar
  15    9   13 ar
  16    9   34 1
  17   10   11 ar
  18   10   35 1
  19   11   12 ar
  20   11   36 1
  21   12   13 ar
  22   12   37 1
  23   13   38 1
  24   14   15 1
  25   14   39 1
  26   14   40 1
  27   15   16 am
  28   15   17 2
  29   16   18 1
  30   16   22 1
  31   18   19 1
  32   18   41 1
  33   18   42 1
  34   19   20 1
  35   19   43 1
  36   19   44 1
  37   20   21 1
  38   20   23 1
  39   21   22 1
  40   21   45 1
  41   21   46 1
  42   22   47 1
  43   22   48 1
  44   23   24 ar
  45   23   28 ar
  46   24   25 ar
  47   25   26 ar
  48   25   49 1
  49   26   27 ar
  50   26   50 1
  51   27   28 ar
  52   27   51 1
  53   29   30 2
  54   29   52 1
  55   30   31 1
  56   30   32 1
  57   31   53 1

#	End of record

