#	Name: ASD01148405
#	Creating user name:	WinNT
#	Creation time:	15. 06. 2019 19:02

#	Modifying user name:	WinNT
#	Modification time:	15. 06. 2019 19:02

#	Program:	/corina/corina34_cracker 3.40 0067  02.08.2006

@<TRIPOS>MOLECULE
ASD01148405
  47   49    0    0    0
SMALL
NO_CHARGES


@<TRIPOS>ATOM
   1 C1             0.3638     1.8416     0.0679 C.ar    
   2 C2             0.4623     0.4639    -0.0073 C.ar    
   3 C3            -0.6829    -0.3071    -0.0943 C.ar    
   4 C4            -1.9261     0.3001    -0.1060 C.ar    
   5 C5            -2.0239     1.6768    -0.0308 C.ar    
   6 C6            -0.8801     2.4474     0.0614 C.ar    
   7 C7            -3.3782     2.3375    -0.0436 C.3     
   8 O8            -4.3702     1.4934     0.5753 O.3     
   9 C9            -3.3982     3.5776     0.8817 C.3     
  10 C10           -3.9242     3.0077     2.1854 C.2     
  11 N11           -4.4446     1.8518     1.9410 N.2     
  12 C12           -3.8532     3.6623     3.5064 C.ar    
  13 C13           -4.3795     3.0230     4.6322 C.ar    
  14 C14           -3.2548     4.9184     3.6324 C.ar    
  15 C15           -3.1886     5.5289     4.8645 C.ar    
  16 C16           -3.7199     4.8924     5.9889 C.ar    
  17 C17           -4.3133     3.6334     5.8639 C.ar    
  18 C18           -3.6489     5.5475     7.3111 C.2     
  19 O19           -4.2074     5.0475     8.2679 O.2     
  20 N20           -2.9649     6.6997     7.4564 N.am    
  21 C21           -4.8869     2.9471     7.0767 C.3     
  22 C22           -3.7890     2.7104    -1.4694 C.3     
  23 F23           -3.8289     1.5569    -2.2600 F       
  24 F24           -5.0548     3.3060    -1.4494 F       
  25 F25           -2.8591     3.6094    -2.0026 F       
  26 Cl26          -0.5603    -2.0362    -0.1893 Cl      
  27 Cl27           1.8005     2.8100     0.1776 Cl      
  28 C28           -2.8985     7.3124     8.6929 C.2     
  29 N29           -3.4916     6.7813     9.7091 N.2     
  30 O30           -3.4235     7.4093    10.9764 O.3     
  31 C31           -4.1244     6.7127    12.0087 C.3     
  32 H32            1.4330    -0.0096     0.0015 H       
  33 H33           -2.8203    -0.3018    -0.1742 H       
  34 H34           -0.9571     3.5230     0.1201 H       
  35 H35           -2.3933     3.9791     1.0124 H       
  36 H36           -4.0731     4.3399     0.4925 H       
  37 H37           -4.8385     2.0502     4.5356 H       
  38 H38           -2.8437     5.4103     2.7632 H       
  39 H39           -2.7257     6.4997     4.9619 H       
  40 H40           -2.5192     7.0987     6.6928 H       
  41 H41           -5.8944     3.3194     7.2624 H       
  42 H42           -4.9234     1.8717     6.9024 H       
  43 H43           -4.2579     3.1537     7.9426 H       
  44 H44           -2.3503     8.2357     8.8093 H       
  45 H45           -5.1790     6.6361    11.7439 H       
  46 H46           -3.7047     5.7131    12.1221 H       
  47 H47           -4.0241     7.2575    12.9474 H       
@<TRIPOS>BOND
   1    1    2 ar
   2    1   27 1
   3    1    6 ar
   4    2    3 ar
   5    2   32 1
   6    3    4 ar
   7    3   26 1
   8    4    5 ar
   9    4   33 1
  10    5    6 ar
  11    5    7 1
  12    6   34 1
  13    7    8 1
  14    7    9 1
  15    7   22 1
  16    8   11 1
  17    9   10 1
  18    9   35 1
  19    9   36 1
  20   10   11 2
  21   10   12 1
  22   12   13 ar
  23   12   14 ar
  24   13   17 ar
  25   13   37 1
  26   14   15 ar
  27   14   38 1
  28   15   16 ar
  29   15   39 1
  30   16   17 ar
  31   16   18 1
  32   17   21 1
  33   18   19 2
  34   18   20 am
  35   20   28 1
  36   20   40 1
  37   21   41 1
  38   21   42 1
  39   21   43 1
  40   22   23 1
  41   22   24 1
  42   22   25 1
  43   28   29 2
  44   28   44 1
  45   29   30 1
  46   30   31 1
  47   31   45 1
  48   31   46 1
  49   31   47 1

#	End of record

