#	Name: ASD03331543
#	Creating user name:	WinNT
#	Creation time:	15. 06. 2019 20:39

#	Modifying user name:	WinNT
#	Modification time:	15. 06. 2019 20:39

#	Program:	/corina/corina34_cracker 3.40 0067  02.08.2006

@<TRIPOS>MOLECULE
ASD03331543
  44   47    0    0    0
SMALL
NO_CHARGES


@<TRIPOS>ATOM
   1 C1            -0.0160     1.3297     0.0094 C.2     
   2 C2             0.0021    -0.0041     0.0020 C.2     
   3 S3             1.6668    -0.5713    -0.0169 S.3     
   4 C4             2.2622     1.0837    -0.0137 C.2     
   5 C5             1.2313     1.9300     0.0007 C.2     
   6 C6             4.0885    -1.6760     0.9649 C.ar    
   7 C7             4.3648    -2.8713     1.5662 C.ar    
   8 C8             5.0695    -2.9132     2.7614 C.ar    
   9 C9             5.5038    -1.7517     3.3629 C.ar    
  10 C10            4.5189    -0.4854     1.5571 C.ar    
  11 C11            4.3999     0.9260     1.1952 C.2     
  12 C12            5.2346    -0.5232     2.7693 C.ar    
  13 N13            5.5276     0.7774     3.1157 N.pl3   
  14 C14            5.0236     1.6371     2.1670 C.2     
  15 C15            5.0140     5.1809     3.4119 C.ar    
  16 C16            4.8995     3.8062     3.3863 C.ar    
  17 C17            5.1441     3.1107     2.2015 C.ar    
  18 C18            5.5032     3.8115     1.0494 C.ar    
  19 C19            5.6143     5.1861     1.0884 C.ar    
  20 C20            5.3700     5.8698     2.2661 C.ar    
  21 C21            5.3625    -4.2424     3.4080 C.3     
  22 C22            3.7149     1.4844    -0.0254 C.3     
  23 C23            4.3862     0.9319    -1.2844 C.3     
  24 N24            3.8000     1.5652    -2.4683 N.pl3   
  25 O25            4.5211     1.9697    -3.3626 O.2     
  26 O26            2.5914     1.6870    -2.5583 O.2     
  27 H27           -0.9343     1.8981     0.0169 H       
  28 H28           -0.8718    -0.6386     0.0073 H       
  29 H29            1.3599     3.0023     0.0049 H       
  30 H30            3.5433    -1.6515     0.0329 H       
  31 H31            4.0320    -3.7910     1.1082 H       
  32 H32            6.0510    -1.7954     4.2930 H       
  33 H33            6.0159     1.0468     3.9093 H       
  34 H34            4.8206     5.7207     4.3271 H       
  35 H35            4.6219     3.2695     4.2814 H       
  36 H36            5.6942     3.2790     0.1294 H       
  37 H37            5.8922     5.7297     0.1975 H       
  38 H38            5.4584     6.9459     2.2914 H       
  39 H39            6.3160    -4.6226     3.0413 H       
  40 H40            5.4132    -4.1170     4.4896 H       
  41 H41            4.5704    -4.9492     3.1609 H       
  42 H42            3.7920     2.5716    -0.0199 H       
  43 H43            5.4546     1.1451    -1.2499 H       
  44 H44            4.2322    -0.1459    -1.3351 H       
@<TRIPOS>BOND
   1    1    2 2
   2    1    5 1
   3    1   27 1
   4    2    3 1
   5    2   28 1
   6    3    4 1
   7    4    5 2
   8    4   22 1
   9    5   29 1
  10    6    7 ar
  11    6   10 ar
  12    6   30 1
  13    7    8 ar
  14    7   31 1
  15    8    9 ar
  16    8   21 1
  17    9   12 ar
  18    9   32 1
  19   10   12 ar
  20   10   11 1
  21   11   14 2
  22   11   22 1
  23   12   13 1
  24   13   14 1
  25   13   33 1
  26   14   17 1
  27   15   16 ar
  28   15   20 ar
  29   15   34 1
  30   16   17 ar
  31   16   35 1
  32   17   18 ar
  33   18   19 ar
  34   18   36 1
  35   19   20 ar
  36   19   37 1
  37   20   38 1
  38   21   39 1
  39   21   40 1
  40   21   41 1
  41   22   23 1
  42   22   42 1
  43   23   24 1
  44   23   43 1
  45   23   44 1
  46   24   25 2
  47   24   26 2

#	End of record

