#	Name: ASD01911688
#	Creating user name:	WinNT
#	Creation time:	15. 06. 2019 19:58

#	Modifying user name:	WinNT
#	Modification time:	15. 06. 2019 19:58

#	Program:	/corina/corina34_cracker 3.40 0067  02.08.2006

@<TRIPOS>MOLECULE
ASD01911688
  53   56    0    0    0
SMALL
NO_CHARGES


@<TRIPOS>ATOM
   1 N1             0.0187     1.3251     0.2781 N.am    
   2 C2            -0.0358    -0.0086     0.0917 C.2     
   3 C3            -1.2904    -0.7297     0.3209 C.2     
   4 C4            -1.4525    -2.0887     0.3017 C.2     
   5 S5            -2.8546     0.0003     0.6774 S.3     
   6 C6            -3.5816    -1.6018     0.7599 C.2     
   7 N7            -2.6637    -2.5087     0.5343 N.2     
   8 C8            -4.9608    -1.8712     1.0354 C.1     
   9 C9            -6.0914    -2.0922     1.2613 C.1     
  10 C10           -7.4706    -2.3616     1.5369 C.ar    
  11 C11           -7.9346    -3.6800     1.5769 C.ar    
  12 C12           -9.2640    -3.9315     1.8433 C.ar    
  13 C13          -10.1382    -2.8829     2.0705 C.ar    
  14 C14           -9.6865    -1.5753     2.0326 C.ar    
  15 C15           -8.3588    -1.3080     1.7731 C.ar    
  16 O16            0.9573    -0.6141    -0.2670 O.2     
  17 C17            1.2877     2.0818     0.0096 C.3     
  18 C18            1.0729     2.8908    -1.1895 C.3     
  19 C19           -0.0889     3.8734    -1.0832 C.3     
  20 C20           -1.2954     3.1179    -1.5602 C.3     
  21 C21           -2.0999     2.5538    -0.3635 C.3     
  22 C22           -1.1361     2.0455     0.7305 C.3     
  23 N23           -2.1547     4.0207    -2.3377 N.3     
  24 C24           -2.5857     5.1675    -1.5252 C.3     
  25 C25           -3.4274     6.1105    -2.3890 C.3     
  26 O26           -4.5339     5.3879    -2.9357 O.3     
  27 C27           -4.1503     4.2645    -3.7333 C.3     
  28 C28           -3.3160     3.3029    -2.8831 C.3     
  29 H29           -0.6337    -2.7655     0.1069 H       
  30 H30           -7.2536    -4.4992     1.3991 H       
  31 H31           -9.6239    -4.9493     1.8745 H       
  32 H32          -11.1785    -3.0861     2.2780 H       
  33 H33          -10.3749    -0.7623     2.2105 H       
  34 H34           -8.0078    -0.2870     1.7439 H       
  35 H35            1.5190     2.7286     0.8558 H       
  36 H36            2.1071     1.3827    -0.1576 H       
  37 H37            1.9838     3.4527    -1.3960 H       
  38 H38            0.8849     2.2219    -2.0294 H       
  39 H39           -0.2247     4.1864    -0.0480 H       
  40 H40            0.0901     4.7395    -1.7203 H       
  41 H41           -0.9738     2.2935    -2.1966 H       
  42 H42           -2.7340     3.3392     0.0480 H       
  43 H43           -2.7254     1.7292    -0.7052 H       
  44 H44           -1.6970     1.3955     1.4021 H       
  45 H45           -0.7925     2.9047     1.3065 H       
  46 H46           -3.1826     4.8141    -0.6844 H       
  47 H47           -1.7101     5.6993    -1.1528 H       
  48 H48           -3.7967     6.9330    -1.7764 H       
  49 H49           -2.8149     6.5059    -3.1993 H       
  50 H50           -5.0425     3.7519    -4.0930 H       
  51 H51           -3.5588     4.6062    -4.5827 H       
  52 H52           -2.9735     2.4735    -3.5019 H       
  53 H53           -3.9245     2.9196    -2.0640 H       
@<TRIPOS>BOND
   1    1    2 am
   2    1   17 1
   3    1   22 1
   4    2    3 1
   5    2   16 2
   6    3    4 2
   7    3    5 1
   8    4    7 1
   9    4   29 1
  10    5    6 1
  11    6    7 2
  12    6    8 1
  13    8    9 3
  14    9   10 1
  15   10   11 ar
  16   10   15 ar
  17   11   12 ar
  18   11   30 1
  19   12   13 ar
  20   12   31 1
  21   13   14 ar
  22   13   32 1
  23   14   15 ar
  24   14   33 1
  25   15   34 1
  26   17   18 1
  27   17   35 1
  28   17   36 1
  29   18   19 1
  30   18   37 1
  31   18   38 1
  32   19   20 1
  33   19   39 1
  34   19   40 1
  35   20   21 1
  36   20   23 1
  37   20   41 1
  38   21   22 1
  39   21   42 1
  40   21   43 1
  41   22   44 1
  42   22   45 1
  43   23   24 1
  44   23   28 1
  45   24   25 1
  46   24   46 1
  47   24   47 1
  48   25   26 1
  49   25   48 1
  50   25   49 1
  51   26   27 1
  52   27   28 1
  53   27   50 1
  54   27   51 1
  55   28   52 1
  56   28   53 1

#	End of record

