#	Name: ASD01120293
#	Creating user name:	WinNT
#	Creation time:	15. 06. 2019 18:59

#	Modifying user name:	WinNT
#	Modification time:	15. 06. 2019 18:59

#	Program:	/corina/corina34_cracker 3.40 0067  02.08.2006

@<TRIPOS>MOLECULE
ASD01120293
  41   43    0    0    0
SMALL
NO_CHARGES


@<TRIPOS>ATOM
   1 C1            -0.7331     1.2403     0.0267 C.3     
   2 C2            -0.3268    -0.2322     0.1129 C.3     
   3 O3             0.1347    -0.6838    -1.1876 O.3     
   4 C4             0.5327    -1.9689    -1.2838 C.2     
   5 O5             0.4949    -2.6919    -0.3067 O.2     
   6 C6             1.0114    -2.4945    -2.5670 C.2     
   7 N7             1.1021    -1.7756    -3.7457 N.pl3   
   8 C8             1.5928    -2.6015    -4.7297 C.ar    
   9 C9             1.8125    -3.8650    -4.1482 C.ar    
  10 C10            1.4430    -3.7659    -2.7881 C.2     
  11 C11            2.3189    -4.9155    -4.9373 C.ar    
  12 C12            2.5942    -4.6927    -6.2742 C.ar    
  13 C13            2.3743    -3.4444    -6.8370 C.ar    
  14 C14            1.8788    -2.4066    -6.0781 C.ar    
  15 N15            1.6508    -1.0815    -6.6975 N.pl3   
  16 O16            1.9013    -0.9095    -7.8770 O.2     
  17 O17            1.2129    -0.1633    -6.0277 O.2     
  18 N18            2.5413    -6.1698    -4.3755 N.pl3   
  19 C19            2.8933    -7.2480    -5.1910 C.ar    
  20 C20            3.8869    -8.1312    -4.7871 C.ar    
  21 C21            4.2320    -9.1963    -5.5956 C.ar    
  22 C22            3.5899    -9.3843    -6.8059 C.ar    
  23 C23            2.6005    -8.5071    -7.2110 C.ar    
  24 C24            2.2467    -7.4429    -6.4051 C.ar    
  25 N25            3.9628   -10.5268    -7.6700 N.pl3   
  26 O26            4.8343   -11.3000    -7.3148 O.2     
  27 O27            3.3982   -10.6937    -8.7363 O.2     
  28 H28            0.1257     1.8368    -0.2813 H       
  29 H29           -1.5349     1.3540    -0.7029 H       
  30 H30           -1.0796     1.5794     1.0030 H       
  31 H31            0.4749    -0.3458     0.8425 H       
  32 H32           -1.1856    -0.8286     0.4209 H       
  33 H33            0.8597    -0.8432    -3.8592 H       
  34 H34            1.4890    -4.5590    -2.0565 H       
  35 H35            2.9831    -5.4953    -6.8833 H       
  36 H36            2.5936    -3.2839    -7.8823 H       
  37 H37            2.4519    -6.2950    -3.4177 H       
  38 H38            4.3890    -7.9848    -3.8422 H       
  39 H39            5.0045    -9.8830    -5.2824 H       
  40 H40            2.1010    -8.6568    -8.1568 H       
  41 H41            1.4739    -6.7582    -6.7221 H       
@<TRIPOS>BOND
   1    1    2 1
   2    1   28 1
   3    1   29 1
   4    1   30 1
   5    2    3 1
   6    2   31 1
   7    2   32 1
   8    3    4 1
   9    4    5 2
  10    4    6 1
  11    6    7 1
  12    6   10 2
  13    7    8 1
  14    7   33 1
  15    8    9 ar
  16    8   14 ar
  17    9   10 1
  18    9   11 ar
  19   10   34 1
  20   11   12 ar
  21   11   18 1
  22   12   13 ar
  23   12   35 1
  24   13   14 ar
  25   13   36 1
  26   14   15 1
  27   15   16 2
  28   15   17 2
  29   18   19 1
  30   18   37 1
  31   19   20 ar
  32   19   24 ar
  33   20   21 ar
  34   20   38 1
  35   21   22 ar
  36   21   39 1
  37   22   23 ar
  38   22   25 1
  39   23   24 ar
  40   23   40 1
  41   24   41 1
  42   25   26 2
  43   25   27 2

#	End of record

