#	Name: ASD00241015
#	Creating user name:	WinNT
#	Creation time:	15. 06. 2019 18:33

#	Modifying user name:	WinNT
#	Modification time:	15. 06. 2019 18:33

#	Program:	/corina/corina34_cracker 3.40 0067  02.08.2006

@<TRIPOS>MOLECULE
ASD00241015
  48   50    0    0    0
SMALL
NO_CHARGES


@<TRIPOS>ATOM
   1 C1            -0.2832     1.3774    -0.0969 C.3     
   2 C2            -0.5168    -0.1440    -0.2317 C.3     
   3 C3            -1.3085    -0.5165     1.0414 C.3     
   4 O4            -1.9496     0.7115     1.4498 O.3     
   5 C5            -0.9614     1.7440     1.2418 C.3     
   6 C6            -2.1076    -2.8954     0.7109 C.ar    
   7 C7            -3.3457    -3.4678     0.3751 C.ar    
   8 N8            -1.0627    -3.6907     0.9177 N.ar    
   9 C9            -1.1826    -4.9983     0.8102 C.ar    
  10 N10           -2.3266    -5.5817     0.4967 N.ar    
  11 C11           -3.4243    -4.8673     0.2721 C.ar    
  12 N12           -4.2274    -2.4505     0.2213 N.2     
  13 C13           -3.6237    -1.3179     0.4362 C.2     
  14 N14           -2.3123    -1.5391     0.7367 N.pl3   
  15 C15           -1.6356     3.1137     1.1397 C.3     
  16 N16           -2.3470     3.4038     2.3918 N.3     
  17 C17           -1.4082     3.7925     3.4527 C.3     
  18 C18           -2.1342     3.8430     4.7723 C.2     
  19 C19           -1.6934     3.1452     5.7896 C.2     
  20 O20            1.1153     1.6666    -0.0454 O.3     
  21 O21            0.7303    -0.8408    -0.2677 O.3     
  22 N22           -4.6175    -5.4871    -0.0551 N.pl3   
  23 C23           -2.4195     3.1957     7.1092 C.3     
  24 N24           -2.7707     1.8320     7.5273 N.3     
  25 Cl25           0.2133    -5.9916     1.0900 Cl      
  26 C26           -3.3696     4.4387     2.1886 C.3     
  27 H27           -0.7523     1.9106    -0.9237 H       
  28 H28           -1.1034    -0.3627    -1.1240 H       
  29 H29           -0.6315    -0.8683     1.8199 H       
  30 H30           -0.2312     1.7390     2.0510 H       
  31 H31           -4.0913    -0.3460     0.3800 H       
  32 H32           -0.8792     3.8789     0.9658 H       
  33 H33           -2.3446     3.1089     0.3118 H       
  34 H34           -0.6014     3.0617     3.5096 H       
  35 H35           -0.9931     4.7752     3.2286 H       
  36 H36           -3.0181     4.4544     4.8793 H       
  37 H37           -0.8096     2.5338     5.6826 H       
  38 H38            1.6014     1.4007    -0.8379 H       
  39 H39            1.2943    -0.5995    -1.0152 H       
  40 H40           -4.6592    -6.4538    -0.1228 H       
  41 H41           -5.4121    -4.9548    -0.2167 H       
  42 H42           -1.7754     3.6517     7.8611 H       
  43 H43           -3.3281     3.7881     7.0015 H       
  44 H44           -1.9512     1.2450     7.5718 H       
  45 H45           -3.2590     1.8389     8.4102 H       
  46 H46           -4.0325     4.1400     1.3766 H       
  47 H47           -3.9487     4.5618     3.1038 H       
  48 H48           -2.8863     5.3822     1.9348 H       
@<TRIPOS>BOND
   1    1    2 1
   2    1   20 1
   3    1    5 1
   4    1   27 1
   5    2    3 1
   6    2   21 1
   7    2   28 1
   8    3    4 1
   9    3   14 1
  10    3   29 1
  11    4    5 1
  12    5   15 1
  13    5   30 1
  14    6    7 ar
  15    6    8 ar
  16    6   14 1
  17    7   12 1
  18    7   11 ar
  19    8    9 ar
  20    9   10 ar
  21    9   25 1
  22   10   11 ar
  23   11   22 1
  24   12   13 2
  25   13   14 1
  26   13   31 1
  27   15   16 1
  28   15   32 1
  29   15   33 1
  30   16   17 1
  31   16   26 1
  32   17   18 1
  33   17   34 1
  34   17   35 1
  35   18   19 2
  36   18   36 1
  37   19   23 1
  38   19   37 1
  39   20   38 1
  40   21   39 1
  41   22   40 1
  42   22   41 1
  43   23   24 1
  44   23   42 1
  45   23   43 1
  46   24   44 1
  47   24   45 1
  48   26   46 1
  49   26   47 1
  50   26   48 1

#	End of record

