#	Name: ASD01885030
#	Creating user name:	WinNT
#	Creation time:	15. 06. 2019 19:49

#	Modifying user name:	WinNT
#	Modification time:	15. 06. 2019 19:49

#	Program:	/corina/corina34_cracker 3.40 0067  02.08.2006

@<TRIPOS>MOLECULE
ASD01885030
  49   51    0    0    0
SMALL
NO_CHARGES


@<TRIPOS>ATOM
   1 C1            -0.0153     1.9891    -0.2462 C.3     
   2 C2            -0.3865     0.5078    -0.3402 C.3     
   3 C3            -1.9060     0.3690    -0.4537 C.3     
   4 O4             0.0677    -0.1724     0.8315 O.3     
   5 N5             1.4425     2.1301    -0.2772 N.pl3   
   6 N6             2.2426     2.1555    -1.4264 N.2     
   7 C7             3.4978     2.2952    -1.0542 C.2     
   8 C8             3.5337     2.3632     0.3515 C.2     
   9 C9             2.2552     2.2651     0.8046 C.2     
  10 C10            5.8222     1.7217    -3.9557 C.ar    
  11 C11            4.7117     1.6251    -3.1426 C.ar    
  12 C12            4.6711     2.3675    -1.9593 C.ar    
  13 C13            5.7660     3.1805    -1.6519 C.ar    
  14 C14            6.8362     3.2187    -2.5213 C.ar    
  15 N15            6.8350     2.5013    -3.6288 N.ar    
  16 C16            5.8815     0.9216    -5.2314 C.3     
  17 N17            1.8510     2.2944     2.1380 N.pl3   
  18 C18            1.8974     1.0723     2.9445 C.3     
  19 C19            1.4017     3.4891     2.7055 C.ar    
  20 C20            1.1059     3.5474     4.0616 C.ar    
  21 C21            0.6612     4.7319     4.6199 C.ar    
  22 C22            0.5113     5.8585     3.8276 C.ar    
  23 C23            0.8054     5.8017     2.4780 C.ar    
  24 C24            1.2553     4.6229     1.9160 C.ar    
  25 C25            0.0261     7.1481     4.4380 C.3     
  26 F26           -0.0442     8.1348     3.4487 F       
  27 F27           -1.2431     6.9529     4.9930 F       
  28 F28            0.9154     7.5538     5.4389 F       
  29 F29            0.3726     4.7904     5.9384 F       
  30 Cl30           4.9551     2.5471     1.3310 Cl      
  31 H31           -0.4503     2.5269    -1.0886 H       
  32 H32           -0.4006     2.4017     0.6862 H       
  33 H33            0.0850     0.0702    -1.2202 H       
  34 H34           -2.2525     0.8879    -1.3474 H       
  35 H35           -2.1705    -0.6863    -0.5207 H       
  36 H36           -2.3775     0.8066     0.4263 H       
  37 H37           -0.1338    -1.1181     0.8403 H       
  38 H38            3.8860     0.9851    -3.4166 H       
  39 H39            5.7737     3.7703    -0.7472 H       
  40 H40            7.6866     3.8438    -2.2924 H       
  41 H41            5.4562     1.5064    -6.0471 H       
  42 H42            6.9193     0.6796    -5.4606 H       
  43 H43            5.3120     0.0003    -5.1093 H       
  44 H44            2.8670     0.9984     3.4369 H       
  45 H45            1.1092     1.1033     3.6968 H       
  46 H46            1.7503     0.2057     2.2998 H       
  47 H47            1.2226     2.6688     4.6788 H       
  48 H48            0.6871     6.6816     1.8630 H       
  49 H49            1.4893     4.5815     0.8625 H       
@<TRIPOS>BOND
   1    1    2 1
   2    1    5 1
   3    1   31 1
   4    1   32 1
   5    2    3 1
   6    2    4 1
   7    2   33 1
   8    3   34 1
   9    3   35 1
  10    3   36 1
  11    4   37 1
  12    5    6 1
  13    5    9 1
  14    6    7 2
  15    7    8 1
  16    7   12 1
  17    8    9 2
  18    8   30 1
  19    9   17 1
  20   10   11 ar
  21   10   15 ar
  22   10   16 1
  23   11   12 ar
  24   11   38 1
  25   12   13 ar
  26   13   14 ar
  27   13   39 1
  28   14   15 ar
  29   14   40 1
  30   16   41 1
  31   16   42 1
  32   16   43 1
  33   17   18 1
  34   17   19 1
  35   18   44 1
  36   18   45 1
  37   18   46 1
  38   19   20 ar
  39   19   24 ar
  40   20   21 ar
  41   20   47 1
  42   21   22 ar
  43   21   29 1
  44   22   23 ar
  45   22   25 1
  46   23   24 ar
  47   23   48 1
  48   24   49 1
  49   25   26 1
  50   25   27 1
  51   25   28 1

#	End of record

