#	Name: ASD04570015
#	Creating user name:	WinNT
#	Creation time:	15. 06. 2019 20:49

#	Modifying user name:	WinNT
#	Modification time:	15. 06. 2019 20:49

#	Program:	/corina/corina34_cracker 3.40 0067  02.08.2006

@<TRIPOS>MOLECULE
ASD04570015
 323  322    0    0    0
SMALL
NO_CHARGES


@<TRIPOS>ATOM
   1 C1            -0.3980     3.0398    -0.1873 C.3     
   2 C2            -0.2579     1.5271    -0.3683 C.3     
   3 N3            -2.3277     2.8559     1.3493 N.am    
   4 C4            -1.0856     3.3274     1.1225 C.2     
   5 C5            -2.9961     3.1355     2.6226 C.3     
   6 C6            -4.0232     2.0671     2.8960 C.2     
   7 C7            -3.6860     4.4990     2.5479 C.3     
   8 O8            -0.5213     3.9832     1.9724 O.2     
   9 N9             0.9307     3.6568    -0.1871 N.am    
  10 C10            1.5231     3.9815    -1.3533 C.2     
  11 O11            0.9562     3.7628    -2.4030 O.2     
  12 C12            2.8899     4.6162    -1.3531 C.3     
  13 N13            3.3106     4.8702    -2.7333 N.am    
  14 C14            4.5085     5.4368    -2.9792 C.2     
  15 O15            5.2381     5.7365    -2.0579 O.2     
  16 C16            4.9412     5.6981    -4.3989 C.3     
  17 C17            4.9928     4.3764    -5.1678 C.3     
  18 N18            6.2700     6.3151    -4.3987 N.am    
  19 H19            6.8715     6.1710    -3.6515 H       
  20 C20            6.6565     7.0830    -5.4366 C.2     
  21 O21            5.9044     7.2632    -6.3708 O.2     
  22 C22            8.0234     7.7177    -5.4364 C.3     
  23 C23            5.3104     4.6539    -6.6385 C.3     
  24 S24            5.3715     3.0868    -7.5501 S.3     
  25 C25            5.7534     3.6143    -9.2432 C.3     
  26 C26            8.2083     8.5307    -6.7192 C.3     
  27 C27            9.5960     9.1751    -6.7190 C.3     
  28 C28            9.7810     9.9882    -8.0019 C.3     
  29 C29           11.1687    10.6325    -8.0016 C.3     
  30 C30           11.3536    11.4456    -9.2845 C.3     
  31 C31           12.7413    12.0899    -9.2843 C.3     
  32 C32           12.9263    12.9030   -10.5671 C.3     
  33 C33           14.3140    13.5474   -10.5669 C.3     
  34 C34           14.4989    14.3604   -11.8497 C.3     
  35 C35           15.8866    15.0048   -11.8495 C.3     
  36 C36           16.0716    15.8178   -13.1323 C.3     
  37 C37           17.4593    16.4622   -13.1321 C.3     
  38 C38           17.6442    17.2752   -14.4149 C.3     
  39 C39           19.0319    17.9196   -14.4147 C.3     
  40 C40            0.3262     1.2309    -1.7511 C.3     
  41 C41            0.4642    -0.2592    -1.9294 C.2     
  42 N42            0.9607    -0.7571    -3.0792 N.am    
  43 O43           -4.1813     1.1614     2.1051 O.2     
  44 N44           -4.7661     2.1182     4.0193 N.am    
  45 O45            0.1286    -1.0102    -1.0383 O.2     
  46 C46           -2.6311     5.5966     2.3949 C.3     
  47 C47           -3.3210     6.9602     2.3201 C.3     
  48 C48           -2.2661     8.0578     2.1672 C.3     
  49 N49           -2.9285     9.3670     2.0954 N.3     
  50 C50           -5.7646     1.0796     4.2851 C.3     
  51 C51           -5.0898    -0.1156     4.9610 C.3     
  52 C52           -6.8343     1.6315     5.1918 C.2     
  53 C53           -4.0913    -0.7525     3.9923 C.3     
  54 C54           -3.4165    -1.9478     4.6682 C.3     
  55 C55           -2.4180    -2.5846     3.6996 C.3     
  56 N56           -1.7701    -3.7322     4.3485 N.3     
  57 O57           -6.7691     2.7793     5.5781 O.2     
  58 N58           -7.8635     0.8495     5.5736 N.am    
  59 C59           -8.9034     1.3860     6.4551 C.3     
  60 C60          -10.2012     0.6024     6.2486 C.3     
  61 C61           -8.4615     1.2567     7.8900 C.2     
  62 C62          -10.7067     0.8200     4.8210 C.3     
  63 C63          -11.9218    -0.0748     4.5682 C.3     
  64 C64          -11.1062     2.2858     4.6393 C.3     
  65 O65           -7.5340     0.5372     8.1736 O.2     
  66 C66           -9.1769     2.0253     8.9709 C.3     
  67 H67           -0.9892     3.4505    -1.0058 H       
  68 H68            0.4059     1.1292     0.3992 H       
  69 H69           -1.2379     1.0582    -0.2798 H       
  70 H70           -2.7790     2.3314     0.6696 H       
  71 H71           -2.2590     3.1447     3.4256 H       
  72 H72           -4.3585     4.5194     1.6903 H       
  73 H73           -4.2565     4.6681     3.4611 H       
  74 H74            1.3841     3.8317     0.6524 H       
  75 H75            2.8532     5.5578    -0.8054 H       
  76 H76            3.6023     3.9446    -0.8739 H       
  77 H77            2.7270     4.6305    -3.4701 H       
  78 H78            4.2289     6.3697    -4.8781 H       
  79 H79            5.7680     3.7388    -4.7427 H       
  80 H80            4.0281     3.8745    -5.0928 H       
  81 H81            8.1184     8.3755    -4.5725 H       
  82 H82            8.7852     6.9397    -5.3863 H       
  83 H83            4.5352     5.2915    -7.0635 H       
  84 H84            6.2751     5.1558    -6.7134 H       
  85 H85            5.8155     2.7398    -9.8909 H       
  86 H86            4.9671     4.2779    -9.6030 H       
  87 H87            6.7070     4.1421    -9.2529 H       
  88 H88            8.1133     7.8730    -7.5832 H       
  89 H89            7.4465     9.3087    -6.7694 H       
  90 H90            9.6910     9.8329    -5.8551 H       
  91 H91           10.3578     8.3972    -6.6689 H       
  92 H92            9.6859     9.3304    -8.8658 H       
  93 H93            9.0191    10.7661    -8.0520 H       
  94 H94           11.2637    11.2903    -7.1377 H       
  95 H95           11.9305     9.8546    -7.9515 H       
  96 H96           11.2586    10.7878   -10.1484 H       
  97 H97           10.5918    12.2235    -9.3346 H       
  98 H98           12.8363    12.7477    -8.4203 H       
  99 H99           13.5031    11.3120    -9.2341 H       
 100 H100          12.8312    12.2452   -11.4310 H       
 101 H101          12.1644    13.6809   -10.6172 H       
 102 H102          14.4090    14.2052    -9.7029 H       
 103 H103          15.0758    12.7694   -10.5168 H       
 104 H104          14.4039    13.7026   -12.7136 H       
 105 H105          13.7371    15.1384   -11.8998 H       
 106 H106          15.9816    15.6626   -10.9856 H       
 107 H107          16.6484    14.2268   -11.7994 H       
 108 H108          15.9765    15.1600   -13.9963 H       
 109 H109          15.3097    16.5958   -13.1824 H       
 110 H110          17.5543    17.1200   -12.2682 H       
 111 H111          18.2211    15.6843   -13.0820 H       
 112 H112          17.5492    16.6175   -15.2789 H       
 113 H113          16.8824    18.0532   -14.4651 H       
 114 H114          19.7937    17.1417   -14.3646 H       
 115 H115          19.1637    18.4989   -15.3286 H       
 116 H116          19.1269    18.5774   -13.5508 H       
 117 H117          -0.3376     1.6287    -2.5187 H       
 118 H118           1.3062     1.6997    -1.8397 H       
 119 H119           1.2292    -0.1564    -3.7920 H       
 120 H120           1.0496    -1.7162    -3.1940 H       
 121 H121          -4.6397     2.8426     4.6519 H       
 122 H122          -1.9586     5.5762     3.2525 H       
 123 H123          -2.0606     5.4275     1.4817 H       
 124 H124          -3.9935     6.9806     1.4626 H       
 125 H125          -3.8916     7.1293     3.2334 H       
 126 H126          -1.5936     8.0374     3.0248 H       
 127 H127          -1.6956     7.8887     1.2540 H       
 128 H128          -3.5155     9.5200     2.9018 H       
 129 H129          -2.2525    10.1092     1.9942 H       
 130 H130          -6.2146     0.7593     3.3454 H       
 131 H131          -4.5646     0.2212     5.8548 H       
 132 H132          -5.8456    -0.8503     5.2388 H       
 133 H133          -4.6165    -1.0893     3.0985 H       
 134 H134          -3.3355    -0.0178     3.7145 H       
 135 H135          -2.8913    -1.6109     5.5620 H       
 136 H136          -4.1722    -2.6824     4.9461 H       
 137 H137          -2.9431    -2.9215     2.8058 H       
 138 H138          -1.6622    -1.8500     3.4217 H       
 139 H139          -2.4550    -4.3981     4.6734 H       
 140 H140          -1.1054    -4.1704     3.7286 H       
 141 H141          -7.9157    -0.0685     5.2646 H       
 142 H142          -9.0722     2.4369     6.2202 H       
 143 H143         -10.0142    -0.4593     6.4099 H       
 144 H144         -10.9526     0.9507     6.9572 H       
 145 H145          -9.9167     0.5684     4.1134 H       
 146 H146         -12.3354     0.1437     3.5837 H       
 147 H147         -11.6178    -1.1207     4.6107 H       
 148 H148         -12.6777     0.1152     5.3302 H       
 149 H149         -10.2406     2.9233     4.8194 H       
 150 H150         -11.4663     2.4408     3.6223 H       
 151 H151         -11.8962     2.5374     5.3469 H       
 152 H152          -9.9790     2.6150     8.5273 H       
 153 H153          -9.5968     1.3277     9.6956 H       
 154 H154          -8.4722     2.6891     9.4719 H       
 155 C155          49.8697    33.0917    38.7576 C.3     
 156 N156          48.8725    34.1201    39.0831 N.3     
 157 C157          47.5101    33.6290    38.8369 C.3     
 158 C158          46.5232    34.4011    39.7149 C.3     
 159 C159          47.1573    33.8325    37.3860 C.2     
 160 O160          47.6922    34.7158    36.7500 O.2     
 161 N161          46.2473    33.0329    36.7952 N.am    
 162 C162          45.9043    33.2307    35.3847 C.3     
 163 C163          46.8036    34.0955    41.1876 C.3     
 164 C164          45.8167    34.8676    42.0656 C.3     
 165 N165          46.0853    34.5750    43.4757 N.pl3   
 166 C166          45.3195    35.1591    44.4569 C.2     
 167 N167          44.3546    35.9732    44.1324 N.2     
 168 N168          45.5715    34.8846    45.7802 N.pl3   
 169 C169          46.9120    32.4871    34.5057 C.3     
 170 C170          44.5198    32.6956    35.1246 C.2     
 171 O171          46.7932    31.0808    34.7300 O.3     
 172 O172          43.8823    32.1980    36.0284 O.2     
 173 N173          43.9900    32.7700    33.8876 N.am    
 174 C174          42.6440    32.2498    33.6347 C.3     
 175 C175          41.6092    33.3215    33.9831 C.3     
 176 C176          42.5136    31.8799    32.1796 C.2     
 177 O177          43.4525    32.0354    31.4279 O.2     
 178 N178          41.3536    31.3761    31.7137 N.am    
 179 C179          41.6570    33.6073    35.4854 C.3     
 180 S180          40.4302    34.8780    35.8986 S.3     
 181 C181          40.6354    35.0763    37.6900 C.3     
 182 C182          41.2268    31.0165    30.2992 C.3     
 183 C183          41.7593    29.5985    30.0838 C.3     
 184 C184          39.7765    31.0754    29.8939 C.2     
 185 C185          43.2275    29.5349    30.5096 C.3     
 186 O186          40.9959    28.6789    30.8671 O.3     
 187 O187          38.9078    31.0039    30.7372 O.2     
 188 N188          39.4448    31.2077    28.5943 N.am    
 189 C189          38.0377    31.3349    28.2067 C.3     
 190 C190          37.7395    32.7899    27.8392 C.3     
 191 C191          37.9430    33.6654    29.0488 C.2     
 192 O192          37.7128    34.9853    28.9684 O.3     
 193 N193          36.5252    30.4042    26.4850 N.am    
 194 C194          37.7620    30.4500    27.0185 C.2     
 195 O195          38.6531    29.7792    26.5423 O.2     
 196 O196          38.3133    33.1792    30.0911 O.2     
 197 C197          36.2572    29.5439    25.3298 C.3     
 198 C198          35.9426    28.1263    25.8118 C.3     
 199 C199          35.0793    30.0864    24.5621 C.2     
 200 C200          37.1813    27.5290    26.4824 C.3     
 201 C201          36.8668    26.1114    26.9643 C.3     
 202 C202          38.1055    25.5141    27.6350 C.3     
 203 N203          37.8036    24.1530    28.0977 N.3     
 204 O204          34.5189    31.0925    24.9424 O.2     
 205 N205          34.6486    29.4535    23.4529 N.am    
 206 C206          33.5036    29.9808    22.7065 C.3     
 207 C207          33.9832    31.0559    21.7293 C.3     
 208 C208          34.5301    32.2288    22.5016 C.ar    
 209 C209          35.8698    32.2673    22.8412 C.ar    
 210 N210          31.7640    29.1144    21.1762 N.am    
 211 C211          32.8456    28.8626    21.9398 C.2     
 212 O212          33.2895    27.7361    22.0100 O.2     
 213 C213          31.1244    28.0274    20.4309 C.3     
 214 C214          33.6924    33.2673    22.8643 C.ar    
 215 C215          34.1914    34.3438    23.5719 C.ar    
 216 C216          35.5341    34.3822    23.9185 C.ar    
 217 C217          36.3736    33.3413    23.5491 C.ar    
 218 O218          36.0275    35.4403    24.6141 O.3     
 219 C219          31.8418    27.8350    19.0933 C.3     
 220 C220          29.6789    28.3726    20.1806 C.2     
 221 N221          28.8879    27.5138    19.5074 N.am    
 222 C222          33.2751    27.3635    19.3466 C.3     
 223 C223          33.9925    27.1711    18.0090 C.3     
 224 N224          35.3650    26.7196    18.2514 N.pl3   
 225 C225          36.2068    26.4787    17.1915 C.2     
 226 N226          37.4278    26.0770    17.4072 N.2     
 227 N227          35.7606    26.6615    15.9040 N.pl3   
 228 O228          29.2275    29.4231    20.5850 O.2     
 229 C229          27.4827    27.8493    19.2641 C.3     
 230 C230          26.9865    27.1000    18.0259 C.3     
 231 C231          27.7412    27.5982    16.7917 C.3     
 232 C232          27.3356    26.7643    15.5748 C.3     
 233 N233          25.3257    27.6622    20.4602 N.am    
 234 C234          26.6563    27.4482    20.4587 C.2     
 235 O235          27.1887    26.9328    21.4189 O.2     
 236 C236          27.3956    29.0675    16.5412 C.3     
 237 H237          50.8708    33.5088    38.8670 H       
 238 H238          49.7528    32.2452    39.4343 H       
 239 H239          49.7254    32.7581    37.7300 H       
 240 H240          48.9764    34.4358    40.0358 H       
 241 H241          47.4574    32.5673    39.0782 H       
 242 H242          46.6385    35.4703    39.5373 H       
 243 H243          45.5051    34.0996    39.4687 H       
 244 H244          45.8195    32.3264    37.3039 H       
 245 H245          45.9328    34.2947    35.1496 H       
 246 H246          46.6884    33.0263    41.3652 H       
 247 H247          47.8218    34.3970    41.4337 H       
 248 H248          45.9320    35.9369    41.8880 H       
 249 H249          44.7986    34.5661    41.8194 H       
 250 H250          46.8033    33.9692    43.7171 H       
 251 H251          43.8144    36.3852    44.8247 H       
 252 H252          46.2896    34.2788    46.0216 H       
 253 H253          45.0313    35.2966    46.4724 H       
 254 H254          46.7105    32.7061    33.4571 H       
 255 H255          47.9219    32.8111    34.7570 H       
 256 H256          47.4035    30.5458    34.2044 H       
 257 H257          44.4998    33.1680    33.1647 H       
 258 H258          42.4741    31.3668    34.2507 H       
 259 H259          41.8327    34.2351    33.4322 H       
 260 H260          40.6144    32.9679    33.7121 H       
 261 H261          40.6026    31.2517    32.3149 H       
 262 H262          41.4335    32.6938    36.0364 H       
 263 H263          42.6518    33.9610    35.7565 H       
 264 H264          40.4375    34.1260    38.1858 H       
 265 H265          41.6558    35.3932    37.9059 H       
 266 H266          39.9364    35.8289    38.0547 H       
 267 H267          41.8021    31.7166    29.6933 H       
 268 H268          41.6750    29.3349    29.0295 H       
 269 H269          43.2998    29.6806    31.5874 H       
 270 H270          43.6404    28.5611    30.2461 H       
 271 H271          43.7882    30.3176    29.9987 H       
 272 H272          40.0535    28.6657    30.6507 H       
 273 H273          40.1377    31.2187    27.9156 H       
 274 H274          37.4027    31.0331    29.0397 H       
 275 H275          38.4120    33.1086    27.0428 H       
 276 H276          36.7075    32.8745    27.4990 H       
 277 H277          37.8572    35.5059    29.7704 H       
 278 H278          35.8125    30.9407    26.8659 H       
 279 H279          37.1337    29.5215    24.6824 H       
 280 H280          35.1220    28.1598    26.5284 H       
 281 H281          35.6567    27.5082    24.9606 H       
 282 H282          38.0020    27.4955    25.7658 H       
 283 H283          37.4673    28.1470    27.3335 H       
 284 H284          36.0462    26.1449    27.6810 H       
 285 H285          36.5809    25.4933    26.1132 H       
 286 H286          38.9262    25.4806    26.9184 H       
 287 H287          38.3915    26.1321    28.4861 H       
 288 H288          37.4739    23.5774    27.3374 H       
 289 H289          38.6066    23.7365    28.5447 H       
 290 H290          35.0968    28.6488    23.1487 H       
 291 H291          32.7859    30.4160    23.4019 H       
 292 H292          34.7655    30.6443    21.0915 H       
 293 H293          33.1471    31.3852    21.1123 H       
 294 H294          36.5229    31.4568    22.5532 H       
 295 H295          31.4090    30.0154    21.1201 H       
 296 H296          31.1828    27.1061    21.0104 H       
 297 H297          32.6472    33.2370    22.5939 H       
 298 H298          33.5367    35.1549    23.8547 H       
 299 H299          37.4193    33.3689    23.8178 H       
 300 H300          35.9862    35.3334    25.5743 H       
 301 H301          31.3128    27.0881    18.5014 H       
 302 H302          31.8608    28.7809    18.5519 H       
 303 H303          29.2489    26.6736    19.1840 H       
 304 H304          33.8041    28.1105    19.9385 H       
 305 H305          33.2561    26.4177    19.8880 H       
 306 H306          33.4636    26.4242    17.4171 H       
 307 H307          34.0115    28.1170    17.4675 H       
 308 H308          35.6798    26.5907    19.1598 H       
 309 H309          38.0218    25.9071    16.6594 H       
 310 H310          34.8519    26.9605    15.7434 H       
 311 H311          36.3545    26.4916    15.1561 H       
 312 H312          27.3885    28.9229    19.1011 H       
 313 H313          27.1626    26.0318    18.1528 H       
 314 H314          25.9192    27.2794    17.8961 H       
 315 H315          28.8140    27.5006    16.9579 H       
 316 H316          26.2628    26.8619    15.4086 H       
 317 H317          27.8733    27.1192    14.6956 H       
 318 H318          27.5819    25.7175    15.7532 H       
 319 H319          24.8999    28.0744    19.6923 H       
 320 H320          24.7937    27.4040    21.2291 H       
 321 H321          27.6845    29.6616    17.4082 H       
 322 H322          27.9332    29.4224    15.6620 H       
 323 H323          26.3227    29.1651    16.3751 H       
@<TRIPOS>BOND
   1    1    2 1
   2    1    9 1
   3    1    4 1
   4    1   67 1
   5    2   40 1
   6    2   68 1
   7    2   69 1
   8    3    4 am
   9    3    5 1
  10    3   70 1
  11    4    8 2
  12    5    6 1
  13    5    7 1
  14    5   71 1
  15    6   43 2
  16    6   44 am
  17    7   46 1
  18    7   72 1
  19    7   73 1
  20    9   10 am
  21    9   74 1
  22   10   11 2
  23   10   12 1
  24   12   13 1
  25   12   75 1
  26   12   76 1
  27   13   14 am
  28   13   77 1
  29   14   15 2
  30   14   16 1
  31   16   17 1
  32   16   18 1
  33   16   78 1
  34   17   23 1
  35   17   79 1
  36   17   80 1
  37   18   19 1
  38   18   20 am
  39   20   21 2
  40   20   22 1
  41   22   26 1
  42   22   81 1
  43   22   82 1
  44   23   24 1
  45   23   83 1
  46   23   84 1
  47   24   25 1
  48   25   85 1
  49   25   86 1
  50   25   87 1
  51   26   27 1
  52   26   88 1
  53   26   89 1
  54   27   28 1
  55   27   90 1
  56   27   91 1
  57   28   29 1
  58   28   92 1
  59   28   93 1
  60   29   30 1
  61   29   94 1
  62   29   95 1
  63   30   31 1
  64   30   96 1
  65   30   97 1
  66   31   32 1
  67   31   98 1
  68   31   99 1
  69   32   33 1
  70   32  100 1
  71   32  101 1
  72   33   34 1
  73   33  102 1
  74   33  103 1
  75   34   35 1
  76   34  104 1
  77   34  105 1
  78   35   36 1
  79   35  106 1
  80   35  107 1
  81   36   37 1
  82   36  108 1
  83   36  109 1
  84   37   38 1
  85   37  110 1
  86   37  111 1
  87   38   39 1
  88   38  112 1
  89   38  113 1
  90   39  114 1
  91   39  115 1
  92   39  116 1
  93   40   41 1
  94   40  117 1
  95   40  118 1
  96   41   42 am
  97   41   45 2
  98   42  119 1
  99   42  120 1
 100   44   50 1
 101   44  121 1
 102   46   47 1
 103   46  122 1
 104   46  123 1
 105   47   48 1
 106   47  124 1
 107   47  125 1
 108   48   49 1
 109   48  126 1
 110   48  127 1
 111   49  128 1
 112   49  129 1
 113   50   51 1
 114   50   52 1
 115   50  130 1
 116   51   53 1
 117   51  131 1
 118   51  132 1
 119   52   57 2
 120   52   58 am
 121   53   54 1
 122   53  133 1
 123   53  134 1
 124   54   55 1
 125   54  135 1
 126   54  136 1
 127   55   56 1
 128   55  137 1
 129   55  138 1
 130   56  139 1
 131   56  140 1
 132   58   59 1
 133   58  141 1
 134   59   60 1
 135   59   61 1
 136   59  142 1
 137   60   62 1
 138   60  143 1
 139   60  144 1
 140   61   65 2
 141   61   66 1
 142   62   63 1
 143   62   64 1
 144   62  145 1
 145   63  146 1
 146   63  147 1
 147   63  148 1
 148   64  149 1
 149   64  150 1
 150   64  151 1
 151   66  152 1
 152   66  153 1
 153   66  154 1
 154  155  156 1
 155  155  237 1
 156  155  238 1
 157  155  239 1
 158  156  157 1
 159  156  240 1
 160  157  158 1
 161  157  159 1
 162  157  241 1
 163  158  163 1
 164  158  242 1
 165  158  243 1
 166  159  160 2
 167  159  161 am
 168  161  162 1
 169  161  244 1
 170  162  169 1
 171  162  170 1
 172  162  245 1
 173  163  164 1
 174  163  246 1
 175  163  247 1
 176  164  165 1
 177  164  248 1
 178  164  249 1
 179  165  166 1
 180  165  250 1
 181  166  167 2
 182  166  168 1
 183  167  251 1
 184  168  252 1
 185  168  253 1
 186  169  171 1
 187  169  254 1
 188  169  255 1
 189  170  172 2
 190  170  173 am
 191  171  256 1
 192  173  174 1
 193  173  257 1
 194  174  175 1
 195  174  176 1
 196  174  258 1
 197  175  179 1
 198  175  259 1
 199  175  260 1
 200  176  177 2
 201  176  178 am
 202  178  182 1
 203  178  261 1
 204  179  180 1
 205  179  262 1
 206  179  263 1
 207  180  181 1
 208  181  264 1
 209  181  265 1
 210  181  266 1
 211  182  183 1
 212  182  184 1
 213  182  267 1
 214  183  185 1
 215  183  186 1
 216  183  268 1
 217  184  187 2
 218  184  188 am
 219  185  269 1
 220  185  270 1
 221  185  271 1
 222  186  272 1
 223  188  189 1
 224  188  273 1
 225  189  190 1
 226  189  194 1
 227  189  274 1
 228  190  191 1
 229  190  275 1
 230  190  276 1
 231  191  192 1
 232  191  196 2
 233  192  277 1
 234  193  194 am
 235  193  197 1
 236  193  278 1
 237  194  195 2
 238  197  198 1
 239  197  199 1
 240  197  279 1
 241  198  200 1
 242  198  280 1
 243  198  281 1
 244  199  204 2
 245  199  205 am
 246  200  201 1
 247  200  282 1
 248  200  283 1
 249  201  202 1
 250  201  284 1
 251  201  285 1
 252  202  203 1
 253  202  286 1
 254  202  287 1
 255  203  288 1
 256  203  289 1
 257  205  206 1
 258  205  290 1
 259  206  207 1
 260  206  211 1
 261  206  291 1
 262  207  208 1
 263  207  292 1
 264  207  293 1
 265  208  209 ar
 266  208  214 ar
 267  209  217 ar
 268  209  294 1
 269  210  211 am
 270  210  213 1
 271  210  295 1
 272  211  212 2
 273  213  219 1
 274  213  220 1
 275  213  296 1
 276  214  215 ar
 277  214  297 1
 278  215  216 ar
 279  215  298 1
 280  216  217 ar
 281  216  218 1
 282  217  299 1
 283  218  300 1
 284  219  222 1
 285  219  301 1
 286  219  302 1
 287  220  221 am
 288  220  228 2
 289  221  229 1
 290  221  303 1
 291  222  223 1
 292  222  304 1
 293  222  305 1
 294  223  224 1
 295  223  306 1
 296  223  307 1
 297  224  225 1
 298  224  308 1
 299  225  226 2
 300  225  227 1
 301  226  309 1
 302  227  310 1
 303  227  311 1
 304  229  230 1
 305  229  234 1
 306  229  312 1
 307  230  231 1
 308  230  313 1
 309  230  314 1
 310  231  232 1
 311  231  236 1
 312  231  315 1
 313  232  316 1
 314  232  317 1
 315  232  318 1
 316  233  234 am
 317  233  319 1
 318  233  320 1
 319  234  235 2
 320  236  321 1
 321  236  322 1
 322  236  323 1

#	End of record

