#	Name: ASD01884989
#	Creating user name:	WinNT
#	Creation time:	15. 06. 2019 19:49

#	Modifying user name:	WinNT
#	Modification time:	15. 06. 2019 19:49

#	Program:	/corina/corina34_cracker 3.40 0067  02.08.2006

@<TRIPOS>MOLECULE
ASD01884989
  47   50    0    0    0
SMALL
NO_CHARGES


@<TRIPOS>ATOM
   1 C1            -0.1740     1.6155     0.1327 C.3     
   2 C2            -0.0656     0.1217    -0.1798 C.3     
   3 C3             0.9613    -0.5217     0.7542 C.3     
   4 O4            -1.3386    -0.4987     0.0122 O.3     
   5 C5            -1.5807    -1.6390    -0.6862 C.ar    
   6 C6            -0.5712    -2.2134    -1.4464 C.ar    
   7 C7            -0.8141    -3.3705    -2.1566 C.ar    
   8 C8            -2.0745    -3.9633    -2.1101 C.ar    
   9 C9            -3.0859    -3.3846    -1.3457 C.ar    
  10 C10           -2.8355    -2.2303    -0.6335 C.ar    
  11 C11           -2.3392    -5.2081    -2.8736 C.2     
  12 C12           -2.2916    -5.2073    -4.2842 C.2     
  13 N13           -2.5264    -6.3098    -4.9537 N.2     
  14 C14           -2.8152    -7.4568    -4.3225 C.2     
  15 N15           -3.0835    -8.6718    -4.7882 N.2     
  16 C16           -3.3117    -9.5024    -3.7754 C.2     
  17 C17           -3.1854    -8.7928    -2.5972 C.2     
  18 C18           -3.3485    -9.3012    -1.2685 C.1     
  19 C19           -3.4822    -9.7180    -0.1792 C.1     
  20 C20           -3.6453   -10.2264     1.1496 C.ar    
  21 C21           -3.9617   -11.5775     1.3617 C.ar    
  22 C22           -4.1087   -12.0202     2.6606 C.ar    
  23 C23           -3.9400   -11.1205     3.7098 C.ar    
  24 N24           -4.0869   -11.5610     5.0201 N.pl3   
  25 N25           -3.6411    -9.8510     3.4776 N.ar    
  26 C26           -3.4862    -9.3867     2.2545 C.ar    
  27 N27           -2.8708    -7.4978    -2.9532 N.pl3   
  28 C28           -2.6276    -6.3749    -2.2207 C.2     
  29 H29            0.7970     2.0887    -0.0137 H       
  30 H30           -0.9056     2.0738    -0.5327 H       
  31 H31           -0.4905     1.7482     1.1673 H       
  32 H32            0.2509    -0.0110    -1.2144 H       
  33 H33            1.0385    -1.5859     0.5316 H       
  34 H34            1.9322    -0.0485     0.6078 H       
  35 H35            0.6448    -0.3889     1.7888 H       
  36 H36            0.4054    -1.7535    -1.4820 H       
  37 H37           -0.0285    -3.8165    -2.7484 H       
  38 H38           -4.0636    -3.8418    -1.3078 H       
  39 H39           -3.6178    -1.7837    -0.0377 H       
  40 H40           -2.0613    -4.2948    -4.8141 H       
  41 H41           -3.5540   -10.5515    -3.8595 H       
  42 H42           -4.0873   -12.2538     0.5291 H       
  43 H43           -4.3523   -13.0531     2.8610 H       
  44 H44           -4.3054   -12.4891     5.1982 H       
  45 H45           -3.9710   -10.9402     5.7564 H       
  46 H46           -3.2380    -8.3464     2.1046 H       
  47 H47           -2.6660    -6.4047    -1.1418 H       
@<TRIPOS>BOND
   1    1    2 1
   2    1   29 1
   3    1   30 1
   4    1   31 1
   5    2    3 1
   6    2    4 1
   7    2   32 1
   8    3   33 1
   9    3   34 1
  10    3   35 1
  11    4    5 1
  12    5   10 ar
  13    5    6 ar
  14    6    7 ar
  15    6   36 1
  16    7    8 ar
  17    7   37 1
  18    8    9 ar
  19    8   11 1
  20    9   10 ar
  21    9   38 1
  22   10   39 1
  23   11   28 2
  24   11   12 1
  25   12   13 2
  26   12   40 1
  27   13   14 1
  28   14   27 1
  29   14   15 2
  30   15   16 1
  31   16   17 2
  32   16   41 1
  33   17   18 1
  34   17   27 1
  35   18   19 3
  36   19   20 1
  37   20   26 ar
  38   20   21 ar
  39   21   22 ar
  40   21   42 1
  41   22   23 ar
  42   22   43 1
  43   23   24 1
  44   23   25 ar
  45   24   44 1
  46   24   45 1
  47   25   26 ar
  48   26   46 1
  49   27   28 1
  50   28   47 1

#	End of record

