#	Name: ASD00660012
#	Creating user name:	WinNT
#	Creation time:	15. 06. 2019 18:36

#	Modifying user name:	WinNT
#	Modification time:	15. 06. 2019 18:36

#	Program:	/corina/corina34_cracker 3.40 0067  02.08.2006

@<TRIPOS>MOLECULE
ASD00660012
  62   66    0    0    0
SMALL
NO_CHARGES


@<TRIPOS>ATOM
   1 C1             0.0830     1.2002     0.9201 C.ar    
   2 C2             0.0446    -0.0827     0.3892 C.ar    
   3 C3             1.1828    -0.6736    -0.1103 C.ar    
   4 C4             2.3935     0.0240    -0.0842 C.ar    
   5 C5             2.4288     1.3297     0.4569 C.ar    
   6 C6             1.2638     1.9086     0.9574 C.ar    
   7 N7             3.5353    -0.5218    -0.5650 N.2     
   8 C8             4.6706     0.1316    -0.5403 C.2     
   9 N9             4.7916     1.3968    -0.0352 N.am    
  10 C10            3.7147     2.0399     0.4723 C.2     
  11 C11            6.0403     2.0319    -0.0432 C.ar    
  12 C12            6.9005     1.8888     1.0373 C.ar    
  13 C13            8.1311     2.5157     1.0261 C.ar    
  14 C14            8.5068     3.2853    -0.0595 C.ar    
  15 C15            7.6521     3.4301    -1.1369 C.ar    
  16 C16            6.4226     2.8010    -1.1342 C.ar    
  17 O17            3.8079     3.1662     0.9248 O.2     
  18 S18            6.1078    -0.6561    -1.1873 S.3     
  19 C19            5.3958    -2.2405    -1.6960 C.3     
  20 C20            4.4032    -2.0117    -2.8066 C.ar    
  21 C21            6.4933    -3.1512    -2.1828 C.2     
  22 N22            6.2919    -4.4830    -2.2316 N.am    
  23 O23            7.5579    -2.6858    -2.5307 O.2     
  24 C24            7.3522    -5.3837    -2.7039 C.3     
  25 C25            6.7899    -6.2615    -3.8263 C.3     
  26 C26            5.5329    -6.9777    -3.3272 C.3     
  27 C27            4.4718    -5.9431    -2.9455 C.3     
  28 C28            5.0098    -5.0621    -1.8077 C.3     
  29 C29            4.9961    -7.8685    -4.4178 C.2     
  30 N30            3.8862    -8.6024    -4.2033 N.am    
  31 O31            5.5629    -7.9250    -5.4886 O.2     
  32 C32            3.0813    -2.3794    -2.6388 C.ar    
  33 C33            2.1709    -2.1696    -3.6576 C.ar    
  34 C34            2.5823    -1.5916    -4.8441 C.ar    
  35 C35            3.9040    -1.2231    -5.0115 C.ar    
  36 C36            4.8136    -1.4289    -3.9911 C.ar    
  37 H37           -0.8221     1.6481     1.3031 H       
  38 H38           -0.8901    -0.6235     0.3685 H       
  39 H39            1.1406    -1.6719    -0.5203 H       
  40 H40            1.2868     2.9057     1.3718 H       
  41 H41            6.6075     1.2881     1.8857 H       
  42 H42            8.8005     2.4051     1.8664 H       
  43 H43            9.4696     3.7746    -0.0659 H       
  44 H44            7.9481     4.0325    -1.9831 H       
  45 H45            5.7555     2.9145    -1.9760 H       
  46 H46            4.8911    -2.7013    -0.8469 H       
  47 H47            8.1884    -4.7964    -3.0834 H       
  48 H48            7.6895    -6.0141    -1.8811 H       
  49 H49            6.5370    -5.6379    -4.6838 H       
  50 H50            7.5366    -6.9992    -4.1200 H       
  51 H51            5.7815    -7.5818    -2.4546 H       
  52 H52            4.2407    -5.3225    -3.8113 H       
  53 H53            3.5686    -6.4542    -2.6122 H       
  54 H54            5.1544    -5.6683    -0.9134 H       
  55 H55            4.3001    -4.2618    -1.5984 H       
  56 H56            3.4329    -8.5572    -3.3469 H       
  57 H57            3.5407    -9.1757    -4.9053 H       
  58 H58            2.7599    -2.8309    -1.7119 H       
  59 H59            1.1382    -2.4575    -3.5268 H       
  60 H60            1.8711    -1.4283    -5.6403 H       
  61 H61            4.2255    -0.7719    -5.9386 H       
  62 H62            5.8462    -1.1410    -4.1219 H       
@<TRIPOS>BOND
   1    1    2 ar
   2    1    6 ar
   3    1   37 1
   4    2    3 ar
   5    2   38 1
   6    3    4 ar
   7    3   39 1
   8    4    5 ar
   9    4    7 1
  10    5    6 ar
  11    5   10 1
  12    6   40 1
  13    7    8 2
  14    8    9 1
  15    8   18 1
  16    9   10 am
  17    9   11 1
  18   10   17 2
  19   11   12 ar
  20   11   16 ar
  21   12   13 ar
  22   12   41 1
  23   13   14 ar
  24   13   42 1
  25   14   15 ar
  26   14   43 1
  27   15   16 ar
  28   15   44 1
  29   16   45 1
  30   18   19 1
  31   19   20 1
  32   19   21 1
  33   19   46 1
  34   20   32 ar
  35   20   36 ar
  36   21   22 am
  37   21   23 2
  38   22   24 1
  39   22   28 1
  40   24   25 1
  41   24   47 1
  42   24   48 1
  43   25   26 1
  44   25   49 1
  45   25   50 1
  46   26   27 1
  47   26   29 1
  48   26   51 1
  49   27   28 1
  50   27   52 1
  51   27   53 1
  52   28   54 1
  53   28   55 1
  54   29   30 am
  55   29   31 2
  56   30   56 1
  57   30   57 1
  58   32   33 ar
  59   32   58 1
  60   33   34 ar
  61   33   59 1
  62   34   35 ar
  63   34   60 1
  64   35   36 ar
  65   35   61 1
  66   36   62 1

#	End of record

