#	Name: ASD01900680
#	Creating user name:	WinNT
#	Creation time:	15. 06. 2019 19:52

#	Modifying user name:	WinNT
#	Modification time:	15. 06. 2019 19:52

#	Program:	/corina/corina34_cracker 3.40 0067  02.08.2006

@<TRIPOS>MOLECULE
ASD01900680
  33   36    0    0    0
SMALL
NO_CHARGES


@<TRIPOS>ATOM
   1 C1            -0.0183     1.4025     0.1323 C.ar    
   2 C2            -0.0081     0.0177     0.1213 C.ar    
   3 C3             1.1829    -0.6778     0.0624 C.ar    
   4 C4             2.3875     0.0113     0.0133 C.ar    
   5 C5             2.3724     1.4127     0.0291 C.ar    
   6 O6             3.5588    -0.6564    -0.0563 O.3     
   7 C7             4.7336    -0.0515     0.1902 C.2     
   8 C8             4.8728     1.2949     0.2210 C.2     
   9 C9             3.6750     2.1246    -0.0107 C.2     
  10 C10            5.9227    -0.8909     0.4384 C.ar    
  11 N11            7.0966    -0.3034     0.6848 N.ar    
  12 C12            8.1935    -0.9826     0.9142 C.ar    
  13 C13            8.1660    -2.3863     0.9076 C.ar    
  14 C14            6.9360    -3.0516     0.6496 C.ar    
  15 C15            5.7941    -2.2722     0.4162 C.ar    
  16 C16            9.3059    -3.1707     1.1455 C.ar    
  17 C17            9.1814    -4.5284     1.1183 C.ar    
  18 N18            8.0219    -5.1229     0.8751 N.ar    
  19 C19            6.9153    -4.4548     0.6436 C.ar    
  20 C20            1.1700     2.1048     0.0864 C.ar    
  21 N21            3.7559     3.4129    -0.2386 N.2     
  22 O22            2.5973     4.1419    -0.6008 O.3     
  23 H23           -0.9575     1.9343     0.1725 H       
  24 H24           -0.9417    -0.5239     0.1596 H       
  25 H25            1.1778    -1.7578     0.0549 H       
  26 H26            5.8341     1.7490     0.4104 H       
  27 H27            9.1197    -0.4622     1.1082 H       
  28 H28            4.8394    -2.7357     0.2161 H       
  29 H29           10.2613    -2.7085     1.3455 H       
  30 H30           10.0543    -5.1379     1.3000 H       
  31 H31            5.9932    -4.9828     0.4505 H       
  32 H32            1.1641     3.1848     0.0946 H       
  33 H33            2.7557     5.0844    -0.7482 H       
@<TRIPOS>BOND
   1    1    2 ar
   2    1   20 ar
   3    1   23 1
   4    2    3 ar
   5    2   24 1
   6    3    4 ar
   7    3   25 1
   8    4    5 ar
   9    4    6 1
  10    5   20 ar
  11    5    9 1
  12    6    7 1
  13    7    8 2
  14    7   10 1
  15    8    9 1
  16    8   26 1
  17    9   21 2
  18   10   11 ar
  19   10   15 ar
  20   11   12 ar
  21   12   13 ar
  22   12   27 1
  23   13   14 ar
  24   13   16 ar
  25   14   15 ar
  26   14   19 ar
  27   15   28 1
  28   16   17 ar
  29   16   29 1
  30   17   18 ar
  31   17   30 1
  32   18   19 ar
  33   19   31 1
  34   20   32 1
  35   21   22 1
  36   22   33 1

#	End of record

