#	Name: ASD01948011
#	Creating user name:	WinNT
#	Creation time:	15. 06. 2019 20:13

#	Modifying user name:	WinNT
#	Modification time:	15. 06. 2019 20:13

#	Program:	/corina/corina34_cracker 3.40 0067  02.08.2006

@<TRIPOS>MOLECULE
ASD01948011
  27   28    0    0    0
SMALL
NO_CHARGES


@<TRIPOS>ATOM
   1 C1             0.7788     1.2459     1.4282 C.ar    
   2 C2             0.8574    -0.1416     1.2712 C.ar    
   3 C3             1.0791     2.0758     0.3718 C.ar    
   4 C4             1.4601     1.5430    -0.8528 C.ar    
   5 C5             1.5422     0.1719    -1.0242 C.ar    
   6 C6             1.2433    -0.6798     0.0324 C.ar    
   7 F7             1.9132    -0.3383    -2.2189 F       
   8 C8             2.6596    -4.0652    -0.2588 C.ar    
   9 C9             2.5487    -2.7106     0.0290 C.ar    
  10 N10            1.3246    -2.0576    -0.1362 N.pl3   
  11 C11            3.8709    -4.7076    -0.0940 C.ar    
  12 C12            4.9727    -4.0040     0.3570 C.ar    
  13 C13            4.8659    -2.6556     0.6445 C.ar    
  14 C14            3.6576    -2.0069     0.4820 C.ar    
  15 C15            0.5378    -1.0329     2.3979 C.2     
  16 O16            0.2748    -0.5144     3.6139 O.3     
  17 O17            0.5110    -2.2366     2.2318 O.2     
  18 F18            1.7520     2.3674    -1.8825 F       
  19 H19            0.4784     1.6661     2.3766 H       
  20 H20            1.0176     3.1468     0.4958 H       
  21 H21            1.7984    -4.6162    -0.6069 H       
  22 H22            0.5315    -2.5655    -0.3684 H       
  23 H23            3.9577    -5.7607    -0.3173 H       
  24 H24            5.9189    -4.5089     0.4851 H       
  25 H25            5.7282    -2.1093     0.9973 H       
  26 H26            3.5749    -0.9537     0.7063 H       
  27 H27            0.0702    -1.1394     4.3228 H       
@<TRIPOS>BOND
   1    1    2 ar
   2    1    3 ar
   3    1   19 1
   4    2   15 1
   5    2    6 ar
   6    3    4 ar
   7    3   20 1
   8    4    5 ar
   9    4   18 1
  10    5    6 ar
  11    5    7 1
  12    6   10 1
  13    8    9 ar
  14    8   11 ar
  15    8   21 1
  16    9   10 1
  17    9   14 ar
  18   10   22 1
  19   11   12 ar
  20   11   23 1
  21   12   13 ar
  22   12   24 1
  23   13   14 ar
  24   13   25 1
  25   14   26 1
  26   15   16 1
  27   15   17 2
  28   16   27 1

#	End of record

