#	Name: ASD01911291
#	Creating user name:	WinNT
#	Creation time:	15. 06. 2019 19:57

#	Modifying user name:	WinNT
#	Modification time:	15. 06. 2019 19:57

#	Program:	/corina/corina34_cracker 3.40 0067  02.08.2006

@<TRIPOS>MOLECULE
ASD01911291
  42   44    0    0    0
SMALL
NO_CHARGES


@<TRIPOS>ATOM
   1 N1            -0.0068     1.4098    -0.0032 N.2     
   2 N2            -0.0073     0.0098    -0.0454 N.pl3   
   3 C3             1.2422     1.8243     0.0386 C.2     
   4 C4             2.0818     0.6978     0.0242 C.2     
   5 C5             1.2896    -0.4115    -0.0278 C.2     
   6 C6             1.7532    -1.8166    -0.0586 C.ar    
   7 C7             1.6871     3.2394     0.0917 C.ar    
   8 C8             0.7468     4.2667     0.1012 C.ar    
   9 C9            -1.1920    -0.8502    -0.0987 C.3     
  10 C10           -1.6293    -1.0148    -1.5314 C.2     
  11 O11           -2.7019    -1.7670    -1.8236 O.3     
  12 O12           -1.0144    -0.4696    -2.4172 O.2     
  13 C13           -3.0653    -1.8809    -3.2248 C.3     
  14 C14            0.9278    -2.8152    -0.5758 C.ar    
  15 C15            1.1669     5.5850     0.1513 C.ar    
  16 C16            2.5243     5.8806     0.1920 C.ar    
  17 C17            3.4586     4.8594     0.1820 C.ar    
  18 C18            3.0463     3.5427     0.1380 C.ar    
  19 C19            1.3658    -4.1234    -0.6017 C.ar    
  20 C20            2.6203    -4.4456    -0.1157 C.ar    
  21 C21            3.4433    -3.4599     0.3989 C.ar    
  22 C22            3.0195    -2.1470     0.4242 C.ar    
  23 F23            2.9328     7.1674     0.2408 F       
  24 O24            0.2516     6.5903     0.1602 O.3     
  25 C25           -1.1262     6.2137     0.1162 C.3     
  26 H26            3.1614     0.7083     0.0502 H       
  27 H27           -0.3077     4.0355     0.0692 H       
  28 H28           -0.9515    -1.8265     0.3222 H       
  29 H29           -1.9978    -0.3948     0.4771 H       
  30 H30           -3.2840    -0.8910    -3.6250 H       
  31 H31           -2.2378    -2.3226    -3.7800 H       
  32 H32           -3.9468    -2.5147    -3.3211 H       
  33 H33           -0.0520    -2.5650    -0.9548 H       
  34 H34            4.5126     5.0931     0.2130 H       
  35 H35            3.7774     2.7479     0.1303 H       
  36 H36            0.7277    -4.8974    -1.0019 H       
  37 H37            2.9585    -5.4711    -0.1378 H       
  38 H38            4.4214    -3.7178     0.7775 H       
  39 H39            3.6629    -1.3783     0.8262 H       
  40 H40           -1.7481     7.1088     0.1287 H       
  41 H41           -1.3196     5.6496    -0.7962 H       
  42 H42           -1.3617     5.5955     0.9824 H       
@<TRIPOS>BOND
   1    1    2 1
   2    1    3 2
   3    2    9 1
   4    2    5 1
   5    3    4 1
   6    3    7 1
   7    4    5 2
   8    4   26 1
   9    5    6 1
  10    6   14 ar
  11    6   22 ar
  12    7    8 ar
  13    7   18 ar
  14    8   15 ar
  15    8   27 1
  16    9   10 1
  17    9   28 1
  18    9   29 1
  19   10   11 1
  20   10   12 2
  21   11   13 1
  22   13   30 1
  23   13   31 1
  24   13   32 1
  25   14   19 ar
  26   14   33 1
  27   15   16 ar
  28   15   24 1
  29   16   17 ar
  30   16   23 1
  31   17   18 ar
  32   17   34 1
  33   18   35 1
  34   19   20 ar
  35   19   36 1
  36   20   21 ar
  37   20   37 1
  38   21   22 ar
  39   21   38 1
  40   22   39 1
  41   24   25 1
  42   25   40 1
  43   25   41 1
  44   25   42 1

#	End of record

