#	Name: ASD01870099
#	Creating user name:	WinNT
#	Creation time:	15. 06. 2019 19:38

#	Modifying user name:	WinNT
#	Modification time:	15. 06. 2019 19:38

#	Program:	/corina/corina34_cracker 3.40 0067  02.08.2006

@<TRIPOS>MOLECULE
ASD01870099
  31   32    0    0    0
SMALL
NO_CHARGES


@<TRIPOS>ATOM
   1 C1            -0.0181     1.4706     0.0140 C.2     
   2 C2             0.0016    -0.0044     0.0106 C.ar    
   3 C3             1.2225    -0.6930    -0.0007 C.ar    
   4 C4             1.2298    -2.0795    -0.0033 C.ar    
   5 C5             0.0387    -2.7784     0.0053 C.ar    
   6 C6            -1.1709    -2.1019     0.0161 C.ar    
   7 C7            -1.1963    -0.7228     0.0246 C.ar    
   8 O8             1.0268     2.0925     0.0069 O.2     
   9 N9            -1.1941     2.1288     0.0193 N.am    
  10 C10           -1.2149     3.5228     0.1325 C.ar    
  11 C11           -0.2684     4.1692     0.9129 C.ar    
  12 C12           -0.2930     5.5587     1.0222 C.ar    
  13 C13           -1.2703     6.2903     0.3453 C.ar    
  14 C14           -2.2083     5.6379    -0.4286 C.ar    
  15 C15           -2.1805     4.2604    -0.5416 C.ar    
  16 C16            0.7123     6.2551     1.8526 C.2     
  17 C17            0.6870     7.5765     1.9550 C.2     
  18 O18            2.3922    -0.0056    -0.0096 O.3     
  19 Cl19          -2.6602    -2.9939     0.0256 Cl      
  20 H20            2.1684    -2.6137    -0.0124 H       
  21 H21            0.0499    -3.8583     0.0033 H       
  22 H22           -2.1408    -0.1993     0.0379 H       
  23 H23           -2.0262     1.6359    -0.0554 H       
  24 H24            0.4852     3.5980     1.4347 H       
  25 H25           -1.2925     7.3669     0.4275 H       
  26 H26           -2.9638     6.2057    -0.9512 H       
  27 H27           -2.9144     3.7556    -1.1523 H       
  28 H28            1.4675     5.6873     2.3758 H       
  29 H29           -0.0682     8.1443     1.4317 H       
  30 H30            1.4214     8.0853     2.5617 H       
  31 H31            2.7387     0.1924     0.8712 H       
@<TRIPOS>BOND
   1    1    2 1
   2    1    8 2
   3    1    9 am
   4    2    3 ar
   5    2    7 ar
   6    3    4 ar
   7    3   18 1
   8    4    5 ar
   9    4   20 1
  10    5    6 ar
  11    5   21 1
  12    6    7 ar
  13    6   19 1
  14    7   22 1
  15    9   10 1
  16    9   23 1
  17   10   11 ar
  18   10   15 ar
  19   11   12 ar
  20   11   24 1
  21   12   13 ar
  22   12   16 1
  23   13   14 ar
  24   13   25 1
  25   14   15 ar
  26   14   26 1
  27   15   27 1
  28   16   17 2
  29   16   28 1
  30   17   29 1
  31   17   30 1
  32   18   31 1

#	End of record

