#	Name: ASD01900550
#	Creating user name:	WinNT
#	Creation time:	15. 06. 2019 19:52

#	Modifying user name:	WinNT
#	Modification time:	15. 06. 2019 19:52

#	Program:	/corina/corina34_cracker 3.40 0067  02.08.2006

@<TRIPOS>MOLECULE
ASD01900550
  64   68    0    0    0
SMALL
NO_CHARGES


@<TRIPOS>ATOM
   1 C1            -2.9673     4.6803    -1.6309 C.ar    
   2 C2            -3.4368     3.4357    -1.2673 C.ar    
   3 C3            -2.5862     2.5044    -0.6896 C.ar    
   4 C4            -1.2573     2.8120    -0.4628 C.ar    
   5 C5            -0.7724     4.0593    -0.8165 C.ar    
   6 C6            -1.6287     5.0004    -1.4157 C.ar    
   7 N7             0.5508     4.4215    -0.5904 N.pl3   
   8 C8             1.1763     5.4073    -1.4791 C.3     
   9 N9             0.2541     6.5134    -1.7387 N.am    
  10 C10           -1.0778     6.3137    -1.7919 C.2     
  11 C11            0.7645     7.8027    -1.9350 C.ar    
  12 C12            1.1732     8.5612    -0.8460 C.ar    
  13 C13            1.6768     9.8322    -1.0403 C.ar    
  14 C14            1.7745    10.3513    -2.3230 C.ar    
  15 C15            1.3659     9.5944    -3.4114 C.ar    
  16 C16            0.8674     8.3210    -3.2191 C.ar    
  17 C17            2.3426    12.0740    -3.8608 C.3     
  18 O18            2.2704    11.6029    -2.5136 O.3     
  19 O19           -1.8185     7.2102    -2.1479 O.2     
  20 Br20          -3.2497     0.8004    -0.2080 Br      
  21 C21            2.4474     5.9488    -0.8181 C.3     
  22 C22            1.5486     4.7317    -2.8020 C.3     
  23 C23            2.2624     5.7434    -3.7016 C.3     
  24 N24            3.4694     6.2356    -3.0255 N.3     
  25 C25            3.1341     6.9269    -1.7742 C.3     
  26 C26            4.2528     7.1048    -3.9136 C.3     
  27 C27            5.1658     7.9743    -3.0881 C.ar    
  28 C28            5.3710     9.2938    -3.4446 C.ar    
  29 C29            6.2085    10.0933    -2.6891 C.ar    
  30 C30            6.8421     9.5728    -1.5746 C.ar    
  31 C31            6.6358     8.2488    -1.2166 C.ar    
  32 C32            5.7929     7.4527    -1.9718 C.ar    
  33 F33            7.6610    10.3533    -0.8361 F       
  34 F34            7.2536     7.7383    -0.1290 F       
  35 F35            1.0598    12.0890    -4.4189 F       
  36 F36            2.8722    13.3688    -3.8743 F       
  37 F37            3.1664    11.2254    -4.6080 F       
  38 C38            5.0889     6.2437    -4.8625 C.3     
  39 C39            4.1597     5.4477    -5.7811 C.3     
  40 H40           -3.6322     5.4007    -2.0838 H       
  41 H41           -4.4739     3.1844    -1.4331 H       
  42 H42           -0.6009     2.0827    -0.0114 H       
  43 H43            1.0517     4.0292     0.1417 H       
  44 H44            1.0969     8.1573     0.1527 H       
  45 H45            1.9944    10.4223    -0.1934 H       
  46 H46            1.4419     9.9993    -4.4097 H       
  47 H47            0.5539     7.7300    -4.0669 H       
  48 H48            2.1858     6.4653     0.1054 H       
  49 H49            3.1225     5.1225    -0.5956 H       
  50 H50            2.2104     3.8881    -2.6063 H       
  51 H51            0.6442     4.3785    -3.2975 H       
  52 H52            2.5417     5.2623    -4.6389 H       
  53 H53            1.5950     6.5802    -3.9079 H       
  54 H54            2.4624     7.7585    -1.9873 H       
  55 H55            4.0461     7.3058    -1.3130 H       
  56 H56            3.5780     7.7344    -4.4937 H       
  57 H57            4.8768     9.7007    -4.3145 H       
  58 H58            6.3686    11.1240    -2.9691 H       
  59 H59            5.6280     6.4229    -1.6916 H       
  60 H60            5.7321     6.8858    -5.4643 H       
  61 H61            5.7033     5.5553    -4.2822 H       
  62 H62            3.8344     4.5408    -5.2714 H       
  63 H63            3.2902     6.0548    -6.0329 H       
  64 H64            4.6927     5.1803    -6.6936 H       
@<TRIPOS>BOND
   1    1    2 ar
   2    1    6 ar
   3    1   40 1
   4    2    3 ar
   5    2   41 1
   6    3    4 ar
   7    3   20 1
   8    4    5 ar
   9    4   42 1
  10    5    7 1
  11    5    6 ar
  12    6   10 1
  13    7    8 1
  14    7   43 1
  15    8    9 1
  16    8   22 1
  17    8   21 1
  18    9   10 am
  19    9   11 1
  20   10   19 2
  21   11   12 ar
  22   11   16 ar
  23   12   13 ar
  24   12   44 1
  25   13   14 ar
  26   13   45 1
  27   14   15 ar
  28   14   18 1
  29   15   16 ar
  30   15   46 1
  31   16   47 1
  32   17   18 1
  33   17   35 1
  34   17   36 1
  35   17   37 1
  36   21   25 1
  37   21   48 1
  38   21   49 1
  39   22   23 1
  40   22   50 1
  41   22   51 1
  42   23   24 1
  43   23   52 1
  44   23   53 1
  45   24   25 1
  46   24   26 1
  47   25   54 1
  48   25   55 1
  49   26   27 1
  50   26   38 1
  51   26   56 1
  52   27   28 ar
  53   27   32 ar
  54   28   29 ar
  55   28   57 1
  56   29   30 ar
  57   29   58 1
  58   30   31 ar
  59   30   33 1
  60   31   32 ar
  61   31   34 1
  62   32   59 1
  63   38   39 1
  64   38   60 1
  65   38   61 1
  66   39   62 1
  67   39   63 1
  68   39   64 1

#	End of record

