#	Name: ASD01230081
#	Creating user name:	WinNT
#	Creation time:	15. 06. 2019 19:11

#	Modifying user name:	WinNT
#	Modification time:	15. 06. 2019 19:11

#	Program:	/corina/corina34_cracker 3.40 0067  02.08.2006

@<TRIPOS>MOLECULE
ASD01230081
  60   64    0    0    0
SMALL
NO_CHARGES


@<TRIPOS>ATOM
   1 C1            -0.0464     1.4297    -0.5527 C.ar    
   2 C2            -0.0157     0.0358    -0.5144 C.ar    
   3 C3            -1.2746    -0.7323    -0.3752 C.2     
   4 N4            -2.4326    -0.0971    -0.2867 N.2     
   5 C5            -3.5728    -0.7735    -0.1611 C.2     
   6 N6            -3.5782    -2.1396    -0.1203 N.pl3   
   7 C7            -2.4024    -2.8278    -0.2088 C.2     
   8 C8            -1.2422    -2.1421    -0.3424 C.2     
   9 C9             1.2053    -0.6320    -0.6082 C.ar    
  10 C10            2.3745     0.0890    -0.7382 C.ar    
  11 C11            2.3375     1.4715    -0.7751 C.ar    
  12 C12            1.1295     2.1395    -0.6830 C.ar    
  13 C13           -4.9153    -0.3596    -0.0490 C.2     
  14 C14           -5.6952    -1.5254     0.0576 C.2     
  15 N15           -4.9045    -2.5650     0.0151 N.2     
  16 C16           -5.4052     1.0213    -0.0440 C.2     
  17 O17           -4.6199     1.9460    -0.1436 O.2     
  18 C18           -7.1834     2.5838     0.1882 C.ar    
  19 N19           -6.7252     1.2676     0.0710 N.am    
  20 C20           -8.3928     2.9537    -0.3862 C.ar    
  21 C21           -6.4329     3.5224     0.8841 C.ar    
  22 C22           -6.8884     4.8214     0.9984 C.ar    
  23 C23           -8.0901     5.1876     0.4210 C.ar    
  24 C24           -8.8425     4.2539    -0.2682 C.ar    
  25 S25          -10.3730     4.7258    -1.0027 S.o2    
  26 N26          -10.0414     5.2334    -2.5437 N.am    
  27 O27          -11.1412     3.5370    -1.1284 O.2     
  28 O28          -10.8234     5.8706    -0.2913 O.2     
  29 C29          -10.0501     4.2878    -3.6711 C.3     
  30 C30          -10.9251     4.8724    -4.7857 C.3     
  31 O31          -10.4904     6.2029    -5.0765 O.3     
  32 C32          -10.6203     7.1134    -3.9820 C.3     
  33 C33           -9.7352     6.6446    -2.8270 C.3     
  34 C34           -2.3962    -4.3341    -0.1644 C.3     
  35 F35           -1.0809    -4.7984    -0.2725 F       
  36 F36           -2.9454    -4.7671     1.0473 F       
  37 F37           -3.1564    -4.8351    -1.2265 F       
  38 C38            3.6183     2.2529    -0.9163 C.3     
  39 F39            3.8934     2.4564    -2.2728 F       
  40 F40            3.4827     3.4900    -0.2773 F       
  41 F41            4.6680     1.5377    -0.3299 F       
  42 H42           -0.9892     1.9522    -0.4850 H       
  43 H43           -0.3019    -2.6686    -0.4140 H       
  44 H44            1.2355    -1.7112    -0.5788 H       
  45 H45            3.3205    -0.4269    -0.8110 H       
  46 H46            1.1070     3.2189    -0.7128 H       
  47 H47           -6.7700    -1.5562     0.1581 H       
  48 H48           -7.3576     0.5321     0.0723 H       
  49 H49           -8.9807     2.2251    -0.9248 H       
  50 H50           -5.4942     3.2370     1.3356 H       
  51 H51           -6.3054     5.5518     1.5398 H       
  52 H52           -8.4442     6.2038     0.5122 H       
  53 H53           -9.0338     4.1453    -4.0386 H       
  54 H54          -10.4605     3.3319    -3.3453 H       
  55 H55          -10.8349     4.2562    -5.6804 H       
  56 H56          -11.9650     4.8922    -4.4597 H       
  57 H57          -10.3109     8.1095    -4.2983 H       
  58 H58          -11.6591     7.1413    -3.6530 H       
  59 H59           -9.9346     7.2498    -1.9426 H       
  60 H60           -8.6860     6.7378    -3.1073 H       
@<TRIPOS>BOND
   1    1    2 ar
   2    1   12 ar
   3    1   42 1
   4    2    3 1
   5    2    9 ar
   6    3    4 2
   7    3    8 1
   8    4    5 1
   9    5    6 1
  10    5   13 2
  11    6    7 1
  12    6   15 1
  13    7   34 1
  14    7    8 2
  15    8   43 1
  16    9   10 ar
  17    9   44 1
  18   10   11 ar
  19   10   45 1
  20   11   38 1
  21   11   12 ar
  22   12   46 1
  23   13   14 1
  24   13   16 1
  25   14   15 2
  26   14   47 1
  27   16   17 2
  28   16   19 am
  29   18   19 1
  30   18   20 ar
  31   18   21 ar
  32   19   48 1
  33   20   24 ar
  34   20   49 1
  35   21   22 ar
  36   21   50 1
  37   22   23 ar
  38   22   51 1
  39   23   24 ar
  40   23   52 1
  41   24   25 1
  42   25   26 am
  43   25   27 2
  44   25   28 2
  45   26   29 1
  46   26   33 1
  47   29   30 1
  48   29   53 1
  49   29   54 1
  50   30   31 1
  51   30   55 1
  52   30   56 1
  53   31   32 1
  54   32   33 1
  55   32   57 1
  56   32   58 1
  57   33   59 1
  58   33   60 1
  59   34   35 1
  60   34   36 1
  61   34   37 1
  62   38   39 1
  63   38   40 1
  64   38   41 1

#	End of record

