#	Name: ASD01150792
#	Creating user name:	WinNT
#	Creation time:	15. 06. 2019 19:05

#	Modifying user name:	WinNT
#	Modification time:	15. 06. 2019 19:05

#	Program:	/corina/corina34_cracker 3.40 0067  02.08.2006

@<TRIPOS>MOLECULE
ASD01150792
  50   52    0    0    0
SMALL
NO_CHARGES


@<TRIPOS>ATOM
   1 N1            -0.0179     1.4659     0.0101 N.3     
   2 C2             0.0021    -0.0041     0.0020 C.3     
   3 C3             0.7497    -0.4921    -1.2417 C.3     
   4 O4             2.0659     0.0673    -1.2506 O.3     
   5 C5             2.0838     1.4973    -1.2437 C.3     
   6 C6             1.3496     2.0055    -0.0001 C.3     
   7 C7            -0.7765     1.9758     1.1601 C.3     
   8 C8             0.6633     5.2561     2.0254 C.ar    
   9 N9             0.4770     3.9478     1.9195 N.ar    
  10 C10           -0.5725     3.4644     1.2763 C.ar    
  11 C11           -1.4826     4.3436     0.7098 C.ar    
  12 C12           -1.2576     5.7051     0.8393 C.ar    
  13 N13           -0.1878     6.1229     1.4954 N.ar    
  14 S14            2.0715     5.8567     2.8976 S.3     
  15 C15            1.8127     7.6396     2.7227 C.3     
  16 C16            2.9297     8.3794     3.4125 C.2     
  17 C17            3.7702     9.1207     2.7044 C.2     
  18 C18            4.8659     9.8464     3.3809 C.ar    
  19 C19            5.7523    10.6276     2.6384 C.ar    
  20 C20            6.9182    11.2062     4.6485 C.ar    
  21 C21            5.0148     9.7578     4.7653 C.ar    
  22 C22            6.7726    11.3028     3.2759 C.ar    
  23 C23            6.0395    10.4381     5.3909 C.ar    
  24 C24            7.7307    12.1469     2.4756 C.3     
  25 C25           -2.2201     6.6974     0.2392 C.3     
  26 H26            0.5087    -0.3661     0.8967 H       
  27 H27           -1.0202    -0.3818    -0.0162 H       
  28 H28            0.8167    -1.5799    -1.2226 H       
  29 H29            0.2136    -0.1754    -2.1363 H       
  30 H30            3.1155     1.8483    -1.2262 H       
  31 H31            1.5864     1.8718    -2.1384 H       
  32 H32            1.3110     3.0946    -0.0198 H       
  33 H33            1.8778     1.6756     0.8946 H       
  34 H34           -1.8364     1.7643     1.0189 H       
  35 H35           -0.4270     1.4890     2.0706 H       
  36 H36           -2.3480     3.9755     0.1789 H       
  37 H37            1.8011     7.9030     1.6651 H       
  38 H38            0.8604     7.9146     3.1761 H       
  39 H39            3.0456     8.3057     4.4837 H       
  40 H40            3.6544     9.1945     1.6332 H       
  41 H41            5.6401    10.7032     1.5669 H       
  42 H42            7.7188    11.7364     5.1428 H       
  43 H43            4.3293     9.1585     5.3461 H       
  44 H44            6.1588    10.3666     6.4619 H       
  45 H45            7.3466    13.1645     2.4049 H       
  46 H46            8.7030    12.1589     2.9683 H       
  47 H47            7.8356    11.7277     1.4749 H       
  48 H48           -2.9914     6.9426     0.9693 H       
  49 H49           -1.6816     7.6034    -0.0386 H       
  50 H50           -2.6834     6.2639    -0.6471 H       
@<TRIPOS>BOND
   1    1    2 1
   2    1    6 1
   3    1    7 1
   4    2    3 1
   5    2   26 1
   6    2   27 1
   7    3    4 1
   8    3   28 1
   9    3   29 1
  10    4    5 1
  11    5    6 1
  12    5   30 1
  13    5   31 1
  14    6   32 1
  15    6   33 1
  16    7   10 1
  17    7   34 1
  18    7   35 1
  19    8    9 ar
  20    8   13 ar
  21    8   14 1
  22    9   10 ar
  23   10   11 ar
  24   11   12 ar
  25   11   36 1
  26   12   13 ar
  27   12   25 1
  28   14   15 1
  29   15   16 1
  30   15   37 1
  31   15   38 1
  32   16   17 2
  33   16   39 1
  34   17   18 1
  35   17   40 1
  36   18   19 ar
  37   18   21 ar
  38   19   22 ar
  39   19   41 1
  40   20   22 ar
  41   20   23 ar
  42   20   42 1
  43   21   23 ar
  44   21   43 1
  45   22   24 1
  46   23   44 1
  47   24   45 1
  48   24   46 1
  49   24   47 1
  50   25   48 1
  51   25   49 1
  52   25   50 1

#	End of record

