#	Name: ASD01882229
#	Creating user name:	WinNT
#	Creation time:	15. 06. 2019 19:44

#	Modifying user name:	WinNT
#	Modification time:	15. 06. 2019 19:44

#	Program:	/corina/corina34_cracker 3.40 0067  02.08.2006

@<TRIPOS>MOLECULE
ASD01882229
  44   47    0    0    0
SMALL
NO_CHARGES


@<TRIPOS>ATOM
   1 C1            -0.0159     1.3220     0.0093 C.2     
   2 N2             0.0021    -0.0041     0.0020 N.2     
   3 C3             1.1523    -0.6857    -0.0126 C.2     
   4 C4             2.3835     0.0173    -0.0206 C.2     
   5 C5             2.3523     1.3664    -0.0131 C.2     
   6 N6             1.1484     2.0132     0.0019 N.pl3   
   7 O7            -1.0993     2.1290     0.0184 O.3     
   8 C8             0.8540     3.4562     0.0125 C.3     
   9 C9            -0.6831     3.5211     0.0242 C.3     
  10 O10            1.1423    -1.9071    -0.0187 O.2     
  11 C11           -1.1944     4.2379    -1.2270 C.3     
  12 O12           -2.6209     4.3119    -1.1842 O.3     
  13 S13           -4.9750     5.1252    -2.3819 S.3     
  14 C14           -3.2360     4.9208    -2.2245 C.2     
  15 N15           -2.6308     5.4325    -3.2382 N.2     
  16 C16           -3.3826     6.0075    -4.1983 C.ar    
  17 C17           -4.7522     5.9505    -3.9226 C.ar    
  18 C18           -2.9645     6.6309    -5.3926 C.ar    
  19 C19           -3.8862     7.1662    -6.2569 C.ar    
  20 C20           -5.2418     7.1028    -5.9713 C.ar    
  21 C21           -5.6734     6.4982    -4.8115 C.ar    
  22 C22           -6.2424     7.6956    -6.9297 C.3     
  23 C23           -5.5059     8.3000    -8.1268 C.3     
  24 C24           -7.1936     6.6004    -7.4161 C.3     
  25 C25           -7.0437     8.7884    -6.2192 C.3     
  26 H26            3.3237    -0.5140    -0.0321 H       
  27 H27            3.2727     1.9314    -0.0185 H       
  28 H28            1.2651     3.9237     0.9072 H       
  29 H29            1.2480     3.9334    -0.8848 H       
  30 H30           -1.0396     4.0220     0.9243 H       
  31 H31           -0.7793     5.2451    -1.2639 H       
  32 H32           -0.8857     3.6850    -2.1142 H       
  33 H33           -1.9120     6.6877    -5.6282 H       
  34 H34           -3.5528     7.6414    -7.1676 H       
  35 H35           -6.7294     6.4495    -4.5904 H       
  36 H36           -4.9351     7.5216    -8.6330 H       
  37 H37           -6.2296     8.7288    -8.8200 H       
  38 H38           -4.8283     9.0803    -7.7803 H       
  39 H39           -7.7183     6.1698    -6.5632 H       
  40 H40           -7.9173     7.0291    -8.1092 H       
  41 H41           -6.6228     5.8219    -7.9223 H       
  42 H42           -6.3661     9.5687    -5.8727 H       
  43 H43           -7.7674     9.2171    -6.9123 H       
  44 H44           -7.5684     8.3578    -5.3663 H       
@<TRIPOS>BOND
   1    1    2 2
   2    1    6 1
   3    1    7 1
   4    2    3 1
   5    3    4 1
   6    3   10 2
   7    4    5 2
   8    4   26 1
   9    5    6 1
  10    5   27 1
  11    6    8 1
  12    7    9 1
  13    8    9 1
  14    8   28 1
  15    8   29 1
  16    9   11 1
  17    9   30 1
  18   11   12 1
  19   11   31 1
  20   11   32 1
  21   12   14 1
  22   13   14 1
  23   13   17 1
  24   14   15 2
  25   15   16 1
  26   16   17 ar
  27   16   18 ar
  28   17   21 ar
  29   18   19 ar
  30   18   33 1
  31   19   20 ar
  32   19   34 1
  33   20   21 ar
  34   20   22 1
  35   21   35 1
  36   22   23 1
  37   22   25 1
  38   22   24 1
  39   23   36 1
  40   23   37 1
  41   23   38 1
  42   24   39 1
  43   24   40 1
  44   24   41 1
  45   25   42 1
  46   25   43 1
  47   25   44 1

#	End of record

