#	Name: ASD05740128
#	Creating user name:	WinNT
#	Creation time:	15. 06. 2019 21:02

#	Modifying user name:	WinNT
#	Modification time:	15. 06. 2019 21:02

#	Program:	/corina/corina34_cracker 3.40 0067  02.08.2006

@<TRIPOS>MOLECULE
ASD05740128
  52   53    0    0    0
SMALL
NO_CHARGES


@<TRIPOS>ATOM
   1 S1             0.0020     1.9844     0.0505 S.3     
   2 C2            -2.4408    -2.3018     0.9432 C.3     
   3 C3            -4.3966    -0.7022     0.8787 C.2     
   4 C4            -4.9826     0.4806     0.4530 C.2     
   5 C5            -3.0841    -1.0187     0.4841 C.2     
   6 C6            -2.3978    -0.1528    -0.3184 C.2     
   7 C7            -3.0172     1.0340    -0.7317 C.2     
   8 O8            -4.2678     1.3229    -0.3484 O.3     
   9 C9            -0.9904    -0.4698    -0.7539 C.3     
  10 C10            0.0009     0.1590     0.2273 C.3     
  11 C11            1.4362    -0.2736    -0.1125 C.3     
  12 O12           -2.4108     1.8130    -1.4483 O.2     
  13 C13            1.8256     2.1852     0.1890 C.3     
  14 C14            2.3179     0.9032    -0.5330 C.3     
  15 N15            2.2786     3.3912    -0.5086 N.am    
  16 S16            2.5607     4.7834     0.3426 S.o2    
  17 O17            3.0146     5.7450    -0.6000 O.2     
  18 O18            1.4242     4.9841     1.1717 O.2     
  19 C19           -6.2780     0.6458     0.9276 C.2     
  20 C20           -6.7449    -0.3408     1.7032 C.2     
  21 S21           -5.5259    -1.5894     1.8973 S.3     
  22 O22           -7.9790    -0.3689     2.2625 O.3     
  23 N23            3.8343     4.4872     1.3587 N.am    
  24 C24            5.1615     4.2046     0.8065 C.3     
  25 C25           -8.3028    -1.5075     3.0630 C.3     
  26 H26           -3.1044    -2.8112     1.6419 H       
  27 H27           -2.2572    -2.9445     0.0822 H       
  28 H28           -1.4955    -2.0778     1.4375 H       
  29 H29           -0.8498    -1.5506    -0.7699 H       
  30 H30           -0.8193    -0.0663    -1.7519 H       
  31 H31           -0.2492    -0.1225     1.2502 H       
  32 H32            1.8777    -0.7501     0.7628 H       
  33 H33            1.4031    -0.9982    -0.9261 H       
  34 H34            2.1424     2.1951     1.2319 H       
  35 H35            3.3528     0.7021    -0.2562 H       
  36 H36            2.2513     1.0428    -1.6120 H       
  37 H37            2.4133     3.3742    -1.4690 H       
  38 H38           -6.8710     1.5155     0.6863 H       
  39 H39            3.7016     4.5008     2.3195 H       
  40 H40            5.1122     3.3143     0.1796 H       
  41 H41            5.4940     5.0526     0.2077 H       
  42 H42            5.8658     4.0367     1.6212 H       
  43 H43           -7.6024    -1.5775     3.8953 H       
  44 H44           -9.3167    -1.4037     3.4492 H       
  45 H45           -8.2361    -2.4098     2.4552 H       
  46 C46           11.3930    13.4144    10.7636 C.3     
  47 N47           11.4129    11.9495    10.7555 N.2     
  48 C48           11.9536    11.3370     9.8095 C.1     
  49 O49           12.4762    10.7450     8.8953 O.2     
  50 H50           12.4156    13.7916    10.7558 H       
  51 H51           10.8658    13.7754     9.8805 H       
  52 H52           10.8828    13.7659    11.6604 H       
@<TRIPOS>BOND
   1    1   10 1
   2    1   13 1
   3    2    5 1
   4    2   26 1
   5    2   27 1
   6    2   28 1
   7    3    4 2
   8    3    5 1
   9    3   21 1
  10    4   19 1
  11    4    8 1
  12    5    6 2
  13    6    7 1
  14    6    9 1
  15    7    8 1
  16    7   12 2
  17    9   10 1
  18    9   29 1
  19    9   30 1
  20   10   11 1
  21   10   31 1
  22   11   14 1
  23   11   32 1
  24   11   33 1
  25   13   14 1
  26   13   15 1
  27   13   34 1
  28   14   35 1
  29   14   36 1
  30   15   16 am
  31   15   37 1
  32   16   17 2
  33   16   18 2
  34   16   23 am
  35   19   20 2
  36   19   38 1
  37   20   21 1
  38   20   22 1
  39   22   25 1
  40   23   24 1
  41   23   39 1
  42   24   40 1
  43   24   41 1
  44   24   42 1
  45   25   43 1
  46   25   44 1
  47   25   45 1
  48   46   47 1
  49   46   50 1
  50   46   51 1
  51   46   52 1
  52   47   48 2
  53   48   49 2

#	End of record

