#	Name: ASD03091541
#	Creating user name:	WinNT
#	Creation time:	15. 06. 2019 20:30

#	Modifying user name:	WinNT
#	Modification time:	15. 06. 2019 20:30

#	Program:	/corina/corina34_cracker 3.40 0067  02.08.2006

@<TRIPOS>MOLECULE
ASD03091541
  40   42    0    0    0
SMALL
NO_CHARGES


@<TRIPOS>ATOM
   1 C1            -0.0167     1.3781     0.0096 C.ar    
   2 C2             0.0021    -0.0041     0.0020 C.ar    
   3 C3             1.2084    -0.6789    -0.0132 C.ar    
   4 C4             2.3960     0.0285    -0.0212 C.ar    
   5 C5             2.3773     1.4107    -0.0145 C.ar    
   6 C6             1.1709     2.0855     0.0021 C.ar    
   7 C7             3.7112    -0.7071    -0.0368 C.3     
   8 C8             4.9809     0.1200    -0.2482 C.3     
   9 C9             4.6699    -0.4652     1.1308 C.3     
  10 C10            5.5058    -1.6290     1.5975 C.2     
  11 O11            5.4036    -2.7068     1.0508 O.2     
  12 N12            6.3668    -1.4722     2.6224 N.am    
  13 C13            7.1794    -2.6036     3.0761 C.3     
  14 C14            8.4441    -2.6988     2.2203 C.3     
  15 C15            7.5635    -2.3997     4.5190 C.ar    
  16 C16            7.5610    -3.4693     5.4019 C.ar    
  17 C17            7.9203    -3.2396     6.7195 C.ar    
  18 C18            8.2702    -1.9476     7.1106 C.ar    
  19 N19            8.2590    -0.9510     6.2332 N.ar    
  20 C20            7.9276    -1.1438     4.9744 C.ar    
  21 C21            8.6441    -1.6935     8.4694 C.1     
  22 O22            9.2537    -1.5412     2.4363 O.3     
  23 N23            8.9408    -1.4920     9.5473 N.1     
  24 H24           -0.9592     1.9054     0.0170 H       
  25 H25           -0.9258    -0.5567     0.0083 H       
  26 H26            1.2231    -1.7588    -0.0184 H       
  27 H27            3.3051     1.9634    -0.0201 H       
  28 H28            1.1563     3.1654     0.0077 H       
  29 H29            3.6849    -1.7080    -0.4677 H       
  30 H30            5.7901    -0.3368    -0.8179 H       
  31 H31            4.8649     1.1962    -0.3761 H       
  32 H32            4.3493     0.2261     1.9102 H       
  33 H33            6.4485    -0.6102     3.0597 H       
  34 H34            6.6053    -3.5251     2.9796 H       
  35 H35            9.0047    -3.5913     2.4984 H       
  36 H36            8.1670    -2.7571     1.1677 H       
  37 H37            7.2847    -4.4590     5.0694 H       
  38 H38            7.9290    -4.0495     7.4340 H       
  39 H39            7.9299    -0.3089     4.2892 H       
  40 H40           10.0741    -1.5339     1.9244 H       
@<TRIPOS>BOND
   1    1    2 ar
   2    1    6 ar
   3    1   24 1
   4    2    3 ar
   5    2   25 1
   6    3    4 ar
   7    3   26 1
   8    4    5 ar
   9    4    7 1
  10    5    6 ar
  11    5   27 1
  12    6   28 1
  13    7    8 1
  14    7    9 1
  15    7   29 1
  16    8    9 1
  17    8   30 1
  18    8   31 1
  19    9   10 1
  20    9   32 1
  21   10   11 2
  22   10   12 am
  23   12   13 1
  24   12   33 1
  25   13   14 1
  26   13   15 1
  27   13   34 1
  28   14   22 1
  29   14   35 1
  30   14   36 1
  31   15   16 ar
  32   15   20 ar
  33   16   17 ar
  34   16   37 1
  35   17   18 ar
  36   17   38 1
  37   18   19 ar
  38   18   21 1
  39   19   20 ar
  40   20   39 1
  41   21   23 3
  42   22   40 1

#	End of record

