#	Name: ASD04910153
#	Creating user name:	WinNT
#	Creation time:	15. 06. 2019 20:55

#	Modifying user name:	WinNT
#	Modification time:	15. 06. 2019 20:55

#	Program:	/corina/corina34_cracker 3.40 0067  02.08.2006

@<TRIPOS>MOLECULE
ASD04910153
  19   18    0    0    0
SMALL
NO_CHARGES


@<TRIPOS>ATOM
   1 C1            -0.0184     1.5028     0.0103 C.3     
   2 C2             0.0021    -0.0041     0.0020 C.2     
   3 C3            -1.2926    -0.7753     0.0102 C.3     
   4 C4            -0.9927    -2.2755    -0.0007 C.3     
   5 O5             1.0559    -0.5936    -0.0112 O.2     
   6 C6            -2.0879    -0.4233     1.2690 C.3     
   7 C7            -2.1118    -0.4099    -1.2293 C.3     
   8 Br8            1.8261     2.1833    -0.0037 Br      
   9 H9            -0.5455     1.8639    -0.8728 H       
  10 H10           -0.5286     1.8543     0.9071 H       
  11 H11           -0.4091    -2.5358     0.8824 H       
  12 H12           -1.9291    -2.8333     0.0053 H       
  13 H13           -0.4261    -2.5263    -0.8975 H       
  14 H14           -2.3016     0.6455     1.2768 H       
  15 H15           -3.0243    -0.9811     1.2750 H       
  16 H16           -1.5043    -0.6836     2.1521 H       
  17 H17           -1.5452    -0.6606    -2.1261 H       
  18 H18           -3.0482    -0.9677    -1.2233 H       
  19 H19           -2.3254     0.6589    -1.2215 H       
@<TRIPOS>BOND
   1    1    2 1
   2    1    8 1
   3    1    9 1
   4    1   10 1
   5    2    3 1
   6    2    5 2
   7    3    4 1
   8    3    6 1
   9    3    7 1
  10    4   11 1
  11    4   12 1
  12    4   13 1
  13    6   14 1
  14    6   15 1
  15    6   16 1
  16    7   17 1
  17    7   18 1
  18    7   19 1

#	End of record

