#	Name: ASD01850032
#	Creating user name:	WinNT
#	Creation time:	15. 06. 2019 19:38

#	Modifying user name:	WinNT
#	Modification time:	15. 06. 2019 19:38

#	Program:	/corina/corina34_cracker 3.40 0067  02.08.2006

@<TRIPOS>MOLECULE
ASD01850032
  72   77    0    0    0
SMALL
NO_CHARGES


@<TRIPOS>ATOM
   1 N1             0.1093     0.3338    -0.3691 N.3     
   2 C2             0.7448    -0.9881    -0.4406 C.3     
   3 C3             1.3946    -1.3167     0.9054 C.3     
   4 C4             2.4371    -0.2458     1.2384 C.3     
   5 C5             1.7587     1.1267     1.2591 C.3     
   6 C6             1.0984     1.3845    -0.0972 C.3     
   7 C7             3.0379    -0.5311     2.5907 C.2     
   8 O8             2.4204    -1.1875     3.4023 O.2     
   9 N9             4.2614    -0.0568     2.8981 N.am    
  10 C10            5.0622     0.6215     1.8760 C.3     
  11 C11            4.8016     2.1046     1.9360 C.ar    
  12 C12            5.3360     2.9399     0.9726 C.ar    
  13 C13            5.0970     4.3001     1.0277 C.ar    
  14 C14            4.3232     4.8254     2.0460 C.ar    
  15 C15            3.7883     3.9902     3.0086 C.ar    
  16 C16            4.0237     2.6290     2.9510 C.ar    
  17 C17            6.1794     2.3674    -0.1373 C.3     
  18 F18            6.5788     3.3959    -0.9975 F       
  19 F19            7.3102     1.7495     0.4075 F       
  20 F20            5.4322     1.4253    -0.8523 F       
  21 C21            4.7905    -0.2195     4.2545 C.3     
  22 C22            5.6427    -1.4885     4.3207 C.3     
  23 S23           -3.8386     5.0761    -3.4992 S.o2    
  24 O24           -3.4429     6.2633    -2.8260 O.2     
  25 O25           -3.7948     4.9325    -4.9122 O.2     
  26 N26           -0.5898     0.6033    -1.5113 N.pl3   
  27 N27           -0.7012    -0.2490    -2.6147 N.2     
  28 C28           -1.4360     0.3056    -3.5360 C.2     
  29 C29           -1.8564     1.6134    -3.0435 C.ar    
  30 C30           -2.6403     2.6456    -3.5712 C.ar    
  31 C31           -2.8518     3.7757    -2.8360 C.ar    
  32 C32           -2.2961     3.9108    -1.5695 C.ar    
  33 C33           -1.5272     2.9174    -1.0332 C.ar    
  34 C34           -1.2993     1.7496    -1.7573 C.ar    
  35 N35           -9.3510     4.1763    -1.6779 N.pl3   
  36 N36           -9.2981     4.8890    -0.4755 N.2     
  37 C37           -8.1126     5.4030    -0.3120 C.2     
  38 C38           -7.3003     5.0256    -1.4641 C.ar    
  39 C39           -5.9770     5.2749    -1.8450 C.ar    
  40 C40           -5.5048     4.7635    -3.0188 C.ar    
  41 C41           -6.3256     3.9989    -3.8390 C.ar    
  42 C42           -7.6209     3.7427    -3.4893 C.ar    
  43 C43           -8.1306     4.2510    -2.2969 C.ar    
  44 H44           -0.0081    -1.7410    -0.6739 H       
  45 H45            1.5068    -0.9830    -1.2201 H       
  46 H46            0.6311    -1.3356     1.6831 H       
  47 H47            1.8796    -2.2911     0.8472 H       
  48 H48            3.2214    -0.2531     0.4815 H       
  49 H49            1.0009     1.1463     2.0424 H       
  50 H50            2.5039     1.8981     1.4536 H       
  51 H51            1.8587     1.3785    -0.8782 H       
  52 H52            0.6023     2.3549    -0.0810 H       
  53 H53            6.1200     0.4308     2.0574 H       
  54 H54            4.7887     0.2442     0.8906 H       
  55 H55            5.5150     4.9527     0.2755 H       
  56 H56            4.1371     5.8883     2.0895 H       
  57 H57            3.1841     4.4005     3.8042 H       
  58 H58            3.6027     1.9760     3.7011 H       
  59 H59            5.4042     0.6440     4.5111 H       
  60 H60            3.9635    -0.3000     4.9599 H       
  61 H61            5.0538    -2.3398     3.9790 H       
  62 H62            6.5179    -1.3722     3.6816 H       
  63 H63            5.9633    -1.6577     5.3487 H       
  64 H64           -1.6886    -0.1251    -4.4936 H       
  65 H65           -3.0751     2.5486    -4.5550 H       
  66 H66           -2.4741     4.8125    -1.0024 H       
  67 H67           -1.1008     3.0352    -0.0479 H       
  68 H68          -10.1260     3.7018    -2.0172 H       
  69 H69           -7.7887     6.0021     0.5262 H       
  70 H70           -5.3330     5.8691    -1.2136 H       
  71 H71           -5.9347     3.6028    -4.7645 H       
  72 H72           -8.2485     3.1476    -4.1362 H       
@<TRIPOS>BOND
   1    1    2 1
   2    1    6 1
   3    1   26 1
   4    2    3 1
   5    2   44 1
   6    2   45 1
   7    3    4 1
   8    3   46 1
   9    3   47 1
  10    4    5 1
  11    4    7 1
  12    4   48 1
  13    5    6 1
  14    5   49 1
  15    5   50 1
  16    6   51 1
  17    6   52 1
  18    7    8 2
  19    7    9 am
  20    9   10 1
  21    9   21 1
  22   10   11 1
  23   10   53 1
  24   10   54 1
  25   11   12 ar
  26   11   16 ar
  27   12   13 ar
  28   12   17 1
  29   13   14 ar
  30   13   55 1
  31   14   15 ar
  32   14   56 1
  33   15   16 ar
  34   15   57 1
  35   16   58 1
  36   17   18 1
  37   17   19 1
  38   17   20 1
  39   21   22 1
  40   21   59 1
  41   21   60 1
  42   22   61 1
  43   22   62 1
  44   22   63 1
  45   23   24 2
  46   23   25 2
  47   23   31 1
  48   23   40 1
  49   26   27 1
  50   26   34 1
  51   27   28 2
  52   28   29 1
  53   28   64 1
  54   29   30 ar
  55   29   34 ar
  56   30   31 ar
  57   30   65 1
  58   31   32 ar
  59   32   33 ar
  60   32   66 1
  61   33   34 ar
  62   33   67 1
  63   35   36 1
  64   35   43 1
  65   35   68 1
  66   36   37 2
  67   37   38 1
  68   37   69 1
  69   38   39 ar
  70   38   43 ar
  71   39   40 ar
  72   39   70 1
  73   40   41 ar
  74   41   42 ar
  75   41   71 1
  76   42   43 ar
  77   42   72 1

#	End of record

