#	Name: ASD02198878
#	Creating user name:	WinNT
#	Creation time:	15. 06. 2019 20:20

#	Modifying user name:	WinNT
#	Modification time:	15. 06. 2019 20:20

#	Program:	/corina/corina34_cracker 3.40 0067  02.08.2006

@<TRIPOS>MOLECULE
ASD02198878
  53   57    0    0    0
SMALL
NO_CHARGES


@<TRIPOS>ATOM
   1 C1             0.4010     2.7219     0.4043 C.2     
   2 C2             0.5647     1.4412     0.8215 C.2     
   3 N3             1.7998     0.9054     0.9463 N.pl3   
   4 N4             2.8766     1.5507     0.6871 N.2     
   5 C5             2.8606     2.7999     0.2740 C.2     
   6 C6             1.5629     3.4733     0.1058 C.2     
   7 C7             1.9079    -0.4200     1.3808 C.ar    
   8 C8             2.7964    -2.0375     2.9174 C.ar    
   9 C9             2.1227    -3.0452     2.2402 C.ar    
  10 C10            1.3458    -2.7380     1.1302 C.ar    
  11 C11            1.2391    -1.4308     0.7017 C.ar    
  12 C12            4.1214     3.5130    -0.0149 C.2     
  13 N13            4.4556     4.1285    -1.1885 N.pl3   
  14 N14            5.7346     4.6775    -1.0331 N.2     
  15 C15            6.1628     4.4118     0.1752 C.2     
  16 C16            5.1795     3.6881     0.8498 C.2     
  17 C17            3.6616     4.1974    -2.3402 C.ar    
  18 C18            2.9761     3.0726    -2.7805 C.ar    
  19 C19            2.1929     3.1406    -3.9167 C.ar    
  20 C20            2.0893     4.3269    -4.6176 C.ar    
  21 C21            2.7718     5.4543    -4.1819 C.ar    
  22 C22            3.5542     5.3914    -3.0398 C.ar    
  23 O23            1.4914     4.6322    -0.2754 O.2     
  24 N24            2.2304    -4.3736     2.6739 N.pl3   
  25 N25            2.3096    -5.5060     1.8530 N.2     
  26 C26            2.4003    -6.5643     2.6174 C.2     
  27 C27            2.3825    -6.1486     3.9524 C.2     
  28 C28            2.2826    -4.7928     3.9663 C.2     
  29 O29            2.2349    -4.0026     5.0691 O.3     
  30 C30            2.3804    -4.6474     6.3360 C.3     
  31 F31            1.3828    -5.6171     6.4830 F       
  32 F32            3.6375    -5.2571     6.4074 F       
  33 C33            2.6902    -0.7275     2.4899 C.ar    
  34 F34            3.3457     0.2536     3.1479 F       
  35 O35            2.6694     6.6203    -4.8725 O.3     
  36 C36            1.8421     6.6136    -6.0376 C.3     
  37 F37            0.5335     6.2733    -5.6785 F       
  38 F38            1.8496     7.8846    -6.6222 F       
  39 F39            2.3331     5.6765    -6.9529 F       
  40 H40           -0.5839     3.1525     0.2990 H       
  41 H41           -0.3026     0.8424     1.0573 H       
  42 H42            3.3998    -2.2767     3.7806 H       
  43 H43            0.8226    -3.5227     0.6040 H       
  44 H44            0.6351    -1.1933    -0.1616 H       
  45 H45            7.1179     4.7075     0.5836 H       
  46 H46            5.2397     3.3245     1.8650 H       
  47 H47            3.0557     2.1441    -2.2347 H       
  48 H48            1.6609     2.2648    -4.2577 H       
  49 H49            1.4769     4.3768    -5.5057 H       
  50 H50            4.0860     6.2676    -2.6993 H       
  51 H51            2.4757    -7.5858     2.2750 H       
  52 H52            2.4416    -6.7906     4.8189 H       
  53 H53            2.2891    -3.9087     7.1323 H       
@<TRIPOS>BOND
   1    1    2 2
   2    1    6 1
   3    1   40 1
   4    2    3 1
   5    2   41 1
   6    3    4 1
   7    3    7 1
   8    4    5 2
   9    5    6 1
  10    5   12 1
  11    6   23 2
  12    7   33 ar
  13    7   11 ar
  14    8    9 ar
  15    8   33 ar
  16    8   42 1
  17    9   10 ar
  18    9   24 1
  19   10   11 ar
  20   10   43 1
  21   11   44 1
  22   12   13 1
  23   12   16 2
  24   13   14 1
  25   13   17 1
  26   14   15 2
  27   15   16 1
  28   15   45 1
  29   16   46 1
  30   17   18 ar
  31   17   22 ar
  32   18   19 ar
  33   18   47 1
  34   19   20 ar
  35   19   48 1
  36   20   21 ar
  37   20   49 1
  38   21   22 ar
  39   21   35 1
  40   22   50 1
  41   24   25 1
  42   24   28 1
  43   25   26 2
  44   26   27 1
  45   26   51 1
  46   27   28 2
  47   27   52 1
  48   28   29 1
  49   29   30 1
  50   30   31 1
  51   30   32 1
  52   30   53 1
  53   33   34 1
  54   35   36 1
  55   36   37 1
  56   36   38 1
  57   36   39 1

#	End of record

