#	Name: ASD03240979
#	Creating user name:	WinNT
#	Creation time:	15. 06. 2019 20:35

#	Modifying user name:	WinNT
#	Modification time:	15. 06. 2019 20:35

#	Program:	/corina/corina34_cracker 3.40 0067  02.08.2006

@<TRIPOS>MOLECULE
ASD03240979
  58   63    0    0    0
SMALL
NO_CHARGES


@<TRIPOS>ATOM
   1 C1            -0.0188     1.5336     0.0105 C.3     
   2 C2             0.0021    -0.0041     0.0020 C.3     
   3 C3             1.3815     0.0967    -0.6702 C.3     
   4 C4             1.5179     1.4762    -0.0045 C.3     
   5 O5            -0.5818     2.1049    -1.1721 O.3     
   6 C6            -0.5973     2.1316     1.2944 C.3     
   7 C7             2.3746    -0.9181    -0.1653 C.ar    
   8 C8             3.3681    -1.3872    -1.0061 C.ar    
   9 C9             4.2804    -2.3163    -0.5497 C.ar    
  10 C10            4.1994    -2.7826     0.7625 C.ar    
  11 C11            3.1954    -2.3058     1.6054 C.ar    
  12 C12            2.2926    -1.3725     1.1389 C.ar    
  13 N13            6.9699    -6.5932    -0.0350 N.pl3   
  14 C14            7.8718    -7.5247     0.4033 C.2     
  15 N15            8.3288    -7.5343     1.6681 N.2     
  16 C16            7.9382    -6.6542     2.5535 C.2     
  17 C17            6.9756    -5.6282     2.1581 C.ar    
  18 C18            6.5198    -4.6605     3.0599 C.ar    
  19 C19            5.6033    -3.7212     2.5992 C.ar    
  20 C20            5.1750    -3.7802     1.2585 C.ar    
  21 N21            5.6288    -4.7118     0.4336 N.ar    
  22 C22            6.4997    -5.6237     0.8298 C.ar    
  23 C23            8.1502    -8.3511    -0.6769 C.2     
  24 C24            7.4041    -7.8994    -1.7582 C.2     
  25 N25            6.6981    -6.8600    -1.3823 N.2     
  26 C26            7.4020    -8.5080    -3.1368 C.3     
  27 C27            5.0833    -2.6713     3.5078 C.ar    
  28 C28            4.5762    -3.0177     4.7592 C.ar    
  29 C29            4.0937    -2.0353     5.6014 C.ar    
  30 C30            4.1133    -0.7090     5.2043 C.ar    
  31 C31            4.6155    -0.3607     3.9638 C.ar    
  32 C32            5.1052    -1.3338     3.1161 C.ar    
  33 Cl33           3.4610    -2.4640     7.1601 Cl      
  34 N34            1.3186     0.1546    -2.1367 N.3     
  35 H35            0.0329    -0.4458     0.9980 H       
  36 H36           -0.7629    -0.4476    -0.6353 H       
  37 H37            1.9766     2.2276    -0.6471 H       
  38 H38            1.9632     1.4391     0.9897 H       
  39 H39           -0.5977     3.0718    -1.1727 H       
  40 H40            0.0010     1.8098     2.1469 H       
  41 H41           -0.5800     3.2195     1.2285 H       
  42 H42           -1.6249     1.7917     1.4227 H       
  43 H43            3.4295    -1.0257    -2.0219 H       
  44 H44            5.0553    -2.6821    -1.2071 H       
  45 H45            3.1275    -2.6634     2.6222 H       
  46 H46            1.5175    -0.9993     1.7918 H       
  47 H47            8.3214    -6.6856     3.5628 H       
  48 H48            6.8687    -4.6434     4.0818 H       
  49 H49            8.8259    -9.1936    -0.6767 H       
  50 H50            6.6287    -9.2739    -3.1947 H       
  51 H51            7.2014    -7.7325    -3.8760 H       
  52 H52            8.3745    -8.9578    -3.3369 H       
  53 H53            4.5603    -4.0521     5.0693 H       
  54 H54            3.7348     0.0563     5.8657 H       
  55 H55            4.6284     0.6754     3.6592 H       
  56 H56            5.5012    -1.0598     2.1495 H       
  57 H57            2.2430     0.2199    -2.5360 H       
  58 H58            0.8193    -0.6393    -2.5089 H       
@<TRIPOS>BOND
   1    1    2 1
   2    1    4 1
   3    1    5 1
   4    1    6 1
   5    2    3 1
   6    2   35 1
   7    2   36 1
   8    3    4 1
   9    3    7 1
  10    3   34 1
  11    4   37 1
  12    4   38 1
  13    5   39 1
  14    6   40 1
  15    6   41 1
  16    6   42 1
  17    7    8 ar
  18    7   12 ar
  19    8    9 ar
  20    8   43 1
  21    9   10 ar
  22    9   44 1
  23   10   11 ar
  24   10   20 1
  25   11   12 ar
  26   11   45 1
  27   12   46 1
  28   13   14 1
  29   13   22 1
  30   13   25 1
  31   14   15 1
  32   14   23 2
  33   15   16 2
  34   16   17 1
  35   16   47 1
  36   17   18 ar
  37   17   22 ar
  38   18   19 ar
  39   18   48 1
  40   19   20 ar
  41   19   27 1
  42   20   21 ar
  43   21   22 ar
  44   23   24 1
  45   23   49 1
  46   24   25 2
  47   24   26 1
  48   26   50 1
  49   26   51 1
  50   26   52 1
  51   27   28 ar
  52   27   32 ar
  53   28   29 ar
  54   28   53 1
  55   29   30 ar
  56   29   33 1
  57   30   31 ar
  58   30   54 1
  59   31   32 ar
  60   31   55 1
  61   32   56 1
  62   34   57 1
  63   34   58 1

#	End of record

