#	Name: ASD00570015
#	Creating user name:	WinNT
#	Creation time:	15. 06. 2019 18:36

#	Modifying user name:	WinNT
#	Modification time:	15. 06. 2019 18:36

#	Program:	/corina/corina34_cracker 3.40 0067  02.08.2006

@<TRIPOS>MOLECULE
ASD00570015
  68   71    0    0    0
SMALL
NO_CHARGES


@<TRIPOS>ATOM
   1 C1            -0.2164    -0.5438    -2.1307 C.ar    
   2 C2             0.3392    -1.8011    -1.9318 C.ar    
   3 C3             1.6598    -1.9376    -1.5537 C.ar    
   4 C4             2.4491    -0.7937    -1.3684 C.ar    
   5 C5             1.8766     0.4814    -1.5728 C.ar    
   6 C6             0.5396     0.5936    -1.9547 C.ar    
   7 N7             3.7483    -0.8825    -0.9975 N.2     
   8 C8             4.4858     0.1859    -0.8240 C.2     
   9 N9             4.0102     1.4564    -1.0008 N.am    
  10 C10            2.7255     1.6633    -1.3715 C.2     
  11 C11            4.8596     2.5513    -0.7960 C.ar    
  12 C12            5.3153     2.8485     0.4811 C.ar    
  13 C13            6.1539     3.9296     0.6798 C.ar    
  14 C14            6.5381     4.7147    -0.3930 C.ar    
  15 C15            6.0847     4.4205    -1.6659 C.ar    
  16 C16            5.2519     3.3382    -1.8711 C.ar    
  17 Cl17           6.7248     4.3027     2.2762 Cl      
  18 S18            6.1672    -0.0227    -0.3402 S.3     
  19 C19            6.1977    -1.8126    -0.0731 C.3     
  20 C20            7.6025    -2.3247    -0.2610 C.2     
  21 C21            5.7273    -2.1241     1.3491 C.3     
  22 C22            4.2954    -1.6181     1.5350 C.3     
  23 C23            3.8589    -1.8436     2.9840 C.3     
  24 N24            7.8102    -3.6092    -0.6121 N.am    
  25 C25            9.1739    -4.1231    -0.7990 C.3     
  26 C26            9.2717    -4.7695    -2.1844 C.3     
  27 C27            8.1760    -5.8283    -2.3274 C.3     
  28 C28            6.8030    -5.1644    -2.2000 C.3     
  29 C29            6.6774    -4.5239    -0.8093 C.3     
  30 O30            8.5462    -1.5809    -0.0963 O.2     
  31 C31            8.2904    -6.4901    -3.6765 C.2     
  32 N32            7.4239    -7.4614    -4.0262 N.am    
  33 O33            9.1621    -6.1487    -4.4475 O.2     
  34 O34            2.2889     2.7883    -1.5328 O.2     
  35 C35            2.4270    -1.3376     3.1699 C.3     
  36 O36            2.1918    -3.1739    -1.3616 O.3     
  37 C37            1.3263    -4.2919    -1.5688 C.3     
  38 H38           -1.2503    -0.4576    -2.4308 H       
  39 H39           -0.2690    -2.6820    -2.0742 H       
  40 H40            0.0998     1.5674    -2.1119 H       
  41 H41            5.0150     2.2362     1.3185 H       
  42 H42            7.1929     5.5590    -0.2358 H       
  43 H43            6.3856     5.0355    -2.5011 H       
  44 H44            4.8984     3.1093    -2.8656 H       
  45 H45            5.5351    -2.2982    -0.7895 H       
  46 H46            5.7563    -3.2012     1.5137 H       
  47 H47            6.3833    -1.6294     2.0653 H       
  48 H48            4.2534    -0.5536     1.3044 H       
  49 H49            3.6283    -2.1615     0.8658 H       
  50 H50            3.9009    -2.9081     3.2146 H       
  51 H51            4.5260    -1.3003     3.6532 H       
  52 H52            9.8869    -3.3016    -0.7279 H       
  53 H53            9.3925    -4.8667    -0.0326 H       
  54 H54            9.1426    -4.0063    -2.9519 H       
  55 H55           10.2487    -5.2392    -2.2986 H       
  56 H56            8.2910    -6.5779    -1.5445 H       
  57 H57            6.6971    -4.3975    -2.9673 H       
  58 H58            6.0228    -5.9152    -2.3252 H       
  59 H59            6.6920    -5.3019    -0.0460 H       
  60 H60            5.7434    -3.9656    -0.7471 H       
  61 H61            6.7267    -7.7344    -3.4096 H       
  62 H62            7.4975    -7.8874    -4.8945 H       
  63 H63            2.3850    -0.2731     2.9392 H       
  64 H64            1.7599    -1.8810     2.5007 H       
  65 H65            2.1160    -1.4983     4.2021 H       
  66 H66            0.4799    -4.2278    -0.8850 H       
  67 H67            0.9641    -4.2854    -2.5968 H       
  68 H68            1.8747    -5.2153    -1.3826 H       
@<TRIPOS>BOND
   1    1    2 ar
   2    1    6 ar
   3    1   38 1
   4    2    3 ar
   5    2   39 1
   6    3    4 ar
   7    3   36 1
   8    4    5 ar
   9    4    7 1
  10    5    6 ar
  11    5   10 1
  12    6   40 1
  13    7    8 2
  14    8    9 1
  15    8   18 1
  16    9   10 am
  17    9   11 1
  18   10   34 2
  19   11   12 ar
  20   11   16 ar
  21   12   13 ar
  22   12   41 1
  23   13   14 ar
  24   13   17 1
  25   14   15 ar
  26   14   42 1
  27   15   16 ar
  28   15   43 1
  29   16   44 1
  30   18   19 1
  31   19   20 1
  32   19   21 1
  33   19   45 1
  34   20   24 am
  35   20   30 2
  36   21   22 1
  37   21   46 1
  38   21   47 1
  39   22   23 1
  40   22   48 1
  41   22   49 1
  42   23   35 1
  43   23   50 1
  44   23   51 1
  45   24   25 1
  46   24   29 1
  47   25   26 1
  48   25   52 1
  49   25   53 1
  50   26   27 1
  51   26   54 1
  52   26   55 1
  53   27   28 1
  54   27   31 1
  55   27   56 1
  56   28   29 1
  57   28   57 1
  58   28   58 1
  59   29   59 1
  60   29   60 1
  61   31   32 am
  62   31   33 2
  63   32   61 1
  64   32   62 1
  65   35   63 1
  66   35   64 1
  67   35   65 1
  68   36   37 1
  69   37   66 1
  70   37   67 1
  71   37   68 1

#	End of record

