#	Name: ASD03092847
#	Creating user name:	WinNT
#	Creation time:	15. 06. 2019 20:33

#	Modifying user name:	WinNT
#	Modification time:	15. 06. 2019 20:33

#	Program:	/corina/corina34_cracker 3.40 0067  02.08.2006

@<TRIPOS>MOLECULE
ASD03092847
  47   50    0    0    0
SMALL
NO_CHARGES


@<TRIPOS>ATOM
   1 N1            -0.8565    -1.3595    -1.0330 N.am    
   2 S2            -0.0912    -0.3533     0.0367 S.o2    
   3 O3            -0.1953     0.9579    -0.5009 O.2     
   4 O4            -0.5681    -0.7037     1.3286 O.2     
   5 C5             1.6211    -0.7679     0.0091 C.ar    
   6 C6             2.1102    -1.7319     0.8730 C.ar    
   7 C7             3.4495    -2.0612     0.8572 C.ar    
   8 C8             4.3127    -1.4193    -0.0340 C.ar    
   9 C9             3.8118    -0.4474    -0.9036 C.ar    
  10 C10            2.4693    -0.1320    -0.8803 C.ar    
  11 C11            5.7469    -1.7658    -0.0565 C.2     
  12 S12            6.7011    -2.1345    -1.4914 S.3     
  13 C13            8.1257    -2.3781    -0.4862 C.2     
  14 N14            7.8222    -2.1839     0.7596 N.2     
  15 C15            6.5718    -1.8517     1.0339 C.2     
  16 C16            6.0987    -1.5967     2.4140 C.ar    
  17 C17            5.2526    -0.5190     2.6760 C.ar    
  18 C18            4.8150    -0.2861     3.9635 C.ar    
  19 C19            5.2145    -1.1194     4.9946 C.ar    
  20 Cl20           4.6600    -0.8205     6.6122 Cl      
  21 C21            6.0542    -2.1906     4.7402 C.ar    
  22 C22            6.4930    -2.4366     3.4556 C.ar    
  23 N23            9.3845    -2.7261    -0.9562 N.am    
  24 C24           10.4552    -2.8939     0.0184 C.3     
  25 C25           11.6008    -3.7108    -0.5805 C.3     
  26 C26           11.9883    -3.0964    -1.9310 C.3     
  27 C27           10.8303    -3.3089    -2.9093 C.3     
  28 C28            9.5371    -2.8913    -2.2706 C.2     
  29 O29            8.5813    -2.6889    -2.9893 O.2     
  30 H30           -0.3463    -2.0193    -1.5282 H       
  31 H31           -1.8156    -1.2917    -1.1614 H       
  32 H32            1.4417    -2.2274     1.5615 H       
  33 H33            3.8300    -2.8133     1.5325 H       
  34 H34            4.4735     0.0531    -1.5950 H       
  35 H35            2.0799     0.6163    -1.5548 H       
  36 H36            4.9410     0.1320     1.8726 H       
  37 H37            4.1599     0.5479     4.1675 H       
  38 H38            6.3630    -2.8372     5.5483 H       
  39 H39            7.1440    -3.2752     3.2575 H       
  40 H40           10.8285    -1.9140     0.3158 H       
  41 H41           10.0657    -3.4094     0.8963 H       
  42 H42           12.4583    -3.6860     0.0920 H       
  43 H43           11.2776    -4.7414    -0.7269 H       
  44 H44           12.1744    -2.0294    -1.8089 H       
  45 H45           12.8852    -3.5845    -2.3125 H       
  46 H46           11.0016    -2.7156    -3.8075 H       
  47 H47           10.7731    -4.3635    -3.1790 H       
@<TRIPOS>BOND
   1    1    2 am
   2    1   30 1
   3    1   31 1
   4    2    3 2
   5    2    4 2
   6    2    5 1
   7    5   10 ar
   8    5    6 ar
   9    6    7 ar
  10    6   32 1
  11    7    8 ar
  12    7   33 1
  13    8    9 ar
  14    8   11 1
  15    9   10 ar
  16    9   34 1
  17   10   35 1
  18   11   15 2
  19   11   12 1
  20   12   13 1
  21   13   14 2
  22   13   23 1
  23   14   15 1
  24   15   16 1
  25   16   22 ar
  26   16   17 ar
  27   17   18 ar
  28   17   36 1
  29   18   19 ar
  30   18   37 1
  31   19   20 1
  32   19   21 ar
  33   21   22 ar
  34   21   38 1
  35   22   39 1
  36   23   28 am
  37   23   24 1
  38   24   25 1
  39   24   40 1
  40   24   41 1
  41   25   26 1
  42   25   42 1
  43   25   43 1
  44   26   27 1
  45   26   44 1
  46   26   45 1
  47   27   28 1
  48   27   46 1
  49   27   47 1
  50   28   29 2

#	End of record

