#	Name: ASD00960022
#	Creating user name:	WinNT
#	Creation time:	15. 06. 2019 18:53

#	Modifying user name:	WinNT
#	Modification time:	15. 06. 2019 18:53

#	Program:	/corina/corina34_cracker 3.40 0067  02.08.2006

@<TRIPOS>MOLECULE
ASD00960022
  39   41    0    0    0
SMALL
NO_CHARGES


@<TRIPOS>ATOM
   1 C1            -0.0292     1.4559     0.1506 C.3     
   2 C2            -0.0584    -0.0889     0.1597 C.3     
   3 C3            -0.8390    -0.4421     1.4451 C.3     
   4 O4            -1.6480     0.7230     1.7173 O.3     
   5 C5            -0.7956     1.8533     1.4316 C.3     
   6 C6            -1.6380     3.1058     1.1814 C.3     
   7 C7            -0.7908    -0.6185    -1.0748 C.3     
   8 C8            -1.7148    -1.6463     1.2129 C.2     
   9 C9            -1.3179    -2.9420     1.3196 C.2     
  10 N10           -3.0164    -1.6108     0.8724 N.pl3   
  11 C11           -3.4736    -2.9089     0.7495 C.2     
  12 C12           -2.4159    -3.7527     1.0279 C.2     
  13 N13           -3.9188    -0.5634     0.6397 N.2     
  14 C14           -5.1550    -0.8259     0.3162 C.2     
  15 N15           -5.6097    -2.0719     0.1941 N.2     
  16 C16           -4.8262    -3.1184     0.3950 C.2     
  17 O17           -2.3044     3.4807     2.3886 O.3     
  18 N18           -5.3232    -4.3992     0.2617 N.pl3   
  19 C19           -2.4423    -5.2594     1.0175 C.3     
  20 O20            1.2692    -0.6145     0.2165 O.3     
  21 *21            2.0738    -0.2605    -0.8859 Du      
  22 O22            1.3172     1.9316     0.2048 O.3     
  23 *23            1.5142     3.1701    -0.4397 Du      
  24 H24           -0.5344     1.8422    -0.7346 H       
  25 H25           -0.1497    -0.6263     2.2691 H       
  26 H26           -0.0997     2.0211     2.2536 H       
  27 H27           -0.9906     3.9200     0.8559 H       
  28 H28           -2.3772     2.8979     0.4078 H       
  29 H29           -0.2632    -0.3011    -1.9743 H       
  30 H30           -0.8239    -1.7074    -1.0383 H       
  31 H31           -1.8069    -0.2244    -1.0914 H       
  32 H32           -0.3279    -3.2837     1.5834 H       
  33 H33           -5.8337    -0.0041     0.1417 H       
  34 H34           -2.8581     4.2689     2.3037 H       
  35 H35           -6.2733    -4.5389     0.1246 H       
  36 H36           -4.7225    -5.1595     0.3050 H       
  37 H37           -2.2879    -5.6185    -0.0000 H       
  38 H38           -1.6501    -5.6411     1.6616 H       
  39 H39           -3.4079    -5.6084     1.3834 H       
@<TRIPOS>BOND
   1    1    2 1
   2    1   22 1
   3    1    5 1
   4    1   24 1
   5    2    7 1
   6    2   20 1
   7    2    3 1
   8    3    4 1
   9    3    8 1
  10    3   25 1
  11    4    5 1
  12    5    6 1
  13    5   26 1
  14    6   17 1
  15    6   27 1
  16    6   28 1
  17    7   29 1
  18    7   30 1
  19    7   31 1
  20    8    9 2
  21    8   10 1
  22    9   12 1
  23    9   32 1
  24   10   11 1
  25   10   13 1
  26   11   12 2
  27   11   16 1
  28   12   19 1
  29   13   14 2
  30   14   15 1
  31   14   33 1
  32   15   16 2
  33   16   18 1
  34   17   34 1
  35   18   35 1
  36   18   36 1
  37   19   37 1
  38   19   38 1
  39   19   39 1
  40   20   21 1
  41   22   23 1

#	End of record

