#	Name: ASD01180152
#	Creating user name:	WinNT
#	Creation time:	15. 06. 2019 19:06

#	Modifying user name:	WinNT
#	Modification time:	15. 06. 2019 19:06

#	Program:	/corina/corina34_cracker 3.40 0067  02.08.2006

@<TRIPOS>MOLECULE
ASD01180152
  51   54    0    0    0
SMALL
NO_CHARGES


@<TRIPOS>ATOM
   1 C1             0.4619     1.2462     0.3018 C.2     
   2 C2             0.3838    -0.2256     0.2015 C.ar    
   3 C3             1.5487    -0.9813     0.0544 C.ar    
   4 C4             1.4686    -2.3553    -0.0382 C.ar    
   5 C5             0.2375    -2.9848     0.0139 C.ar    
   6 C6            -0.9208    -2.2420     0.1591 C.ar    
   7 C7            -0.8547    -0.8678     0.2592 C.ar    
   8 O8             1.5412     1.8016     0.2564 O.2     
   9 O9            -0.6643     1.9727     0.4381 O.3     
  10 C10            0.1579    -4.4862    -0.0884 C.3     
  11 N11           -0.8512    -4.9867     0.8484 N.pl3   
  12 N12            1.1213    -5.1205     3.8927 N.ar    
  13 C13            0.7677    -4.8980     2.6515 C.ar    
  14 C14           -0.5060    -5.2376     2.1785 C.ar    
  15 C15           -1.4193    -5.8218     3.0349 C.ar    
  16 C16           -1.0236    -6.0534     4.3649 C.ar    
  17 C17           -1.8971    -6.6431     5.2932 C.ar    
  18 C18           -1.4790    -6.8519     6.5721 C.ar    
  19 C19           -0.1951    -6.4879     6.9724 C.ar    
  20 C20            0.6770    -5.9143     6.0990 C.ar    
  21 C21            0.2830    -5.6821     4.7697 C.ar    
  22 C22           -0.2304    -4.8803    -1.5148 C.3     
  23 C23           -0.4447    -6.3918    -1.6996 C.3     
  24 C24           -1.6424    -6.0329    -2.5950 C.3     
  25 C25           -1.7293    -4.7108    -1.8143 C.3     
  26 C26           -1.2732    -5.8514    -4.0687 C.3     
  27 C27           -2.8540    -6.9449    -2.3926 C.3     
  28 H28            2.5102    -0.4911     0.0129 H       
  29 H29            2.3689    -2.9410    -0.1520 H       
  30 H30           -1.8785    -2.7396     0.1984 H       
  31 H31           -1.7592    -0.2895     0.3773 H       
  32 H32           -0.5629     2.9323     0.4998 H       
  33 H33            1.1278    -4.9190     0.1569 H       
  34 H34           -1.7590    -5.1438     0.5450 H       
  35 H35            1.4761    -4.4417     1.9759 H       
  36 H36           -2.4076    -6.0922     2.6936 H       
  37 H37           -2.8947    -6.9291     4.9944 H       
  38 H38           -2.1514    -7.3052     7.2854 H       
  39 H39            0.1130    -6.6635     7.9925 H       
  40 H40            1.6687    -5.6386     6.4261 H       
  41 H41            0.4197    -4.4361    -2.2685 H       
  42 H42            0.3670    -6.8858    -2.2335 H       
  43 H43           -0.7252    -6.9085    -0.7817 H       
  44 H44           -2.3608    -4.7679    -0.9278 H       
  45 H45           -1.9545    -3.8478    -2.4409 H       
  46 H46           -0.8458    -6.7775    -4.4529 H       
  47 H47           -2.1674    -5.5998    -4.6389 H       
  48 H48           -0.5433    -5.0474    -4.1640 H       
  49 H49           -3.1900    -6.8784    -1.3578 H       
  50 H50           -3.6594    -6.6319    -3.0570 H       
  51 H51           -2.5758    -7.9743    -2.6187 H       
@<TRIPOS>BOND
   1    1    2 1
   2    1    8 2
   3    1    9 1
   4    2    3 ar
   5    2    7 ar
   6    3    4 ar
   7    3   28 1
   8    4    5 ar
   9    4   29 1
  10    5    6 ar
  11    5   10 1
  12    6    7 ar
  13    6   30 1
  14    7   31 1
  15    9   32 1
  16   10   11 1
  17   10   22 1
  18   10   33 1
  19   11   14 1
  20   11   34 1
  21   12   13 ar
  22   12   21 ar
  23   13   14 ar
  24   13   35 1
  25   14   15 ar
  26   15   16 ar
  27   15   36 1
  28   16   17 ar
  29   16   21 ar
  30   17   18 ar
  31   17   37 1
  32   18   19 ar
  33   18   38 1
  34   19   20 ar
  35   19   39 1
  36   20   21 ar
  37   20   40 1
  38   22   23 1
  39   22   25 1
  40   22   41 1
  41   23   24 1
  42   23   42 1
  43   23   43 1
  44   24   25 1
  45   24   26 1
  46   24   27 1
  47   25   44 1
  48   25   45 1
  49   26   46 1
  50   26   47 1
  51   26   48 1
  52   27   49 1
  53   27   50 1
  54   27   51 1

#	End of record

