#	Name: ASD03091325
#	Creating user name:	WinNT
#	Creation time:	15. 06. 2019 20:30

#	Modifying user name:	WinNT
#	Modification time:	15. 06. 2019 20:30

#	Program:	/corina/corina34_cracker 3.40 0067  02.08.2006

@<TRIPOS>MOLECULE
ASD03091325
  40   42    0    0    0
SMALL
NO_CHARGES


@<TRIPOS>ATOM
   1 C1            -0.0167     1.3776     0.0096 C.ar    
   2 C2             0.0021    -0.0041     0.0020 C.ar    
   3 C3             1.2062    -0.6822    -0.0122 C.ar    
   4 C4             2.3955     0.0225    -0.0166 C.ar    
   5 C5             2.3850     1.4112    -0.0078 C.ar    
   6 C6             1.1742     2.0966     0.0021 C.ar    
   7 N7             1.1169     3.4883    -0.0012 N.pl3   
   8 S8             3.9130     2.2854    -0.0041 S.3     
   9 C9             3.4575     3.9028     0.5208 C.ar    
  10 C10            2.1309     4.3199     0.4681 C.ar    
  11 C11            1.8015     5.6025     0.8928 C.ar    
  12 C12            4.4372     4.7658     0.9924 C.ar    
  13 C13            4.1000     6.0400     1.4110 C.ar    
  14 C14            2.7831     6.4568     1.3616 C.ar    
  15 C15           -0.0920     4.1205    -0.5351 C.3     
  16 C16           -1.1048     4.3193     0.5942 C.3     
  17 C17           -2.3674     4.9796     0.0366 C.3     
  18 N18           -3.3399     5.1705     1.1210 N.3     
  19 C19           -2.8449     6.1401     2.1073 C.3     
  20 C20           -4.6468     5.5802     0.5899 C.3     
  21 Cl21           2.3603     8.0560     1.8883 Cl      
  22 H22           -0.9608     1.9021     0.0169 H       
  23 H23           -0.9266    -0.5554     0.0075 H       
  24 H24            1.2181    -1.7621    -0.0195 H       
  25 H25            3.3359    -0.5086    -0.0266 H       
  26 H26            0.7741     5.9333     0.8561 H       
  27 H27            5.4664     4.4409     1.0328 H       
  28 H28            4.8649     6.7086     1.7773 H       
  29 H29            0.1645     5.0876    -0.9676 H       
  30 H30           -0.5263     3.4821    -1.3045 H       
  31 H31           -1.3613     3.3522     1.0267 H       
  32 H32           -0.6705     4.9577     1.3636 H       
  33 H33           -2.1109     5.9467    -0.3959 H       
  34 H34           -2.8017     4.3412    -0.7327 H       
  35 H35           -2.6730     7.0994     1.6191 H       
  36 H36           -3.5842     6.2626     2.8989 H       
  37 H37           -1.9104     5.7778     2.5357 H       
  38 H38           -5.0222     4.8108    -0.0848 H       
  39 H39           -5.3478     5.7146     1.4137 H       
  40 H40           -4.5401     6.5192     0.0468 H       
@<TRIPOS>BOND
   1    1    2 ar
   2    1    6 ar
   3    1   22 1
   4    2    3 ar
   5    2   23 1
   6    3    4 ar
   7    3   24 1
   8    4    5 ar
   9    4   25 1
  10    5    6 ar
  11    5    8 1
  12    6    7 1
  13    7   10 1
  14    7   15 1
  15    8    9 1
  16    9   12 ar
  17    9   10 ar
  18   10   11 ar
  19   11   14 ar
  20   11   26 1
  21   12   13 ar
  22   12   27 1
  23   13   14 ar
  24   13   28 1
  25   14   21 1
  26   15   16 1
  27   15   29 1
  28   15   30 1
  29   16   17 1
  30   16   31 1
  31   16   32 1
  32   17   18 1
  33   17   33 1
  34   17   34 1
  35   18   19 1
  36   18   20 1
  37   19   35 1
  38   19   36 1
  39   19   37 1
  40   20   38 1
  41   20   39 1
  42   20   40 1

#	End of record

