#	Name: ASD00310290
#	Creating user name:	WinNT
#	Creation time:	15. 06. 2019 18:34

#	Modifying user name:	WinNT
#	Modification time:	15. 06. 2019 18:34

#	Program:	/corina/corina34_cracker 3.40 0067  02.08.2006

@<TRIPOS>MOLECULE
ASD00310290
  25   26    0    0    0
SMALL
NO_CHARGES


@<TRIPOS>ATOM
   1 O1             1.2475     1.8737     1.6907 O.3     
   2 C2             1.7068     1.5090     0.3827 C.3     
   3 C3             1.3600     0.0520     0.7127 C.3     
   4 C4             1.6094     0.5607     2.1379 C.3     
   5 O5             0.0053    -0.3125     0.4406 O.3     
   6 C6             2.3657    -0.9578     0.2229 C.ar    
   7 C7             2.6914    -1.0157    -1.1247 C.ar    
   8 C8             3.6172    -1.9461    -1.5728 C.ar    
   9 C9             4.2132    -2.8134    -0.6760 C.ar    
  10 C10            3.8861    -2.7536     0.6668 C.ar    
  11 C11            2.9679    -1.8225     1.1160 C.ar    
  12 O12            2.1038    -0.1624    -2.0041 O.3     
  13 C13            2.4871    -0.2790    -3.3758 C.3     
  14 Br14           5.4757    -4.0824    -1.2855 Br      
  15 H15            1.1005     1.9269    -0.4210 H       
  16 H16            2.7737     1.6774     0.2361 H       
  17 H17            2.6509     0.4814     2.4496 H       
  18 H18            0.9177     0.1476     2.8721 H       
  19 H19           -0.6480     0.2952     0.8134 H       
  20 H20            3.8721    -1.9933    -2.6212 H       
  21 H21            4.3523    -3.4319     1.3660 H       
  22 H22            2.7177    -1.7745     2.1655 H       
  23 H23            1.9454     0.4583    -3.9684 H       
  24 H24            3.5589    -0.1041    -3.4697 H       
  25 H25            2.2494    -1.2800    -3.7357 H       
@<TRIPOS>BOND
   1    1    2 1
   2    1    4 1
   3    2    3 1
   4    2   15 1
   5    2   16 1
   6    3    4 1
   7    3    5 1
   8    3    6 1
   9    4   17 1
  10    4   18 1
  11    5   19 1
  12    6    7 ar
  13    6   11 ar
  14    7    8 ar
  15    7   12 1
  16    8    9 ar
  17    8   20 1
  18    9   10 ar
  19    9   14 1
  20   10   11 ar
  21   10   21 1
  22   11   22 1
  23   12   13 1
  24   13   23 1
  25   13   24 1
  26   13   25 1

#	End of record

