#	Name: ASD01120321
#	Creating user name:	WinNT
#	Creation time:	15. 06. 2019 18:59

#	Modifying user name:	WinNT
#	Modification time:	15. 06. 2019 18:59

#	Program:	/corina/corina34_cracker 3.40 0067  02.08.2006

@<TRIPOS>MOLECULE
ASD01120321
  44   46    0    0    0
SMALL
NO_CHARGES


@<TRIPOS>ATOM
   1 C1            -0.4252     0.8835     1.0243 C.3     
   2 C2            -0.2412    -0.6289     0.8837 C.3     
   3 O3             0.3196    -0.9290    -0.4216 O.3     
   4 C4             0.5453    -2.2275    -0.7072 C.2     
   5 O5             0.2804    -3.0852     0.1128 O.2     
   6 C6             1.1110    -2.6055    -2.0085 C.2     
   7 N7             1.4531    -1.7280    -3.0195 N.pl3   
   8 C8             1.9495    -2.4483    -4.0806 C.ar    
   9 C9             1.9145    -3.8081    -3.7188 C.ar    
  10 C10            1.3879    -3.8758    -2.4102 C.2     
  11 C11            2.3710    -4.7838    -4.6309 C.ar    
  12 C12            2.8479    -4.3878    -5.8716 C.ar    
  13 C13            2.8769    -3.0448    -6.2142 C.ar    
  14 C14            2.4340    -2.0821    -5.3336 C.ar    
  15 N15            2.4741    -0.6539    -5.7205 N.pl3   
  16 O16            2.8982    -0.3313    -6.8158 O.2     
  17 O17            2.0830     0.1988    -4.9436 O.2     
  18 C18            2.3415    -6.2193    -4.2657 C.ar    
  19 C19            2.8806    -6.6433    -3.0512 C.ar    
  20 C20            2.8521    -7.9814    -2.7128 C.ar    
  21 C21            2.2904    -8.9046    -3.5742 C.ar    
  22 C22            1.7512    -8.4916    -4.7869 C.ar    
  23 C23            1.7698    -7.1493    -5.1322 C.ar    
  24 N24            1.1842    -9.4301    -5.6565 N.am    
  25 C25            0.5096   -10.4864    -5.1611 C.2     
  26 O26            0.4654   -10.6701    -3.9630 O.2     
  27 C27           -0.1900   -11.4394    -6.0958 C.3     
  28 H28            0.5406     1.3781     0.9213 H       
  29 H29           -1.1011     1.2410     0.2475 H       
  30 H30           -0.8462     1.1087     2.0041 H       
  31 H31            0.4348    -0.9864     1.6604 H       
  32 H32           -1.2070    -1.1236     0.9866 H       
  33 H33            1.3585    -0.7631    -2.9863 H       
  34 H34            1.2276    -4.7751    -1.8340 H       
  35 H35            3.1986    -5.1293    -6.5741 H       
  36 H36            3.2510    -2.7496    -7.1834 H       
  37 H37            3.3207    -5.9248    -2.3756 H       
  38 H38            3.2703    -8.3078    -1.7721 H       
  39 H39            2.2708    -9.9502    -3.3045 H       
  40 H40            1.3510    -6.8263    -6.0738 H       
  41 H41            1.2769    -9.3204    -6.6158 H       
  42 H42           -0.0400   -11.1143    -7.1253 H       
  43 H43            0.2205   -12.4410    -5.9676 H       
  44 H44           -1.2563   -11.4522    -5.8705 H       
@<TRIPOS>BOND
   1    1    2 1
   2    1   28 1
   3    1   29 1
   4    1   30 1
   5    2    3 1
   6    2   31 1
   7    2   32 1
   8    3    4 1
   9    4    5 2
  10    4    6 1
  11    6    7 1
  12    6   10 2
  13    7    8 1
  14    7   33 1
  15    8    9 ar
  16    8   14 ar
  17    9   10 1
  18    9   11 ar
  19   10   34 1
  20   11   12 ar
  21   11   18 1
  22   12   13 ar
  23   12   35 1
  24   13   14 ar
  25   13   36 1
  26   14   15 1
  27   15   16 2
  28   15   17 2
  29   18   19 ar
  30   18   23 ar
  31   19   20 ar
  32   19   37 1
  33   20   21 ar
  34   20   38 1
  35   21   22 ar
  36   21   39 1
  37   22   23 ar
  38   22   24 1
  39   23   40 1
  40   24   25 am
  41   24   41 1
  42   25   26 2
  43   25   27 1
  44   27   42 1
  45   27   43 1
  46   27   44 1

#	End of record

