#	Name: ASD08150358
#	Creating user name:	WinNT
#	Creation time:	15. 06. 2019 21:15

#	Modifying user name:	WinNT
#	Modification time:	15. 06. 2019 21:15

#	Program:	/corina/corina34_cracker 3.40 0067  02.08.2006

@<TRIPOS>MOLECULE
ASD08150358
  49   53    0    0    0
SMALL
NO_CHARGES


@<TRIPOS>ATOM
   1 C1             1.2309    -0.2098     1.0433 C.3     
   2 N2             1.7301    -4.3467    -1.5669 N.am    
   3 C3             2.8298    -4.3760    -2.3445 C.2     
   4 C4             2.8180    -5.0361    -3.5900 C.2     
   5 C5             1.6908    -5.6549    -4.0246 C.2     
   6 C6             0.5320    -5.6265    -3.2090 C.ar    
   7 C7            -0.6629    -6.2527    -3.6123 C.ar    
   8 N8            -1.7302    -6.2253    -2.8577 N.ar    
   9 C9            -1.7519    -5.6064    -1.6675 C.ar    
  10 C10           -0.5943    -4.9498    -1.1818 C.ar    
  11 C11            0.5772    -4.9606    -1.9746 C.ar    
  12 C12           -0.6276    -4.3068     0.0595 C.ar    
  13 C13           -1.7964    -4.3192     0.8031 C.ar    
  14 C14           -2.9379    -4.9710     0.3159 C.ar    
  15 C15           -2.9210    -5.6012    -0.8891 C.ar    
  16 O16            3.8488    -3.8238    -1.9661 O.2     
  17 C17           -1.8401    -3.6400     2.1211 C.ar    
  18 C18            1.7688    -3.6891    -0.3318 C.ar    
  19 C19            2.0837    -4.3944     0.8226 C.ar    
  20 C20            2.1210    -3.7427     2.0395 C.ar    
  21 C21            1.8451    -2.3893     2.1096 C.ar    
  22 C22            1.5313    -1.6843     0.9623 C.ar    
  23 C23            1.4979    -2.3291    -0.2589 C.ar    
  24 C24            1.8862    -1.6814     3.4393 C.3     
  25 C25           -2.5704    -4.1816     3.1823 C.ar    
  26 N26           -2.5849    -3.5469     4.3410 N.ar    
  27 C27           -1.9193    -2.4124     4.5032 C.ar    
  28 N28           -1.2156    -1.8676     3.5210 N.ar    
  29 C29           -1.1474    -2.4453     2.3347 C.ar    
  30 N30           -1.9605    -1.7786     5.7324 N.pl3   
  31 H31            2.1541     0.3564     0.9200 H       
  32 H32            0.5298     0.0621     0.2543 H       
  33 H33            0.7916     0.0187     2.0144 H       
  34 H34            3.7088    -5.0493    -4.2006 H       
  35 H35            1.6770    -6.1612    -4.9785 H       
  36 H36           -0.6985    -6.7647    -4.5625 H       
  37 H37            0.2514    -3.8046     0.4359 H       
  38 H38           -3.8426    -4.9735     0.9058 H       
  39 H39           -3.8096    -6.0985    -1.2491 H       
  40 H40            2.2989    -5.4513     0.7686 H       
  41 H41            2.3655    -4.2906     2.9375 H       
  42 H42            1.2571    -1.7770    -1.1553 H       
  43 H43            2.8919    -1.3004     3.6172 H       
  44 H44            1.1795    -0.8517     3.4313 H       
  45 H45            1.6171    -2.3802     4.2314 H       
  46 H46           -3.1154    -5.1056     3.0570 H       
  47 H47           -0.5721    -1.9958     1.5388 H       
  48 H48           -2.4716    -2.1652     6.4605 H       
  49 H49           -1.4783    -0.9476     5.8660 H       
@<TRIPOS>BOND
   1    1   22 1
   2    1   31 1
   3    1   32 1
   4    1   33 1
   5    2    3 am
   6    2   11 1
   7    2   18 1
   8    3    4 1
   9    3   16 2
  10    4    5 2
  11    4   34 1
  12    5    6 1
  13    5   35 1
  14    6    7 ar
  15    6   11 ar
  16    7    8 ar
  17    7   36 1
  18    8    9 ar
  19    9   10 ar
  20    9   15 ar
  21   10   11 ar
  22   10   12 ar
  23   12   13 ar
  24   12   37 1
  25   13   14 ar
  26   13   17 1
  27   14   15 ar
  28   14   38 1
  29   15   39 1
  30   17   25 ar
  31   17   29 ar
  32   18   19 ar
  33   18   23 ar
  34   19   20 ar
  35   19   40 1
  36   20   21 ar
  37   20   41 1
  38   21   22 ar
  39   21   24 1
  40   22   23 ar
  41   23   42 1
  42   24   43 1
  43   24   44 1
  44   24   45 1
  45   25   26 ar
  46   25   46 1
  47   26   27 ar
  48   27   28 ar
  49   27   30 1
  50   28   29 ar
  51   29   47 1
  52   30   48 1
  53   30   49 1

#	End of record

