#	Name: ASD01811357
#	Creating user name:	WinNT
#	Creation time:	15. 06. 2019 19:26

#	Modifying user name:	WinNT
#	Modification time:	15. 06. 2019 19:26

#	Program:	/corina/corina34_cracker 3.40 0067  02.08.2006

@<TRIPOS>MOLECULE
ASD01811357
  59   62    0    0    0
SMALL
NO_CHARGES


@<TRIPOS>ATOM
   1 C1            -1.2874     1.6524    -1.6792 C.2     
   2 N2            -1.3531     0.3381    -1.9702 N.am    
   3 O3            -1.3217     2.4750    -2.5729 O.2     
   4 O4            -1.1893     2.0542    -0.3975 O.3     
   5 C5            -1.0381     3.3873    -0.1785 C.ar    
   6 C6            -2.1553     4.2066    -0.0864 C.ar    
   7 C7            -2.0076     5.5630     0.1362 C.ar    
   8 C8            -0.7483     6.1118     0.2684 C.ar    
   9 C9             0.3806     5.2961     0.1779 C.ar    
  10 C10            0.2297     3.9265    -0.0416 C.ar    
  11 C11           -3.5339     3.6151    -0.2303 C.3     
  12 C12            1.7314     5.8806     0.3186 C.2     
  13 O13            2.5587     5.3363     1.0235 O.2     
  14 N14            2.0455     7.0169    -0.3346 N.am    
  15 C15            3.4095     7.5599    -0.2787 C.3     
  16 C16            3.9141     7.7739    -1.7092 C.3     
  17 C17            2.9187     8.6520    -2.4710 C.3     
  18 C18            1.5616     7.9477    -2.5377 C.3     
  19 C19            1.0318     7.7327    -1.1212 C.3     
  20 F20            2.7763     9.8766    -1.8097 F       
  21 C21            3.4287     8.8927    -3.8685 C.ar    
  22 C22            2.8726     9.8968    -4.6410 C.ar    
  23 C23            3.3346    10.1226    -5.9211 C.ar    
  24 C24            4.3663     9.3353    -6.4365 C.ar    
  25 C25            4.9232     8.3240    -5.6512 C.ar    
  26 C26            4.4548     8.1123    -4.3710 C.ar    
  27 C27            4.8506     9.5638    -7.7646 C.1     
  28 N28            5.2347     9.7450    -8.8182 N.1     
  29 O29           -3.2725    -1.4895    -4.1121 O.3     
  30 C30           -2.9426    -0.1250    -3.8033 C.3     
  31 C31           -1.4658    -0.0988    -3.3640 C.3     
  32 C32           -1.0002    -1.5679    -3.5107 C.3     
  33 C33           -2.0448    -2.1422    -4.5013 C.3     
  34 H34           -1.3257    -0.3186    -1.2568 H       
  35 H35           -2.8804     6.1952     0.2064 H       
  36 H36           -0.6364     7.1719     0.4416 H       
  37 H37            1.0993     3.2896    -0.1085 H       
  38 H38           -3.9022     3.3096     0.7491 H       
  39 H39           -4.2064     4.3603    -0.6551 H       
  40 H40           -3.4902     2.7476    -0.8888 H       
  41 H41            3.4024     8.5118     0.2525 H       
  42 H42            4.0622     6.8560     0.2376 H       
  43 H43            4.8866     8.2655    -1.6822 H       
  44 H44            4.0068     6.8103    -2.2102 H       
  45 H45            0.8597     8.5631    -3.1005 H       
  46 H46            1.6765     6.9825    -3.0309 H       
  47 H47            0.1161     7.1427    -1.1606 H       
  48 H48            0.8268     8.6989    -0.6602 H       
  49 H49            2.0748    10.5050    -4.2411 H       
  50 H50            2.8992    10.9063    -6.5233 H       
  51 H51            5.7213     7.7114    -6.0437 H       
  52 H52            4.8874     7.3331    -3.7610 H       
  53 H53           -3.0775     0.4982    -4.6874 H       
  54 H54           -3.5767     0.2354    -2.9932 H       
  55 H55           -0.8850     0.5525    -4.0171 H       
  56 H56            0.0038    -1.6176    -3.9321 H       
  57 H57           -1.0450    -2.0876    -2.5536 H       
  58 H58           -2.1309    -3.2226    -4.3849 H       
  59 H59           -1.7823    -1.8855    -5.5276 H       
@<TRIPOS>BOND
   1    1    2 am
   2    1    3 2
   3    1    4 1
   4    2   31 1
   5    2   34 1
   6    4    5 1
   7    5    6 ar
   8    5   10 ar
   9    6    7 ar
  10    6   11 1
  11    7    8 ar
  12    7   35 1
  13    8    9 ar
  14    8   36 1
  15    9   10 ar
  16    9   12 1
  17   10   37 1
  18   11   38 1
  19   11   39 1
  20   11   40 1
  21   12   13 2
  22   12   14 am
  23   14   15 1
  24   14   19 1
  25   15   16 1
  26   15   41 1
  27   15   42 1
  28   16   17 1
  29   16   43 1
  30   16   44 1
  31   17   18 1
  32   17   20 1
  33   17   21 1
  34   18   19 1
  35   18   45 1
  36   18   46 1
  37   19   47 1
  38   19   48 1
  39   21   22 ar
  40   21   26 ar
  41   22   23 ar
  42   22   49 1
  43   23   24 ar
  44   23   50 1
  45   24   25 ar
  46   24   27 1
  47   25   26 ar
  48   25   51 1
  49   26   52 1
  50   27   28 3
  51   29   30 1
  52   29   33 1
  53   30   31 1
  54   30   53 1
  55   30   54 1
  56   31   32 1
  57   31   55 1
  58   32   33 1
  59   32   56 1
  60   32   57 1
  61   33   58 1
  62   33   59 1

#	End of record

