#	Name: ASD01141069
#	Creating user name:	WinNT
#	Creation time:	15. 06. 2019 19:01

#	Modifying user name:	WinNT
#	Modification time:	15. 06. 2019 19:01

#	Program:	/corina/corina34_cracker 3.40 0067  02.08.2006

@<TRIPOS>MOLECULE
ASD01141069
  46   47    0    0    0
SMALL
NO_CHARGES


@<TRIPOS>ATOM
   1 C1             0.5415     1.1338     0.1949 C.2     
   2 C2             0.2610    -0.3040     0.2652 C.2     
   3 C3             1.4450     1.7598     1.1835 C.ar    
   4 O4             0.0346     1.8106    -0.6804 O.2     
   5 C5             1.3345    -1.2748     0.0154 C.2     
   6 C6            -1.0134    -0.7454     0.5664 C.2     
   7 C7             1.9335     1.0140     2.2582 C.ar    
   8 C8             1.8186     3.0987     1.0437 C.ar    
   9 O9             1.1294    -2.4633     0.1762 O.2     
  10 N10            2.5467    -0.8492    -0.3918 N.am    
  11 N11           -1.2472    -2.0630     0.7427 N.pl3   
  12 C12            2.7763     1.6038     3.1766 C.ar    
  13 C13            2.6636     3.6765     1.9714 C.ar    
  14 Cl14           1.2232     4.0336    -0.2924 Cl      
  15 C15           -2.5095    -2.4999     1.1550 C.ar    
  16 C16            3.1387     2.9324     3.0357 C.ar    
  17 C17           -3.5258    -1.5795     1.3782 C.ar    
  18 C18           -2.7516    -3.8556     1.3368 C.ar    
  19 C19           -4.7719    -2.0139     1.7850 C.ar    
  20 C20           -3.9996    -4.2844     1.7438 C.ar    
  21 C21           -5.0087    -3.3648     1.9704 C.ar    
  22 Cl22          -6.5763    -3.9073     2.4825 Cl      
  23 H23            2.7327     0.1011    -0.4498 H       
  24 H24           -0.5394    -2.7068     0.5832 H       
  25 C25            3.5833    -1.8216    -0.7469 C.3     
  26 C26            4.6225    -1.1527    -1.6488 C.3     
  27 C27            3.9620    -0.7323    -2.9633 C.3     
  28 C28            4.2638    -2.3293     0.5259 C.3     
  29 H29           -1.8224    -0.0361     0.6607 H       
  30 H30            1.6517    -0.0225     2.3701 H       
  31 H31            3.1512     1.0289     4.0104 H       
  32 H32            2.9539     4.7112     1.8650 H       
  33 H33            3.7991     3.3888     3.7582 H       
  34 H34           -3.3415    -0.5252     1.2339 H       
  35 H35           -1.9645    -4.5737     1.1598 H       
  36 H36           -5.5623    -1.2988     1.9589 H       
  37 H37           -4.1883    -5.3383     1.8853 H       
  38 H38            3.1293    -2.6599    -1.2754 H       
  39 H39            5.0264    -0.2731    -1.1475 H       
  40 H40            5.4296    -1.8553    -1.8562 H       
  41 H41            4.7024    -0.2557    -3.6058 H       
  42 H42            3.5581    -1.6118    -3.4646 H       
  43 H43            3.1549    -0.0296    -2.7559 H       
  44 H44            3.5234    -2.8058     1.1684 H       
  45 H45            5.0350    -3.0528     0.2617 H       
  46 H46            4.7177    -1.4910     1.0543 H       
@<TRIPOS>BOND
   1    1    2 1
   2    1    3 1
   3    1    4 2
   4    2    5 1
   5    2    6 2
   6    3    7 ar
   7    3    8 ar
   8    5   10 am
   9    5    9 2
  10    6   11 1
  11    6   29 1
  12    7   12 ar
  13    7   30 1
  14    8   13 ar
  15    8   14 1
  16   10   23 1
  17   10   25 1
  18   11   24 1
  19   11   15 1
  20   12   16 ar
  21   12   31 1
  22   13   16 ar
  23   13   32 1
  24   15   18 ar
  25   15   17 ar
  26   16   33 1
  27   17   19 ar
  28   17   34 1
  29   18   20 ar
  30   18   35 1
  31   19   21 ar
  32   19   36 1
  33   20   21 ar
  34   20   37 1
  35   21   22 1
  36   25   26 1
  37   25   28 1
  38   25   38 1
  39   26   27 1
  40   26   39 1
  41   26   40 1
  42   27   41 1
  43   27   42 1
  44   27   43 1
  45   28   44 1
  46   28   45 1
  47   28   46 1

#	End of record

