#	Name: ASD09740380
#	Creating user name:	WinNT
#	Creation time:	15. 06. 2019 21:23

#	Modifying user name:	WinNT
#	Modification time:	15. 06. 2019 21:23

#	Program:	/corina/corina34_cracker 3.40 0067  02.08.2006

@<TRIPOS>MOLECULE
ASD09740380
  40   42    0    0    0
SMALL
NO_CHARGES


@<TRIPOS>ATOM
   1 O1            -0.0144     1.2086     0.0087 O.3     
   2 N2             0.0021    -0.0041     0.0020 N.2     
   3 C3             1.2407     1.6830    -0.0007 C.2     
   4 N4             2.0454     0.6382    -0.0140 N.2     
   5 C5             1.2356    -0.4415    -0.0121 C.2     
   6 C6             1.6644    -1.8617    -0.0238 C.ar    
   7 C7             1.6447     3.1066     0.0030 C.ar    
   8 C8             0.7109    -2.8788    -0.0202 C.ar    
   9 C9             1.1144    -4.2012    -0.0316 C.ar    
  10 C10            2.4718    -4.5147    -0.0468 C.ar    
  11 C11            3.4190    -3.5021    -0.0499 C.ar    
  12 C12            3.0205    -2.1809    -0.0443 C.ar    
  13 O13            0.1866    -5.1956    -0.0277 O.3     
  14 C14           -1.1868    -4.8013    -0.0115 C.3     
  15 C15           -2.0751    -6.0471    -0.0093 C.3     
  16 O16            2.8680    -5.8148    -0.0580 O.3     
  17 C17            4.2750    -6.0641    -0.0732 C.3     
  18 C18            4.5254    -7.5734    -0.0842 C.3     
  19 C19            0.6866     4.1259     0.0182 C.ar    
  20 C20            1.1079     5.4404     0.0217 C.ar    
  21 N21            2.3922     5.7400     0.0105 N.ar    
  22 C22            3.3275     4.8106    -0.0039 C.ar    
  23 C23            2.9955     3.4706    -0.0025 C.ar    
  24 H24           -0.3409    -2.6342    -0.0081 H       
  25 H25            4.4706    -3.7479    -0.0613 H       
  26 H26            3.7602    -1.3939    -0.0468 H       
  27 H27           -1.3852    -4.2121     0.8839 H       
  28 H28           -1.4034    -4.2023    -0.8960 H       
  29 H29           -1.8767    -6.6363    -0.9046 H       
  30 H30           -1.8586    -6.6462     0.8752 H       
  31 H31           -3.1227    -5.7464     0.0031 H       
  32 H32            4.7137    -5.6165    -0.9651 H       
  33 H33            4.7312    -5.6266     0.8148 H       
  34 H34            5.5987    -7.7636    -0.0959 H       
  35 H35            4.0868    -8.0210     0.8076 H       
  36 H36            4.0693    -8.0110    -0.9723 H       
  37 H37           -0.3668     3.8879     0.0266 H       
  38 H38            0.3759     6.2344     0.0333 H       
  39 H39            4.3675     5.1016    -0.0126 H       
  40 H40            3.7668     2.7147    -0.0144 H       
@<TRIPOS>BOND
   1    1    2 1
   2    1    3 1
   3    2    5 2
   4    3    4 2
   5    3    7 1
   6    4    5 1
   7    5    6 1
   8    6    8 ar
   9    6   12 ar
  10    7   19 ar
  11    7   23 ar
  12    8    9 ar
  13    8   24 1
  14    9   10 ar
  15    9   13 1
  16   10   11 ar
  17   10   16 1
  18   11   12 ar
  19   11   25 1
  20   12   26 1
  21   13   14 1
  22   14   15 1
  23   14   27 1
  24   14   28 1
  25   15   29 1
  26   15   30 1
  27   15   31 1
  28   16   17 1
  29   17   18 1
  30   17   32 1
  31   17   33 1
  32   18   34 1
  33   18   35 1
  34   18   36 1
  35   19   20 ar
  36   19   37 1
  37   20   21 ar
  38   20   38 1
  39   21   22 ar
  40   22   23 ar
  41   22   39 1
  42   23   40 1

#	End of record

