#	Name: ASD09800005
#	Creating user name:	WinNT
#	Creation time:	15. 06. 2019 21:24

#	Modifying user name:	WinNT
#	Modification time:	15. 06. 2019 21:24

#	Program:	/corina/corina34_cracker 3.40 0067  02.08.2006

@<TRIPOS>MOLECULE
ASD09800005
  62   66    0    0    0
SMALL
NO_CHARGES


@<TRIPOS>ATOM
   1 C1             2.0857     1.4202     0.0662 C.ar    
   2 C2             2.0481     0.0537    -0.1288 C.ar    
   3 C3             1.1154    -0.4983    -0.9880 C.ar    
   4 C4             0.2179     0.3155    -1.6541 C.ar    
   5 C5             0.2507     1.6833    -1.4637 C.ar    
   6 C6             1.1855     2.2405    -0.6015 C.ar    
   7 N7             1.2210     3.6257    -0.4060 N.am    
   8 C8             0.0807     4.3425    -0.4544 C.2     
   9 N9             0.1003     5.6599    -0.1707 N.am    
  10 O10           -0.9658     3.8006    -0.7541 O.2     
  11 C11           -1.0602     6.4225    -0.3155 C.ar    
  12 C12           -2.2928     5.8626    -0.0509 C.ar    
  13 C13           -3.4578     6.6046    -0.1885 C.ar    
  14 C14           -3.4110     7.9286    -0.5964 C.ar    
  15 C15           -2.1587     8.5303    -0.8753 C.ar    
  16 C16           -0.9743     7.7701    -0.7274 C.ar    
  17 C17           -4.6584     8.7069    -0.7400 C.2     
  18 C18           -5.7388     8.3948    -1.5581 C.2     
  19 N19           -6.6709     9.3997    -1.3670 N.pl3   
  20 C20           -6.1527    10.2578    -0.4759 C.2     
  21 N21           -4.9665     9.8464    -0.1012 N.2     
  22 C22           -6.8349    11.5051     0.0237 C.3     
  23 C23           -7.0116    11.4170     1.5410 C.3     
  24 C24           -5.9800    12.7265    -0.3200 C.3     
  25 C25           -6.0414     7.3545    -2.4575 C.2     
  26 N26           -7.2047     7.3686    -3.0914 N.2     
  27 C27           -8.0930     8.3417    -2.8984 C.2     
  28 N28           -7.8743     9.3342    -2.0786 N.2     
  29 N29           -5.1381     6.3341    -2.6762 N.pl3   
  30 C30           -2.0722     9.8669    -1.2895 C.ar    
  31 C31           -0.8524    10.4154    -1.5492 C.ar    
  32 C32            0.3135     9.6665    -1.4091 C.ar    
  33 C33            0.2660     8.3670    -1.0040 C.ar    
  34 C34           -5.4740     5.2426    -3.5938 C.3     
  35 C35           -0.7967    -0.2902    -2.5894 C.3     
  36 F36           -0.6344    -1.6794    -2.6171 F       
  37 F37           -2.0858     0.0199    -2.1431 F       
  38 F38           -0.6118     0.2267    -3.8762 F       
  39 H39            2.8114     1.8502     0.7407 H       
  40 H40            2.7480    -0.5847     0.3898 H       
  41 H41            1.0882    -1.5674    -1.1391 H       
  42 H42           -0.4502     2.3186    -1.9849 H       
  43 H43            2.0663     4.0700    -0.2357 H       
  44 H44            0.9206     6.0782     0.1341 H       
  45 H45           -2.3522     4.8324     0.2676 H       
  46 H46           -4.4117     6.1450     0.0243 H       
  47 H47           -7.8116    11.6000    -0.4508 H       
  48 H48           -6.0349    11.3221     2.0155 H       
  49 H49           -7.5050    12.3192     1.9023 H       
  50 H50           -7.6206    10.5468     1.7859 H       
  51 H51           -5.8542    12.7894    -1.4009 H       
  52 H52           -6.4735    13.6288     0.0414 H       
  53 H53           -5.0034    12.6317     0.1546 H       
  54 H54           -9.0275     8.3086    -3.4388 H       
  55 H55           -4.2809     6.3397    -2.2223 H       
  56 H56           -2.9684    10.4589    -1.4025 H       
  57 H57           -0.7886    11.4452    -1.8685 H       
  58 H58            1.2688    10.1236    -1.6210 H       
  59 H59            1.1777     7.7977    -0.8991 H       
  60 H60           -6.3682     4.7309    -3.2379 H       
  61 H61           -5.6590     5.6481    -4.5885 H       
  62 H62           -4.6446     4.5367    -3.6377 H       
@<TRIPOS>BOND
   1    1    2 ar
   2    1    6 ar
   3    1   39 1
   4    2    3 ar
   5    2   40 1
   6    3    4 ar
   7    3   41 1
   8    4    5 ar
   9    4   35 1
  10    5    6 ar
  11    5   42 1
  12    6    7 1
  13    7    8 am
  14    7   43 1
  15    8    9 am
  16    8   10 2
  17    9   11 1
  18    9   44 1
  19   11   12 ar
  20   11   16 ar
  21   12   13 ar
  22   12   45 1
  23   13   14 ar
  24   13   46 1
  25   14   15 ar
  26   14   17 1
  27   15   16 ar
  28   15   30 ar
  29   16   33 ar
  30   17   18 2
  31   17   21 1
  32   18   19 1
  33   18   25 1
  34   19   20 1
  35   19   28 1
  36   20   21 2
  37   20   22 1
  38   22   23 1
  39   22   24 1
  40   22   47 1
  41   23   48 1
  42   23   49 1
  43   23   50 1
  44   24   51 1
  45   24   52 1
  46   24   53 1
  47   25   26 2
  48   25   29 1
  49   26   27 1
  50   27   28 2
  51   27   54 1
  52   29   34 1
  53   29   55 1
  54   30   31 ar
  55   30   56 1
  56   31   32 ar
  57   31   57 1
  58   32   33 ar
  59   32   58 1
  60   33   59 1
  61   34   60 1
  62   34   61 1
  63   34   62 1
  64   35   36 1
  65   35   37 1
  66   35   38 1

#	End of record

