#	Name: ASD00450059
#	Creating user name:	WinNT
#	Creation time:	15. 06. 2019 18:36

#	Modifying user name:	WinNT
#	Modification time:	15. 06. 2019 18:36

#	Program:	/corina/corina34_cracker 3.40 0067  02.08.2006

@<TRIPOS>MOLECULE
ASD00450059
  52   54    0    0    0
SMALL
NO_CHARGES


@<TRIPOS>ATOM
   1 C1             0.1309     1.5838     0.2891 C.ar    
   2 C2             0.0190     0.1885     0.3003 C.ar    
   3 C3             1.1601    -0.5938     0.3716 C.ar    
   4 C4             2.4099     0.0001     0.4322 C.ar    
   5 C5             2.5311     1.3794     0.4222 C.ar    
   6 C6             1.3994     2.1778     0.3503 C.ar    
   7 C7            -1.0792     2.4246     0.2073 C.2     
   8 C8            -1.6908     2.8173     1.3178 C.2     
   9 C9            -1.6204     2.8373    -1.1372 C.3     
  10 N10            1.5227     3.5665     0.3394 N.pl3   
  11 C11            2.7156     4.1594    -0.0874 C.ar    
  12 C12            3.0478     5.4415     0.3378 C.ar    
  13 C13            3.5735     3.4673    -0.9318 C.ar    
  14 C14            4.7511     4.0551    -1.3513 C.ar    
  15 C15            5.0774     5.3320    -0.9312 C.ar    
  16 C16            4.2282     6.0237    -0.0860 C.ar    
  17 F17            3.5171    -0.7708     0.5019 F       
  18 F18            2.2184     6.1168     1.1631 F       
  19 I19            6.8652     6.2176    -1.5704 I       
  20 O20           -1.2051    -0.3968     0.2419 O.3     
  21 C21           -1.2608    -1.7514     0.1509 C.ar    
  22 C22           -1.3461    -2.3602    -1.0918 C.ar    
  23 C23           -1.4023    -3.7440    -1.1812 C.ar    
  24 C24           -1.2265    -2.5267     1.3016 C.ar    
  25 C25           -1.2826    -3.9047     1.2107 C.ar    
  26 N26           -1.4878    -4.3612    -2.4312 N.am    
  27 C27           -1.3729    -4.5149    -0.0252 C.ar    
  28 S28           -0.1548    -4.4353    -3.4110 S.o2    
  29 N29            0.9933    -5.3205    -2.6105 N.am    
  30 O30           -0.5332    -5.2019    -4.5460 O.2     
  31 O31            0.3509    -3.1104    -3.5014 O.2     
  32 C32           -1.1275    -1.8652     2.6520 C.3     
  33 H33            1.0748    -1.6704     0.3803 H       
  34 H34            3.5093     1.8345     0.4704 H       
  35 H35           -1.3029     2.5215     2.2813 H       
  36 H36           -2.5763     3.4326     1.2579 H       
  37 H37           -2.3361     2.0924    -1.4851 H       
  38 H38           -2.1164     3.8038    -1.0481 H       
  39 H39           -0.8002     2.9143    -1.8510 H       
  40 H40            0.7812     4.1215     0.6277 H       
  41 H41            3.3204     2.4700    -1.2601 H       
  42 H42            5.4182     3.5166    -2.0081 H       
  43 H43            4.4874     7.0192     0.2429 H       
  44 H44           -1.3691    -1.7587    -1.9886 H       
  45 H45           -1.2558    -4.5055     2.1077 H       
  46 H46           -2.3280    -4.7463    -2.7255 H       
  47 H47           -1.4166    -5.5918    -0.0934 H       
  48 H48            0.7781    -5.7406    -1.7631 H       
  49 H49            1.8809    -5.4188    -2.9889 H       
  50 H50           -2.1291    -1.6673     3.0340 H       
  51 H51           -0.5993    -2.5238     3.3414 H       
  52 H52           -0.5826    -0.9259     2.5574 H       
@<TRIPOS>BOND
   1    1    2 ar
   2    1    6 ar
   3    1    7 1
   4    2    3 ar
   5    2   20 1
   6    3    4 ar
   7    3   33 1
   8    4    5 ar
   9    4   17 1
  10    5    6 ar
  11    5   34 1
  12    6   10 1
  13    7    8 2
  14    7    9 1
  15    8   35 1
  16    8   36 1
  17    9   37 1
  18    9   38 1
  19    9   39 1
  20   10   11 1
  21   10   40 1
  22   11   13 ar
  23   11   12 ar
  24   12   16 ar
  25   12   18 1
  26   13   14 ar
  27   13   41 1
  28   14   15 ar
  29   14   42 1
  30   15   16 ar
  31   15   19 1
  32   16   43 1
  33   20   21 1
  34   21   22 ar
  35   21   24 ar
  36   22   23 ar
  37   22   44 1
  38   23   27 ar
  39   23   26 1
  40   24   32 1
  41   24   25 ar
  42   25   27 ar
  43   25   45 1
  44   26   28 am
  45   26   46 1
  46   27   47 1
  47   28   29 am
  48   28   30 2
  49   28   31 2
  50   29   48 1
  51   29   49 1
  52   32   50 1
  53   32   51 1
  54   32   52 1

#	End of record

