#	Name: ASD01913237
#	Creating user name:	WinNT
#	Creation time:	15. 06. 2019 20:01

#	Modifying user name:	WinNT
#	Modification time:	15. 06. 2019 20:01

#	Program:	/corina/corina34_cracker 3.40 0067  02.08.2006

@<TRIPOS>MOLECULE
ASD01913237
  51   54    0    0    0
SMALL
NO_CHARGES


@<TRIPOS>ATOM
   1 C1             0.0439     1.4358     0.0278 C.ar    
   2 C2             0.0509     0.0533     0.0042 C.ar    
   3 N3             1.1842    -0.6181    -0.0067 N.ar    
   4 C4             2.3606     0.0017     0.0041 C.ar    
   5 C5             2.4260     1.3977     0.0275 C.ar    
   6 C6             1.2498     2.1245     0.0398 C.ar    
   7 C7             3.5691    -0.7665    -0.0079 C.1     
   8 C8             4.5598    -1.3963    -0.0177 C.1     
   9 C9             5.7683    -2.1645    -0.0296 C.ar    
  10 C10            7.0148    -1.5177    -0.0184 C.ar    
  11 C11            8.1843    -2.2647    -0.0300 C.ar    
  12 C12            8.1288    -3.6410    -0.0532 C.ar    
  13 C13            6.8930    -4.2964    -0.0646 C.ar    
  14 C14            5.7118    -3.5567    -0.0468 C.ar    
  15 C15            6.8400    -5.7716    -0.0894 C.2     
  16 N16            7.7709    -6.4681    -0.7711 N.am    
  17 O17            5.9565    -6.3582     0.5053 O.2     
  18 C18            7.8245    -7.9383    -0.7106 C.3     
  19 C19            7.5293    -8.4767    -2.1096 C.3     
  20 C20            8.3415    -7.7475    -3.1472 C.ar    
  21 C21            8.9059    -6.5122    -2.9218 C.ar    
  22 C22            8.7681    -5.7925    -1.6084 C.3     
  23 C23            8.5155    -8.3651    -4.3801 C.ar    
  24 C24            9.2418    -7.7488    -5.3774 C.ar    
  25 C25            9.8019    -6.5050    -5.1518 C.ar    
  26 C26            9.6332    -5.8908    -3.9280 C.ar    
  27 O27            7.0756    -0.1631     0.0035 O.3     
  28 C28            8.3767     0.4278     0.0139 C.3     
  29 C29            8.2444     1.9519     0.0384 C.3     
  30 H30           -0.8916     1.9756     0.0324 H       
  31 H31           -0.8861    -0.4837    -0.0052 H       
  32 H32            3.3813     1.9014     0.0367 H       
  33 H33            1.2685     3.2042     0.0575 H       
  34 H34            9.1417    -1.7650    -0.0213 H       
  35 H35            9.0429    -4.2161    -0.0629 H       
  36 H36            4.7566    -4.0604    -0.0555 H       
  37 H37            8.8171    -8.2584    -0.3940 H       
  38 H38            7.0762    -8.3059    -0.0084 H       
  39 H39            7.7738    -9.5384    -2.1441 H       
  40 H40            6.4693    -8.3466    -2.3276 H       
  41 H41            8.4574    -4.7635    -1.7895 H       
  42 H42            9.7273    -5.7953    -1.0907 H       
  43 H43            8.0785    -9.3365    -4.5585 H       
  44 H44            9.3730    -8.2366    -6.3319 H       
  45 H45           10.3693    -6.0165    -5.9301 H       
  46 H46           10.0697    -4.9188    -3.7516 H       
  47 H47            8.9193     0.0959     0.8990 H       
  48 H48            8.9206     0.1246    -0.8807 H       
  49 H49            7.7017     2.2837    -0.8467 H       
  50 H50            7.7005     2.2551     0.9330 H       
  51 H51            9.2368     2.4026     0.0463 H       
@<TRIPOS>BOND
   1    1    2 ar
   2    1    6 ar
   3    1   30 1
   4    2    3 ar
   5    2   31 1
   6    3    4 ar
   7    4    5 ar
   8    4    7 1
   9    5    6 ar
  10    5   32 1
  11    6   33 1
  12    7    8 3
  13    8    9 1
  14    9   10 ar
  15    9   14 ar
  16   10   11 ar
  17   10   27 1
  18   11   12 ar
  19   11   34 1
  20   12   13 ar
  21   12   35 1
  22   13   14 ar
  23   13   15 1
  24   14   36 1
  25   15   16 am
  26   15   17 2
  27   16   18 1
  28   16   22 1
  29   18   19 1
  30   18   37 1
  31   18   38 1
  32   19   20 1
  33   19   39 1
  34   19   40 1
  35   20   21 ar
  36   20   23 ar
  37   21   22 1
  38   21   26 ar
  39   22   41 1
  40   22   42 1
  41   23   24 ar
  42   23   43 1
  43   24   25 ar
  44   24   44 1
  45   25   26 ar
  46   25   45 1
  47   26   46 1
  48   27   28 1
  49   28   29 1
  50   28   47 1
  51   28   48 1
  52   29   49 1
  53   29   50 1
  54   29   51 1

#	End of record

