#	Name: ASD01913609
#	Creating user name:	WinNT
#	Creation time:	15. 06. 2019 20:01

#	Modifying user name:	WinNT
#	Modification time:	15. 06. 2019 20:01

#	Program:	/corina/corina34_cracker 3.40 0067  02.08.2006

@<TRIPOS>MOLECULE
ASD01913609
  36   38    0    0    0
SMALL
NO_CHARGES


@<TRIPOS>ATOM
   1 C1            -2.8080     0.2909    -1.2467 C.ar    
   2 C2            -2.3015    -0.1540    -0.0299 C.ar    
   3 C3            -3.0945    -0.0154     1.1046 C.ar    
   4 N4            -4.2936     0.5306     0.9868 N.ar    
   5 C5            -4.7383     0.9401    -0.1843 C.ar    
   6 N6            -4.0172     0.8262    -1.2815 N.ar    
   7 C7            -0.9769    -2.0621     0.1329 C.ar    
   8 C8             0.2613    -2.6938     0.2074 C.ar    
   9 C9             0.3129    -4.0734     0.2981 C.ar    
  10 N10           -0.7889    -4.7927     0.3144 N.ar    
  11 C11           -1.9914    -4.2324     0.2455 C.ar    
  12 C12           -2.1247    -2.8510     0.1529 C.ar    
  13 C13           -3.2014    -5.0866     0.2675 C.2     
  14 N14           -3.0794    -6.4258     0.3571 N.am    
  15 O15           -1.0638    -0.7102     0.0485 O.3     
  16 O16           -4.3041    -4.5799     0.2048 O.2     
  17 C17           -4.2164    -7.2225     0.4841 C.ar    
  18 C18           -4.0787    -8.5898     0.6929 C.ar    
  19 C19           -5.2149    -9.3700     0.8178 C.ar    
  20 C20           -6.4564    -8.7516     0.7288 C.ar    
  21 C21           -6.5179    -7.3856     0.5198 C.ar    
  22 N22           -5.4162    -6.6685     0.4099 N.ar    
  23 C23           -7.8602    -6.7075     0.4217 C.3     
  24 F24           -7.5904    -9.4767     0.8448 F       
  25 H25           -2.2209     0.2047    -2.1490 H       
  26 H26           -2.7367    -0.3491     2.0674 H       
  27 H27           -5.7219     1.3818    -0.2466 H       
  28 H28            1.1719    -2.1133     0.1941 H       
  29 H29            1.2716    -4.5673     0.3561 H       
  30 H30           -3.1031    -2.3971     0.0969 H       
  31 H31           -2.2004    -6.8354     0.3333 H       
  32 H32           -3.0980    -9.0375     0.7566 H       
  33 H33           -5.1387   -10.4350     0.9802 H       
  34 H34           -8.1794    -6.3884     1.4138 H       
  35 H35           -7.7814    -5.8386    -0.2316 H       
  36 H36           -8.5906    -7.4051     0.0119 H       
@<TRIPOS>BOND
   1    1    2 ar
   2    1    6 ar
   3    1   25 1
   4    2    3 ar
   5    2   15 1
   6    3    4 ar
   7    3   26 1
   8    4    5 ar
   9    5    6 ar
  10    5   27 1
  11    7    8 ar
  12    7   12 ar
  13    7   15 1
  14    8    9 ar
  15    8   28 1
  16    9   10 ar
  17    9   29 1
  18   10   11 ar
  19   11   12 ar
  20   11   13 1
  21   12   30 1
  22   13   14 am
  23   13   16 2
  24   14   17 1
  25   14   31 1
  26   17   18 ar
  27   17   22 ar
  28   18   19 ar
  29   18   32 1
  30   19   20 ar
  31   19   33 1
  32   20   21 ar
  33   20   24 1
  34   21   22 ar
  35   21   23 1
  36   23   34 1
  37   23   35 1
  38   23   36 1

#	End of record

