#	Name: ASD01917226
#	Creating user name:	WinNT
#	Creation time:	15. 06. 2019 20:08

#	Modifying user name:	WinNT
#	Modification time:	15. 06. 2019 20:08

#	Program:	/corina/corina34_cracker 3.40 0067  02.08.2006

@<TRIPOS>MOLECULE
ASD01917226
  52   55    0    0    0
SMALL
NO_CHARGES


@<TRIPOS>ATOM
   1 C1            -0.0127     1.4610    -0.1095 C.ar    
   2 C2             0.0340     0.0542     0.0100 C.ar    
   3 C3            -1.1430    -0.6731     0.1705 C.ar    
   4 C4            -2.3512    -0.0114     0.1982 C.ar    
   5 C5            -2.4023     1.3704     0.0676 C.ar    
   6 C6            -1.2500     2.1080    -0.0845 C.ar    
   7 N7             1.1487     2.1403    -0.2344 N.2     
   8 C8             2.3174     1.5496    -0.2765 C.2     
   9 N9             2.4393     0.1983    -0.2752 N.am    
  10 C10            1.3506    -0.5890    -0.0562 C.2     
  11 C11           -3.7362     2.0712     0.0928 C.3     
  12 O12            1.4665    -1.7929     0.0813 O.2     
  13 C13           -4.2114     2.2115     1.5403 C.3     
  14 C14            3.5209     2.4553    -0.2747 C.3     
  15 C15            4.7638     1.7761    -0.8060 C.3     
  16 C16            4.9163     0.3651    -0.2759 C.3     
  17 C17            3.6978    -0.4864    -0.5509 C.3     
  18 C18            6.1342    -0.2839    -0.9366 C.3     
  19 C19            5.1484     0.4255     1.2352 C.3     
  20 C20           -5.5340     2.9333     1.5672 C.ar    
  21 N21           -5.6437     4.1143     0.9911 N.ar    
  22 C22           -6.7808     4.7823     0.9897 C.ar    
  23 C23           -7.9070     4.2620     1.5984 C.ar    
  24 C24           -7.8302     3.0222     2.2148 C.ar    
  25 C25           -6.6196     2.3471     2.1905 C.ar    
  26 Cl26          -4.4051     0.5745     2.2707 Cl      
  27 O27           -3.6042     3.3678    -0.4931 O.3     
  28 C28           -4.7567     1.2539    -0.7020 C.3     
  29 H29           -1.1089    -1.7478     0.2720 H       
  30 H30           -3.2660    -0.5718     0.3221 H       
  31 H31           -1.3027     3.1821    -0.1843 H       
  32 H32           -3.4761     2.7791     2.1107 H       
  33 H33            3.3056     3.3278    -0.8916 H       
  34 H34            3.7102     2.7869     0.7462 H       
  35 H35            4.7100     1.7412    -1.8941 H       
  36 H36            5.6374     2.3595    -0.5153 H       
  37 H37            3.7508    -1.3826     0.0672 H       
  38 H38            3.7102    -0.7864    -1.5987 H       
  39 H39            7.0268     0.2962    -0.7023 H       
  40 H40            6.2526    -1.3004    -0.5613 H       
  41 H41            5.9908    -0.3097    -2.0168 H       
  42 H42            4.2972     0.9090     1.7145 H       
  43 H43            5.2595    -0.5858     1.6264 H       
  44 H44            6.0539     0.9963     1.4412 H       
  45 H45           -6.8324     5.7472     0.5075 H       
  46 H46           -8.8351     4.8142     1.5945 H       
  47 H47           -8.6940     2.5910     2.6988 H       
  48 H48           -6.5236     1.3793     2.6602 H       
  49 H49           -2.9718     3.9418    -0.0396 H       
  50 H50           -4.8574     0.2648    -0.2551 H       
  51 H51           -5.7215     1.7607    -0.6838 H       
  52 H52           -4.4182     1.1539    -1.7333 H       
@<TRIPOS>BOND
   1    1    2 ar
   2    1    7 1
   3    1    6 ar
   4    2    3 ar
   5    2   10 1
   6    3    4 ar
   7    3   29 1
   8    4    5 ar
   9    4   30 1
  10    5    6 ar
  11    5   11 1
  12    6   31 1
  13    7    8 2
  14    8    9 1
  15    8   14 1
  16    9   10 am
  17    9   17 1
  18   10   12 2
  19   11   27 1
  20   11   28 1
  21   11   13 1
  22   13   20 1
  23   13   26 1
  24   13   32 1
  25   14   15 1
  26   14   33 1
  27   14   34 1
  28   15   16 1
  29   15   35 1
  30   15   36 1
  31   16   17 1
  32   16   18 1
  33   16   19 1
  34   17   37 1
  35   17   38 1
  36   18   39 1
  37   18   40 1
  38   18   41 1
  39   19   42 1
  40   19   43 1
  41   19   44 1
  42   20   21 ar
  43   20   25 ar
  44   21   22 ar
  45   22   23 ar
  46   22   45 1
  47   23   24 ar
  48   23   46 1
  49   24   25 ar
  50   24   47 1
  51   25   48 1
  52   27   49 1
  53   28   50 1
  54   28   51 1
  55   28   52 1

#	End of record

