#	Name: ASD02398042
#	Creating user name:	WinNT
#	Creation time:	15. 06. 2019 20:20

#	Modifying user name:	WinNT
#	Modification time:	15. 06. 2019 20:20

#	Program:	/corina/corina34_cracker 3.40 0067  02.08.2006

@<TRIPOS>MOLECULE
ASD02398042
  60   63    0    0    0
SMALL
NO_CHARGES


@<TRIPOS>ATOM
   1 C1             1.4726     2.6565    -0.7511 C.ar    
   2 C2             1.6271     1.3164    -1.1196 C.ar    
   3 C3             0.5029     0.5436    -1.3993 C.ar    
   4 C4            -0.7564     1.1026    -1.3118 C.ar    
   5 C5            -0.9062     2.4286    -0.9470 C.ar    
   6 C6             0.2027     3.2032    -0.6621 C.ar    
   7 C7            -1.9722     0.2654    -1.6152 C.3     
   8 C8            -2.4438    -0.4110    -0.3539 C.2     
   9 O9            -1.8448    -0.2431     0.6819 O.2     
  10 O10           -3.5294    -1.2000    -0.3811 O.3     
  11 C11            2.9824     0.7209    -1.2126 C.ar    
  12 C12            3.7513     0.5489    -0.0628 C.ar    
  13 C13            3.4894     0.3260    -2.4490 C.ar    
  14 C14            4.7511    -0.2280    -2.5296 C.ar    
  15 C15            5.5117    -0.3915    -1.3861 C.ar    
  16 C16            5.0113    -0.0061    -0.1552 C.ar    
  17 C17            3.2078     0.9686     1.2786 C.3     
  18 N18            4.1378     0.5568     2.3329 N.am    
  19 C19            5.1042     1.3374     2.8298 C.2     
  20 N20            5.8191     0.7225     3.7892 N.am    
  21 C21            5.2500    -0.6279     3.9386 C.3     
  22 C22            4.1220    -0.6532     2.9262 C.2     
  23 O23            5.3128     2.4750     2.4561 O.2     
  24 O24            3.3666    -1.5726     2.6944 O.2     
  25 C25            6.2821    -1.6771     3.6147 C.ar    
  26 C26            7.5576    -1.2991     3.2390 C.ar    
  27 C27            5.9551    -3.0176     3.6989 C.ar    
  28 C28            6.9019    -3.9800     3.4018 C.ar    
  29 C29            8.1756    -3.6020     3.0202 C.ar    
  30 C30            8.5044    -2.2615     2.9419 C.ar    
  31 O31            2.5633     3.4179    -0.4760 O.3     
  32 C32            2.3285     4.7782    -0.1063 C.3     
  33 C33            4.7025    -0.8279     5.3532 C.3     
  34 C34            6.8883    -0.9975    -1.4805 C.3     
  35 F35            7.1698    -1.3099    -2.8148 F       
  36 F36            7.8342    -0.0823    -1.0062 F       
  37 F37            6.9387    -2.1628    -0.7081 F       
  38 H38            0.6160    -0.4918    -1.6848 H       
  39 H39           -1.8943     2.8595    -0.8805 H       
  40 H40            0.0795     4.2378    -0.3779 H       
  41 H41           -2.7655     0.9042    -2.0035 H       
  42 H42           -1.7170    -0.4896    -2.3588 H       
  43 H43           -3.7936    -1.6122     0.4528 H       
  44 H44            2.8962     0.4529    -3.3426 H       
  45 H45            5.1450    -0.5347    -3.4873 H       
  46 H46            5.6096    -0.1361     0.7345 H       
  47 H47            3.0907     2.0521     1.3003 H       
  48 H48            2.2398     0.4952     1.4427 H       
  49 H49            6.5645     1.0955     4.2854 H       
  50 H50            7.8143    -0.2519     3.1772 H       
  51 H51            4.9600    -3.3130     3.9970 H       
  52 H52            6.6466    -5.0273     3.4682 H       
  53 H53            8.9154    -4.3539     2.7885 H       
  54 H54            9.4995    -1.9662     2.6438 H       
  55 H55            1.8104     5.2907    -0.9169 H       
  56 H56            1.7149     4.8092     0.7941 H       
  57 H57            3.2809     5.2721     0.0859 H       
  58 H58            3.9309    -0.0843     5.5527 H       
  59 H59            4.2754    -1.8270     5.4397 H       
  60 H60            5.5113    -0.7149     6.0751 H       
@<TRIPOS>BOND
   1    1    2 ar
   2    1   31 1
   3    1    6 ar
   4    2    3 ar
   5    2   11 1
   6    3    4 ar
   7    3   38 1
   8    4    5 ar
   9    4    7 1
  10    5    6 ar
  11    5   39 1
  12    6   40 1
  13    7    8 1
  14    7   41 1
  15    7   42 1
  16    8    9 2
  17    8   10 1
  18   10   43 1
  19   11   12 ar
  20   11   13 ar
  21   12   17 1
  22   12   16 ar
  23   13   14 ar
  24   13   44 1
  25   14   15 ar
  26   14   45 1
  27   15   16 ar
  28   15   34 1
  29   16   46 1
  30   17   18 1
  31   17   47 1
  32   17   48 1
  33   18   19 am
  34   18   22 am
  35   19   20 am
  36   19   23 2
  37   20   21 1
  38   20   49 1
  39   21   22 1
  40   21   25 1
  41   21   33 1
  42   22   24 2
  43   25   26 ar
  44   25   27 ar
  45   26   30 ar
  46   26   50 1
  47   27   28 ar
  48   27   51 1
  49   28   29 ar
  50   28   52 1
  51   29   30 ar
  52   29   53 1
  53   30   54 1
  54   31   32 1
  55   32   55 1
  56   32   56 1
  57   32   57 1
  58   33   58 1
  59   33   59 1
  60   33   60 1
  61   34   35 1
  62   34   36 1
  63   34   37 1

#	End of record

