#	Name: ASD01148715
#	Creating user name:	WinNT
#	Creation time:	15. 06. 2019 19:03

#	Modifying user name:	WinNT
#	Modification time:	15. 06. 2019 19:03

#	Program:	/corina/corina34_cracker 3.40 0067  02.08.2006

@<TRIPOS>MOLECULE
ASD01148715
  57   60    0    0    0
SMALL
NO_CHARGES


@<TRIPOS>ATOM
   1 N1            -0.0160     1.3406     0.0805 N.pl3   
   2 C2             0.0026     0.0049    -0.1115 C.2     
   3 C3             1.3185    -0.4070    -0.1549 C.2     
   4 C4             2.1213     0.7502     0.0214 C.2     
   5 C5             1.2766     1.8042     0.1629 C.2     
   6 C6             1.7987    -1.7847    -0.3470 C.2     
   7 O7             1.0020    -2.6920    -0.4868 O.2     
   8 O8             3.1219    -2.0404    -0.3679 O.3     
   9 C9            -1.1690     2.1309     0.1751 C.ar    
  10 C10           -2.0123     2.0028     1.2707 C.ar    
  11 C11           -3.1483     2.7832     1.3610 C.ar    
  12 C12           -3.4461     3.6914     0.3617 C.ar    
  13 C13           -2.6083     3.8213    -0.7307 C.ar    
  14 C14           -1.4678     3.0477    -0.8239 C.ar    
  15 S15           -4.8966     4.6848     0.4802 S.o2    
  16 O16           -5.2289     5.0696    -0.8467 O.2     
  17 O17           -5.7923     3.9867     1.3344 O.2     
  18 N18           -4.4758     6.0734     1.2783 N.am    
  19 C19           -1.2062    -0.8838    -0.2536 C.3     
  20 C20            2.4311     5.8515     0.7569 C.ar    
  21 C21            3.3312     4.9450     0.1966 C.ar    
  22 C22            2.9583     3.6337     0.0043 C.ar    
  23 C23            1.6782     3.2113     0.3699 C.ar    
  24 C24            0.7777     4.1197     0.9307 C.ar    
  25 C25            1.1525     5.4305     1.1227 C.ar    
  26 C26            2.8358     7.2622     0.9692 C.ar    
  27 C27            1.9385     8.1701     1.5288 C.ar    
  28 C28            2.3204     9.4841     1.7253 C.ar    
  29 C29            3.5923     9.8990     1.3666 C.ar    
  30 C30            4.4873     9.0004     0.8097 C.ar    
  31 C31            4.1164     7.6829     0.6152 C.ar    
  32 F32            5.7263     9.4109     0.4610 F       
  33 F33            1.4515    10.3651     2.2676 F       
  34 C34            3.5232    -3.4223    -0.5615 C.3     
  35 C35            5.0504    -3.5154    -0.5566 C.3     
  36 H36            3.2006     0.7857     0.0395 H       
  37 H37           -1.7804     1.2934     2.0513 H       
  38 H38           -3.8047     2.6838     2.2128 H       
  39 H39           -2.8438     4.5312    -1.5098 H       
  40 H40           -0.8115     3.1528    -1.6752 H       
  41 H41           -4.9421     6.9024     1.0881 H       
  42 H42           -3.7630     6.0578     1.9360 H       
  43 H43           -1.4857    -0.9517    -1.3049 H       
  44 H44           -0.9722    -1.8788     0.1251 H       
  45 H45           -2.0350    -0.4638     0.3163 H       
  46 H46            4.3207     5.2720    -0.0867 H       
  47 H47            3.6552     2.9320    -0.4298 H       
  48 H48           -0.2125     3.7942     1.2134 H       
  49 H49            0.4563     6.1331     1.5564 H       
  50 H50            0.9464     7.8477     1.8081 H       
  51 H51            3.8870    10.9265     1.5213 H       
  52 H52            4.8164     6.9819     0.1850 H       
  53 H53            3.1193    -4.0344     0.2450 H       
  54 H54            3.1404    -3.7814    -1.5168 H       
  55 H55            5.4543    -2.9033    -1.3630 H       
  56 H56            5.4332    -3.1563     0.3987 H       
  57 H57            5.3516    -4.5528    -0.7019 H       
@<TRIPOS>BOND
   1    1    2 1
   2    1    5 1
   3    1    9 1
   4    2    3 2
   5    2   19 1
   6    3    4 1
   7    3    6 1
   8    4    5 2
   9    4   36 1
  10    5   23 1
  11    6    7 2
  12    6    8 1
  13    8   34 1
  14    9   10 ar
  15    9   14 ar
  16   10   11 ar
  17   10   37 1
  18   11   12 ar
  19   11   38 1
  20   12   13 ar
  21   12   15 1
  22   13   14 ar
  23   13   39 1
  24   14   40 1
  25   15   16 2
  26   15   17 2
  27   15   18 am
  28   18   41 1
  29   18   42 1
  30   19   43 1
  31   19   44 1
  32   19   45 1
  33   20   21 ar
  34   20   25 ar
  35   20   26 1
  36   21   22 ar
  37   21   46 1
  38   22   23 ar
  39   22   47 1
  40   23   24 ar
  41   24   25 ar
  42   24   48 1
  43   25   49 1
  44   26   27 ar
  45   26   31 ar
  46   27   28 ar
  47   27   50 1
  48   28   29 ar
  49   28   33 1
  50   29   30 ar
  51   29   51 1
  52   30   31 ar
  53   30   32 1
  54   31   52 1
  55   34   35 1
  56   34   53 1
  57   34   54 1
  58   35   55 1
  59   35   56 1
  60   35   57 1

#	End of record

