#	Name: ASD00170328
#	Creating user name:	WinNT
#	Creation time:	15. 06. 2019 18:31

#	Modifying user name:	WinNT
#	Modification time:	15. 06. 2019 18:31

#	Program:	/corina/corina34_cracker 3.40 0067  02.08.2006

@<TRIPOS>MOLECULE
ASD00170328
  26   27    0    0    0
SMALL
NO_CHARGES


@<TRIPOS>ATOM
   1 C1            -0.0185     1.5119     0.0104 C.3     
   2 C2             0.0021    -0.0041     0.0020 C.2     
   3 C3             1.0770    -0.7297    -0.3285 C.2     
   4 C4             2.3993    -0.0974    -0.7343 C.3     
   5 C5             2.1392     1.3716    -1.0831 C.3     
   6 N6             1.3686     1.9997    -0.0003 N.3     
   7 C7             0.8280    -2.1568    -0.2534 C.2     
   8 C8            -0.4494    -2.4621     0.1378 C.2     
   9 S9            -1.3495    -1.0433     0.4150 S.3     
  10 C10            1.8380    -3.1678    -0.5642 C.2     
  11 O11            2.5673    -3.5892     0.3138 O.2     
  12 O12            1.9612    -3.6331    -1.8245 O.3     
  13 C13            1.4109     3.4643    -0.1051 C.3     
  14 N14           -0.9399    -3.7448     0.2865 N.pl3   
  15 H15           -0.5411     1.8757    -0.8743 H       
  16 H16           -0.5241     1.8661     0.9087 H       
  17 H17            3.1060    -0.1593     0.0933 H       
  18 H18            2.8036    -0.6159    -1.6036 H       
  19 H19            3.0900     1.8912    -1.2017 H       
  20 H20            1.5738     1.4300    -2.0132 H       
  21 H21            2.6550    -4.2980    -1.9323 H       
  22 H22            0.8326     3.9036     0.7078 H       
  23 H23            2.4447     3.8036    -0.0402 H       
  24 H24            0.9866     3.7726    -1.0606 H       
  25 H25           -0.3664    -4.5069     0.1097 H       
  26 H26           -1.8578    -3.8836     0.5677 H       
@<TRIPOS>BOND
   1    1    2 1
   2    1    6 1
   3    1   15 1
   4    1   16 1
   5    2    3 2
   6    2    9 1
   7    3    4 1
   8    3    7 1
   9    4    5 1
  10    4   17 1
  11    4   18 1
  12    5    6 1
  13    5   19 1
  14    5   20 1
  15    6   13 1
  16    7    8 2
  17    7   10 1
  18    8    9 1
  19    8   14 1
  20   10   11 2
  21   10   12 1
  22   12   21 1
  23   13   22 1
  24   13   23 1
  25   13   24 1
  26   14   25 1
  27   14   26 1

#	End of record

