#	Name: ASD01720026
#	Creating user name:	WinNT
#	Creation time:	15. 06. 2019 19:23

#	Modifying user name:	WinNT
#	Modification time:	15. 06. 2019 19:23

#	Program:	/corina/corina34_cracker 3.40 0067  02.08.2006

@<TRIPOS>MOLECULE
ASD01720026
  44   46    0    0    0
SMALL
NO_CHARGES


@<TRIPOS>ATOM
   1 C1            -0.0226     1.8187     0.0120 C.3     
   2 P2             0.0021    -0.0041     0.0020 P.3     
   3 O3             0.7808    -0.5374     1.3064 O.3     
   4 O4            -1.5084    -0.5613     0.0134 O.3     
   5 O5             0.6948    -0.4814    -1.2156 O.2     
   6 P6             1.6876     2.4497    -0.0009 P.3     
   7 O7             2.4034     1.9595     1.1981 O.2     
   8 O8             2.4412     1.9305    -1.3255 O.3     
   9 O9             1.6658     4.0596     0.0080 O.3     
  10 C10            2.8500     4.8535     0.1054 C.3     
  11 O11            1.7302     6.6819     1.2751 O.3     
  12 C12            2.4730     6.3362     0.0857 C.3     
  13 C13            3.7424     7.2146     0.1438 C.3     
  14 C14            3.3305     8.4115     1.0299 C.3     
  15 C15            1.8609     8.1146     1.4023 C.3     
  16 O16            3.4237     9.6337     0.2954 O.3     
  17 O17            4.1026     7.6611    -1.1649 O.3     
  18 N18            1.3832     8.4432     4.9516 N.2     
  19 C19            1.7000     7.7533     3.8946 C.2     
  20 N20            1.5899     8.5310     2.7805 N.pl3   
  21 C21            1.1792     9.7755     3.1866 C.ar    
  22 N22            0.9068    10.9212     2.5708 N.ar    
  23 C23            0.5215    11.9766     3.2568 C.ar    
  24 N24            0.3867    11.9578     4.5703 N.ar    
  25 C25            0.6367    10.8571     5.2721 C.ar    
  26 C26            1.0506     9.7040     4.5841 C.ar    
  27 N27            0.4931    10.8471     6.6485 N.pl3   
  28 H28           -0.5498     2.1798    -0.8710 H       
  29 H29           -0.5328     2.1703     0.9088 H       
  30 H30            0.3814    -0.2621     2.1429 H       
  31 H31           -1.5716    -1.5263     0.0089 H       
  32 H32            2.0259     2.2148    -2.1512 H       
  33 H33            3.3668     4.6223     1.0368 H       
  34 H34            3.5050     4.6339    -0.7378 H       
  35 H35            1.8910     6.5688    -0.8061 H       
  36 H36            4.5657     6.6662     0.6014 H       
  37 H37            3.9502     8.4547     1.9255 H       
  38 H38            1.1851     8.6200     0.7124 H       
  39 H39            4.3161     9.8386    -0.0156 H       
  40 H40            4.8935     8.2171    -1.1870 H       
  41 H41            2.0055     6.7174     3.8994 H       
  42 H42            0.3079    12.8923     2.7255 H       
  43 H43            0.2070    11.6497     7.1121 H       
  44 H44            0.6785    10.0376     7.1496 H       
@<TRIPOS>BOND
   1    1    2 1
   2    1    6 1
   3    1   28 1
   4    1   29 1
   5    2    3 1
   6    2    4 1
   7    2    5 2
   8    3   30 1
   9    4   31 1
  10    6    7 2
  11    6    8 1
  12    6    9 1
  13    8   32 1
  14    9   10 1
  15   10   12 1
  16   10   33 1
  17   10   34 1
  18   11   12 1
  19   11   15 1
  20   12   13 1
  21   12   35 1
  22   13   14 1
  23   13   17 1
  24   13   36 1
  25   14   15 1
  26   14   16 1
  27   14   37 1
  28   15   20 1
  29   15   38 1
  30   16   39 1
  31   17   40 1
  32   18   19 2
  33   18   26 1
  34   19   20 1
  35   19   41 1
  36   20   21 1
  37   21   22 ar
  38   21   26 ar
  39   22   23 ar
  40   23   24 ar
  41   23   42 1
  42   24   25 ar
  43   25   26 ar
  44   25   27 1
  45   27   43 1
  46   27   44 1

#	End of record

