#	Name: ASD03330081
#	Creating user name:	WinNT
#	Creation time:	15. 06. 2019 20:36

#	Modifying user name:	WinNT
#	Modification time:	15. 06. 2019 20:36

#	Program:	/corina/corina34_cracker 3.40 0067  02.08.2006

@<TRIPOS>MOLECULE
ASD03330081
  73   77    0    0    0
SMALL
NO_CHARGES


@<TRIPOS>ATOM
   1 C1            -0.9523     1.0216    -1.3143 C.2     
   2 C2            -0.9719    -0.1159    -0.5641 C.2     
   3 C3             0.1091     1.8640    -1.0562 C.2     
   4 C4             0.9688     1.4096    -0.0823 C.2     
   5 S5             0.4073    -0.1416     0.5251 S.3     
   6 C6             2.1780     2.1166     0.3812 C.ar    
   7 C7             2.4030     2.3008     1.7490 C.ar    
   8 C8             3.1061     2.5998    -0.5441 C.ar    
   9 C9             4.2344     3.2598    -0.1044 C.ar    
  10 C10            4.4492     3.4439     1.2513 C.ar    
  11 C11            3.5363     2.9631     2.1751 C.ar    
  12 C12            0.3073     3.1493    -1.7681 C.ar    
  13 C13            0.3219     3.1809    -3.1619 C.ar    
  14 C14            0.4740     4.3298    -1.0453 C.ar    
  15 C15            0.6583     5.5238    -1.7106 C.ar    
  16 C16            0.6775     5.5511    -3.0983 C.ar    
  17 C17            0.5066     4.3783    -3.8211 C.ar    
  18 C18           -1.9927    -1.1634    -0.6526 C.2     
  19 O19           -3.1676    -0.8615    -0.7518 O.2     
  20 O20            0.8589     6.7294    -3.7509 O.3     
  21 N21           -1.6306    -2.4613    -0.6240 N.am    
  22 C22           -2.6299    -3.5217    -0.8130 C.3     
  23 C23           -0.2280    -2.8426    -0.4092 C.3     
  24 C24            0.2087    -3.7751    -1.5435 C.3     
  25 C25           -0.7586    -4.9582    -1.6268 C.3     
  26 C26           -2.1613    -4.4452    -1.9419 C.3     
  27 N27           -0.3238    -5.8717    -2.6919 N.3     
  28 C28           -1.2576    -6.9960    -2.8346 C.3     
  29 C29           -0.8555    -7.8447    -4.0429 C.3     
  30 C30            0.5711    -8.3639    -3.8437 C.3     
  31 C31            1.5161    -7.1749    -3.6493 C.3     
  32 C32            1.0452    -6.3456    -2.4524 C.3     
  33 Cl33           1.2594     1.6986     2.9079 Cl      
  34 Cl34           5.8726     4.2755     1.7955 Cl      
  35 C35           -0.7695    -5.6915    -0.3103 C.2     
  36 N36            0.3913    -5.9712     0.3149 N.am    
  37 O37           -1.8228    -6.0299     0.1866 O.2     
  38 C38            0.8680     6.6852    -5.1792 C.3     
  39 C39            1.0826     8.0957    -5.7317 C.3     
  40 O40            2.3816     8.5605    -5.3596 O.3     
  41 F41            0.6157    -9.1863    -2.7129 F       
  42 F42            0.9644    -9.0943    -4.9703 F       
  43 H43           -1.7057     1.2438    -2.0555 H       
  44 H44            2.9406     2.4565    -1.6017 H       
  45 H45            4.9525     3.6338    -0.8192 H       
  46 H46            3.7096     3.1103     3.2309 H       
  47 H47            0.1890     2.2688    -3.7248 H       
  48 H48            0.4584     4.3094     0.0344 H       
  49 H49            0.7874     6.4386    -1.1513 H       
  50 H50            0.5221     4.4029    -4.9007 H       
  51 H51           -2.7336    -4.0946     0.1085 H       
  52 H52           -3.5888    -3.0769    -1.0790 H       
  53 H53            0.3974    -1.9499    -0.4089 H       
  54 H54           -0.1318    -3.3590     0.5459 H       
  55 H55            0.1985    -3.2297    -2.4871 H       
  56 H56            1.2158    -4.1419    -1.3455 H       
  57 H57           -2.8470    -5.2884    -2.0247 H       
  58 H58           -2.1448    -3.8954    -2.8829 H       
  59 H59           -1.2279    -7.6093    -1.9340 H       
  60 H60           -2.2677    -6.6130    -2.9797 H       
  61 H61           -1.5395    -8.6878    -4.1392 H       
  62 H62           -0.8983    -7.2356    -4.9458 H       
  63 H63            2.5266    -7.5395    -3.4645 H       
  64 H64            1.5106    -6.5552    -4.5461 H       
  65 H65            1.7077    -5.4902    -2.3200 H       
  66 H66            1.0642    -6.9620    -1.5536 H       
  67 H67            1.2287    -5.6417    -0.0470 H       
  68 H68            0.3892    -6.5019     1.1268 H       
  69 H69            1.6754     6.0358    -5.5175 H       
  70 H70           -0.0853     6.2961    -5.5368 H       
  71 H71            1.0011     8.0766    -6.8185 H       
  72 H72            0.3261     8.7653    -5.3224 H       
  73 H73            2.5867     9.4507    -5.6768 H       
@<TRIPOS>BOND
   1    1    2 2
   2    1    3 1
   3    1   43 1
   4    2   18 1
   5    2    5 1
   6    3    4 2
   7    3   12 1
   8    4    5 1
   9    4    6 1
  10    6    7 ar
  11    6    8 ar
  12    7   33 1
  13    7   11 ar
  14    8    9 ar
  15    8   44 1
  16    9   10 ar
  17    9   45 1
  18   10   11 ar
  19   10   34 1
  20   11   46 1
  21   12   13 ar
  22   12   14 ar
  23   13   17 ar
  24   13   47 1
  25   14   15 ar
  26   14   48 1
  27   15   16 ar
  28   15   49 1
  29   16   17 ar
  30   16   20 1
  31   17   50 1
  32   18   19 2
  33   18   21 am
  34   20   38 1
  35   21   22 1
  36   21   23 1
  37   22   26 1
  38   22   51 1
  39   22   52 1
  40   23   24 1
  41   23   53 1
  42   23   54 1
  43   24   25 1
  44   24   55 1
  45   24   56 1
  46   25   26 1
  47   25   27 1
  48   25   35 1
  49   26   57 1
  50   26   58 1
  51   27   28 1
  52   27   32 1
  53   28   29 1
  54   28   59 1
  55   28   60 1
  56   29   30 1
  57   29   61 1
  58   29   62 1
  59   30   31 1
  60   30   41 1
  61   30   42 1
  62   31   32 1
  63   31   63 1
  64   31   64 1
  65   32   65 1
  66   32   66 1
  67   35   36 am
  68   35   37 2
  69   36   67 1
  70   36   68 1
  71   38   39 1
  72   38   69 1
  73   38   70 1
  74   39   40 1
  75   39   71 1
  76   39   72 1
  77   40   73 1

#	End of record

