#	Name: ASD03330640
#	Creating user name:	WinNT
#	Creation time:	15. 06. 2019 20:37

#	Modifying user name:	WinNT
#	Modification time:	15. 06. 2019 20:37

#	Program:	/corina/corina34_cracker 3.40 0067  02.08.2006

@<TRIPOS>MOLECULE
ASD03330640
  64   66    0    0    0
SMALL
NO_CHARGES


@<TRIPOS>ATOM
   1 C1            -0.3225     1.1715     0.8542 C.2     
   2 N2            -0.3519    -0.1673     1.0885 N.pl3   
   3 C3             0.9830     1.5569     0.8979 C.2     
   4 N4             1.7296     0.4569     1.1385 N.2     
   5 C5             0.9373    -0.5834     1.2487 C.2     
   6 C6             1.3699    -1.9749     1.5043 C.ar    
   7 C7             1.4904     2.9282     0.7148 C.2     
   8 O8             0.7146     3.8403     0.5020 O.2     
   9 C9             3.3187     4.5349     0.6012 C.3     
  10 N10            2.8143     3.1716     0.7832 N.am    
  11 C11            3.4924     4.8193    -0.8921 C.3     
  12 C12            2.1240     4.8050    -1.5764 C.3     
  13 C13            4.1410     6.1926    -1.0776 C.3     
  14 C14            4.3857     3.7449    -1.5154 C.3     
  15 C15            4.6479     4.6757     1.2973 C.2     
  16 N16            5.1852     5.8977     1.4830 N.am    
  17 O17            5.2341     3.6894     1.6903 O.2     
  18 C18            6.5099     6.0303     2.0944 C.3     
  19 C19           -1.5622    -0.9902     1.1652 C.3     
  20 C20           -2.4707    -0.6592    -0.0230 C.3     
  21 C21           -3.3811     0.5113     0.3343 C.3     
  22 N22           -2.7024     1.4536     1.2261 N.3     
  23 C23           -1.5203     2.0436     0.5805 C.3     
  24 C24           -3.6256     2.4981     1.6894 C.3     
  25 C25            2.6200    -2.4065     1.0707 C.ar    
  26 C26            3.0215    -3.7190     1.3148 C.ar    
  27 C27            2.1654    -4.5931     1.9937 C.ar    
  28 C28            0.9237    -4.1550     2.4212 C.ar    
  29 C29            0.5263    -2.8554     2.1862 C.ar    
  30 F30            2.5508    -5.8659     2.2317 F       
  31 C31            4.3463    -4.1856     0.8577 C.2     
  32 N32            5.1691    -3.3421     0.2036 N.am    
  33 O33            4.6945    -5.3306     1.0716 O.2     
  34 H34            2.6090     5.2447     1.0262 H       
  35 H35            3.4330     2.4441     0.9529 H       
  36 H36            1.4876     5.5704    -1.1323 H       
  37 H37            2.2477     5.0076    -2.6402 H       
  38 H38            1.6619     3.8267    -1.4442 H       
  39 H39            5.1003     6.2141    -0.5605 H       
  40 H40            4.2965     6.3804    -2.1400 H       
  41 H41            3.4882     6.9615    -0.6645 H       
  42 H42            3.9236     2.7666    -1.3832 H       
  43 H43            4.5094     3.9476    -2.5792 H       
  44 H44            5.3605     3.7552    -1.0279 H       
  45 H45            4.6948     6.6895     1.2118 H       
  46 H46            6.4941     5.5949     3.0936 H       
  47 H47            7.2462     5.5091     1.4827 H       
  48 H48            6.7750     7.0854     2.1620 H       
  49 H49           -1.2885    -2.0447     1.1318 H       
  50 H50           -2.0882    -0.7786     2.0961 H       
  51 H51           -1.8583    -0.3924    -0.8843 H       
  52 H52           -3.0790    -1.5299    -0.2677 H       
  53 H53           -3.6721     1.0299    -0.5793 H       
  54 H54           -4.2749     0.1312     0.8289 H       
  55 H55           -1.3446     3.0410     0.9836 H       
  56 H56           -1.6863     2.1079    -0.4948 H       
  57 H57           -4.4524     2.0383     2.2307 H       
  58 H58           -3.0958     3.1844     2.3501 H       
  59 H59           -4.0136     3.0468     0.8312 H       
  60 H60            3.2764    -1.7274     0.5469 H       
  61 H61            0.2653    -4.8325     2.9446 H       
  62 H62           -0.4437    -2.5199     2.5223 H       
  63 H63            4.8913    -2.4285     0.0330 H       
  64 H64            6.0391    -3.6485    -0.0965 H       
@<TRIPOS>BOND
   1    1    2 1
   2    1    3 2
   3    1   23 1
   4    2   19 1
   5    2    5 1
   6    3    4 1
   7    3    7 1
   8    4    5 2
   9    5    6 1
  10    6   25 ar
  11    6   29 ar
  12    7    8 2
  13    7   10 am
  14    9   10 1
  15    9   11 1
  16    9   15 1
  17    9   34 1
  18   10   35 1
  19   11   12 1
  20   11   13 1
  21   11   14 1
  22   12   36 1
  23   12   37 1
  24   12   38 1
  25   13   39 1
  26   13   40 1
  27   13   41 1
  28   14   42 1
  29   14   43 1
  30   14   44 1
  31   15   16 am
  32   15   17 2
  33   16   18 1
  34   16   45 1
  35   18   46 1
  36   18   47 1
  37   18   48 1
  38   19   20 1
  39   19   49 1
  40   19   50 1
  41   20   21 1
  42   20   51 1
  43   20   52 1
  44   21   22 1
  45   21   53 1
  46   21   54 1
  47   22   23 1
  48   22   24 1
  49   23   55 1
  50   23   56 1
  51   24   57 1
  52   24   58 1
  53   24   59 1
  54   25   26 ar
  55   25   60 1
  56   26   27 ar
  57   26   31 1
  58   27   28 ar
  59   27   30 1
  60   28   29 ar
  61   28   61 1
  62   29   62 1
  63   31   32 am
  64   31   33 2
  65   32   63 1
  66   32   64 1

#	End of record

