#	Name: ASD02198419
#	Creating user name:	WinNT
#	Creation time:	15. 06. 2019 20:19

#	Modifying user name:	WinNT
#	Modification time:	15. 06. 2019 20:19

#	Program:	/corina/corina34_cracker 3.40 0067  02.08.2006

@<TRIPOS>MOLECULE
ASD02198419
  39   41    0    0    0
SMALL
NO_CHARGES


@<TRIPOS>ATOM
   1 C1            -0.1480     1.0916    -0.3172 C.2     
   2 C2            -0.0598    -0.2709    -0.3700 C.2     
   3 O3             1.1028     1.5870    -0.2126 O.3     
   4 C4             1.9812     0.5763    -0.1976 C.2     
   5 C5             1.3044    -0.5899    -0.2929 C.2     
   6 S6             3.7313     0.7397    -0.0749 S.o2    
   7 N7             4.3224     0.8532    -1.6176 N.am    
   8 C8             3.8976     1.8855    -2.4527 C.ar    
   9 C9             3.7245     1.6538    -3.8356 C.ar    
  10 C10            3.2917     2.7165    -4.6660 C.ar    
  11 C11            3.0417     3.9800    -4.1087 C.ar    
  12 C12            3.2189     4.1786    -2.7578 C.ar    
  13 C13            3.6395     3.1335    -1.9326 C.ar    
  14 N14            3.9637     0.4510    -4.3651 N.ar    
  15 C15            3.8064     0.2263    -5.6469 C.ar    
  16 C16            3.3833     1.2266    -6.5197 C.ar    
  17 C17            3.1209     2.4794    -6.0438 C.ar    
  18 O18            3.9746     1.9968     0.5415 O.2     
  19 O19            4.2133    -0.4896     0.4501 O.2     
  20 C20           -1.3832     1.8770    -0.3711 C.2     
  21 O21           -2.4571     1.3152    -0.4720 O.2     
  22 O22           -1.3296     3.2235    -0.3089 O.3     
  23 C23           -2.5928     3.9369    -0.3680 C.3     
  24 O24            2.9761     5.4030    -2.2208 O.3     
  25 C25            2.5422     6.4293    -3.1156 C.3     
  26 H26           -0.8809    -0.9673    -0.4547 H       
  27 H27            1.7331    -1.5811    -0.3067 H       
  28 H28            4.9642     0.2013    -1.9403 H       
  29 H29            2.7119     4.7939    -4.7373 H       
  30 H30            3.7723     3.3089    -0.8753 H       
  31 H31            4.0104    -0.7600    -6.0367 H       
  32 H32            3.2628     1.0113    -7.5711 H       
  33 H33            2.7922     3.2669    -6.7058 H       
  34 H34           -3.0965     3.7069    -1.3069 H       
  35 H35           -3.2228     3.6300     0.4669 H       
  36 H36           -2.4075     5.0094    -0.3083 H       
  37 H37            3.3024     6.5902    -3.8799 H       
  38 H38            1.6084     6.1271    -3.5897 H       
  39 H39            2.3848     7.3535    -2.5594 H       
@<TRIPOS>BOND
   1    1    2 2
   2    1    3 1
   3    1   20 1
   4    2    5 1
   5    2   26 1
   6    3    4 1
   7    4    5 2
   8    4    6 1
   9    5   27 1
  10    6    7 am
  11    6   18 2
  12    6   19 2
  13    7    8 1
  14    7   28 1
  15    8    9 ar
  16    8   13 ar
  17    9   10 ar
  18    9   14 ar
  19   10   11 ar
  20   10   17 ar
  21   11   12 ar
  22   11   29 1
  23   12   13 ar
  24   12   24 1
  25   13   30 1
  26   14   15 ar
  27   15   16 ar
  28   15   31 1
  29   16   17 ar
  30   16   32 1
  31   17   33 1
  32   20   21 2
  33   20   22 1
  34   22   23 1
  35   23   34 1
  36   23   35 1
  37   23   36 1
  38   24   25 1
  39   25   37 1
  40   25   38 1
  41   25   39 1

#	End of record

