#	Name: ASD02030051
#	Creating user name:	WinNT
#	Creation time:	15. 06. 2019 20:14

#	Modifying user name:	WinNT
#	Modification time:	15. 06. 2019 20:14

#	Program:	/corina/corina34_cracker 3.40 0067  02.08.2006

@<TRIPOS>MOLECULE
ASD02030051
  53   56    0    0    0
SMALL
NO_CHARGES


@<TRIPOS>ATOM
   1 C1            -0.0167     1.3782     0.0096 C.ar    
   2 C2             0.0021    -0.0041     0.0020 C.ar    
   3 C3             1.2069    -0.6820    -0.0127 C.ar    
   4 C4             2.3981     0.0193    -0.0198 C.ar    
   5 C5             2.3864     1.4049    -0.0127 C.ar    
   6 C6             1.1738     2.0873     0.0021 C.ar    
   7 O7             1.1571     3.4471     0.0091 O.3     
   8 C8            -0.1240     4.0801     0.0242 C.3     
   9 O9             3.5575     2.0963    -0.0193 O.3     
  10 C10            4.7634     1.3298    -0.0335 C.3     
  11 C11            1.2215    -2.1890    -0.0204 C.3     
  12 N12            1.2133    -2.6716    -1.4078 N.3     
  13 C13            1.4651    -4.1178    -1.4636 C.3     
  14 C14           -0.0496    -2.3310    -2.0763 C.3     
  15 C15            1.6932    -4.5332    -2.8942 C.2     
  16 N16            1.9453    -5.8385    -3.1702 N.am    
  17 N17            1.6379    -3.6329    -3.8299 N.2     
  18 C18            1.8339    -3.9460    -5.1294 C.2     
  19 C19            2.1022    -5.2631    -5.4831 C.2     
  20 C20            2.1530    -6.2373    -4.4404 C.2     
  21 O21            2.3844    -7.4070    -4.6940 O.2     
  22 S22            1.8135    -2.9329    -6.5666 S.3     
  23 C23            2.1649    -4.2917    -7.6170 C.2     
  24 C24            2.2860    -5.4208    -6.9192 C.2     
  25 C25            2.5830    -6.7282    -7.5520 C.ar    
  26 C26            1.8340    -7.1622    -8.6449 C.ar    
  27 C27            3.6158    -7.5248    -7.0598 C.ar    
  28 C28            3.8884    -8.7408    -7.6520 C.ar    
  29 C29            3.1377    -9.1705    -8.7342 C.ar    
  30 C30            2.1140    -8.3797    -9.2305 C.ar    
  31 F31            3.4083   -10.3619    -9.3109 F       
  32 H32           -0.9592     1.9054     0.0169 H       
  33 H33           -0.9265    -0.5556     0.0079 H       
  34 H34            3.3379    -0.5127    -0.0306 H       
  35 H35            0.0056     5.1624     0.0285 H       
  36 H36           -0.6856     3.7849    -0.8620 H       
  37 H37           -0.6690     3.7759     0.9178 H       
  38 H38            5.6213     2.0022    -0.0375 H       
  39 H39            4.8020     0.6968     0.8530 H       
  40 H40            4.7867     0.7057    -0.9269 H       
  41 H41            2.1198    -2.5462     0.4833 H       
  42 H42            0.3400    -2.5636     0.4998 H       
  43 H43            2.3483    -4.3560    -0.8709 H       
  44 H44            0.6037    -4.6523    -1.0630 H       
  45 H45           -0.1772    -1.2485    -2.0820 H       
  46 H46           -0.0290    -2.6999    -3.1017 H       
  47 H47           -0.8798    -2.7918    -1.5410 H       
  48 H48            1.9764    -6.4869    -2.4495 H       
  49 H49            2.2693    -4.2230    -8.6897 H       
  50 H50            1.0356    -6.5466    -9.0322 H       
  51 H51            4.2017    -7.1905    -6.2164 H       
  52 H52            4.6885    -9.3584    -7.2716 H       
  53 H53            1.5315    -8.7188   -10.0743 H       
@<TRIPOS>BOND
   1    1    2 ar
   2    1    6 ar
   3    1   32 1
   4    2    3 ar
   5    2   33 1
   6    3    4 ar
   7    3   11 1
   8    4    5 ar
   9    4   34 1
  10    5    6 ar
  11    5    9 1
  12    6    7 1
  13    7    8 1
  14    8   35 1
  15    8   36 1
  16    8   37 1
  17    9   10 1
  18   10   38 1
  19   10   39 1
  20   10   40 1
  21   11   12 1
  22   11   41 1
  23   11   42 1
  24   12   13 1
  25   12   14 1
  26   13   15 1
  27   13   43 1
  28   13   44 1
  29   14   45 1
  30   14   46 1
  31   14   47 1
  32   15   16 1
  33   15   17 2
  34   16   20 am
  35   16   48 1
  36   17   18 1
  37   18   19 2
  38   18   22 1
  39   19   20 1
  40   19   24 1
  41   20   21 2
  42   22   23 1
  43   23   24 2
  44   23   49 1
  45   24   25 1
  46   25   26 ar
  47   25   27 ar
  48   26   30 ar
  49   26   50 1
  50   27   28 ar
  51   27   51 1
  52   28   29 ar
  53   28   52 1
  54   29   30 ar
  55   29   31 1
  56   30   53 1

#	End of record

