#	Name: ASD01209422
#	Creating user name:	WinNT
#	Creation time:	15. 06. 2019 19:11

#	Modifying user name:	WinNT
#	Modification time:	15. 06. 2019 19:11

#	Program:	/corina/corina34_cracker 3.40 0067  02.08.2006

@<TRIPOS>MOLECULE
ASD01209422
  45   46    0    0    0
SMALL
NO_CHARGES


@<TRIPOS>ATOM
   1 C1             0.9619     1.5638    -1.4060 C.2     
   2 C2             0.7547     0.0787    -1.2561 C.3     
   3 O3             1.7455     2.1399    -0.6891 O.2     
   4 O4             0.2801     2.2457    -2.3398 O.3     
   5 S5             1.8165    -0.5487     0.0741 S.3     
   6 N6             2.6110    -3.0823    -0.4112 N.am    
   7 C7             1.4528    -2.3259     0.0826 C.3     
   8 C8             1.2210    -2.8037     1.4972 C.2     
   9 C9             2.1477    -3.7211     1.7547 C.2     
  10 C10            3.0098    -3.8991     0.5818 C.2     
  11 O11            3.9470    -4.6713     0.5158 O.2     
  12 C12            2.2907    -4.4668     3.0564 C.3     
  13 C13            0.1435    -2.3296     2.4381 C.3     
  14 C14            3.2162    -2.9728    -1.7409 C.3     
  15 C15            4.2924    -1.9182    -1.7176 C.ar    
  16 C16            5.5939    -2.2674    -1.4073 C.ar    
  17 C17            6.5826    -1.3034    -1.3850 C.ar    
  18 C18            6.2684     0.0183    -1.6749 C.ar    
  19 C19            4.9600     0.3656    -1.9862 C.ar    
  20 C20            3.9772    -0.6043    -2.0122 C.ar    
  21 N21            7.2658     0.9959    -1.6529 N.pl3   
  22 C22            8.6451     0.6278    -1.3238 C.3     
  23 C23            6.9326     2.3893    -1.9588 C.3     
  24 H24           -0.2890    -0.1197    -1.0121 H       
  25 H25            1.0104    -0.4201    -2.1909 H       
  26 H26            0.4466     3.1965    -2.3981 H       
  27 H27            0.5779    -2.5331    -0.5336 H       
  28 H28            1.6967    -5.3800     3.0192 H       
  29 H29            3.3385    -4.7212     3.2162 H       
  30 H30            1.9403    -3.8387     3.8754 H       
  31 H31           -0.7571    -2.9251     2.2888 H       
  32 H32            0.4855    -2.4397     3.4672 H       
  33 H33           -0.0772    -1.2809     2.2389 H       
  34 H34            3.6528    -3.9314    -2.0214 H       
  35 H35            2.4515    -2.6957    -2.4665 H       
  36 H36            5.8375    -3.2951    -1.1816 H       
  37 H37            7.5989    -1.5768    -1.1422 H       
  38 H38            4.7123     1.3923    -2.2121 H       
  39 H39            2.9606    -0.3358    -2.2588 H       
  40 H40            9.1784     0.3638    -2.2371 H       
  41 H41            9.1416     1.4712    -0.8440 H       
  42 H42            8.6415    -0.2255    -0.6456 H       
  43 H43            6.6587     2.9076    -1.0399 H       
  44 H44            7.7963     2.8790    -2.4086 H       
  45 H45            6.0949     2.4180    -2.6556 H       
@<TRIPOS>BOND
   1    1    2 1
   2    1    3 2
   3    1    4 1
   4    2    5 1
   5    2   24 1
   6    2   25 1
   7    4   26 1
   8    5    7 1
   9    6    7 1
  10    6   10 am
  11    6   14 1
  12    7    8 1
  13    7   27 1
  14    8    9 2
  15    8   13 1
  16    9   10 1
  17    9   12 1
  18   10   11 2
  19   12   28 1
  20   12   29 1
  21   12   30 1
  22   13   31 1
  23   13   32 1
  24   13   33 1
  25   14   15 1
  26   14   34 1
  27   14   35 1
  28   15   16 ar
  29   15   20 ar
  30   16   17 ar
  31   16   36 1
  32   17   18 ar
  33   17   37 1
  34   18   19 ar
  35   18   21 1
  36   19   20 ar
  37   19   38 1
  38   20   39 1
  39   21   22 1
  40   21   23 1
  41   22   40 1
  42   22   41 1
  43   22   42 1
  44   23   43 1
  45   23   44 1
  46   23   45 1

#	End of record

