#	Name: ASD09740282
#	Creating user name:	WinNT
#	Creation time:	15. 06. 2019 21:23

#	Modifying user name:	WinNT
#	Modification time:	15. 06. 2019 21:23

#	Program:	/corina/corina34_cracker 3.40 0067  02.08.2006

@<TRIPOS>MOLECULE
ASD09740282
  50   53    0    0    0
SMALL
NO_CHARGES


@<TRIPOS>ATOM
   1 N1            -0.0144     1.2085     0.0087 N.2     
   2 O2             0.0021    -0.0041     0.0020 O.3     
   3 C3             1.2060     1.6802    -0.0004 C.2     
   4 N4             2.0461     0.6245    -0.0141 N.2     
   5 C5             1.2702    -0.4440    -0.0125 C.2     
   6 C6             1.7128    -1.8529    -0.0238 C.ar    
   7 C7             1.5947     3.1130     0.0031 C.ar    
   8 C8             2.9415     3.4715    -0.0083 C.ar    
   9 C9             3.2953     4.8063    -0.0056 C.ar    
  10 C10            2.3239     5.7861     0.0113 C.ar    
  11 C11            0.9723     5.4415     0.0259 C.ar    
  12 C12            0.6164     4.1003     0.0120 C.ar    
  13 C13            0.7694    -2.8829    -0.0204 C.ar    
  14 C14            1.1885    -4.1997    -0.0315 C.ar    
  15 C15            2.5498    -4.4974    -0.0462 C.ar    
  16 C16            3.4870    -3.4739    -0.0496 C.ar    
  17 C17            3.0754    -2.1582    -0.0438 C.ar    
  18 N18           -0.1636     6.2608     0.0571 N.3     
  19 C19           -1.3203     5.4491    -0.3799 C.3     
  20 C20           -0.8969     4.0167     0.0149 C.3     
  21 C21            0.0112     7.4361    -0.8067 C.3     
  22 O22            2.9604    -5.7925    -0.0567 O.3     
  23 C23            4.6374    -7.5325    -0.0816 C.3     
  24 C24            4.3701    -6.0261    -0.0714 C.3     
  25 O25            0.2726    -5.2050    -0.0278 O.3     
  26 C26           -1.9789    -6.0832    -0.0101 C.3     
  27 C27           -1.1055    -4.8270    -0.0121 C.3     
  28 H28            3.7055     2.7082    -0.0188 H       
  29 H29            4.3386     5.0850    -0.0163 H       
  30 H30            2.6120     6.8270     0.0135 H       
  31 H31           -0.2853    -2.6507    -0.0087 H       
  32 H32            4.5411    -3.7086    -0.0609 H       
  33 H33            3.8068    -1.3636    -0.0465 H       
  34 H34           -2.2245     5.7471     0.1509 H       
  35 H35           -1.4608     5.5248    -1.4582 H       
  36 H36           -1.2452     3.2940    -0.7229 H       
  37 H37           -1.2674     3.7647     1.0085 H       
  38 H38            0.1794     7.1106    -1.8334 H       
  39 H39           -0.8850     8.0550    -0.7639 H       
  40 H40            0.8690     8.0146    -0.4639 H       
  41 H41            4.2035    -7.9845     0.8103 H       
  42 H42            4.1864    -7.9755    -0.9695 H       
  43 H43            5.7127    -7.7107    -0.0929 H       
  44 H44            4.8040    -5.5740    -0.9633 H       
  45 H45            4.8211    -5.5830     0.8165 H       
  46 H46           -3.0300    -5.7949     0.0018 H       
  47 H47           -1.7733    -6.6701    -0.9053 H       
  48 H48           -1.7556    -6.6795     0.8745 H       
  49 H49           -1.3111    -4.2401     0.8831 H       
  50 H50           -1.3287    -4.2306    -0.8968 H       
@<TRIPOS>BOND
   1    1    2 1
   2    1    3 2
   3    2    5 1
   4    3    4 1
   5    3    7 1
   6    4    5 2
   7    5    6 1
   8    6   13 ar
   9    6   17 ar
  10    7    8 ar
  11    7   12 ar
  12    8    9 ar
  13    8   28 1
  14    9   10 ar
  15    9   29 1
  16   10   11 ar
  17   10   30 1
  18   11   12 ar
  19   11   18 1
  20   12   20 1
  21   13   14 ar
  22   13   31 1
  23   14   15 ar
  24   14   25 1
  25   15   16 ar
  26   15   22 1
  27   16   17 ar
  28   16   32 1
  29   17   33 1
  30   18   19 1
  31   18   21 1
  32   19   20 1
  33   19   34 1
  34   19   35 1
  35   20   36 1
  36   20   37 1
  37   21   38 1
  38   21   39 1
  39   21   40 1
  40   22   24 1
  41   23   24 1
  42   23   41 1
  43   23   42 1
  44   23   43 1
  45   24   44 1
  46   24   45 1
  47   25   27 1
  48   26   27 1
  49   26   46 1
  50   26   47 1
  51   26   48 1
  52   27   49 1
  53   27   50 1

#	End of record

