#	Name: ASD01230190
#	Creating user name:	WinNT
#	Creation time:	15. 06. 2019 19:12

#	Modifying user name:	WinNT
#	Modification time:	15. 06. 2019 19:12

#	Program:	/corina/corina34_cracker 3.40 0067  02.08.2006

@<TRIPOS>MOLECULE
ASD01230190
  44   47    0    0    0
SMALL
NO_CHARGES


@<TRIPOS>ATOM
   1 S1             1.0134     0.8975     0.0639 S.o2    
   2 N2             0.6509    -0.7034    -0.1442 N.am    
   3 C3             1.4009    -1.5028    -0.8635 C.2     
   4 N4             2.5434    -1.1418    -1.5190 N.pl3   
   5 C5             3.0636     0.2273    -1.5636 C.3     
   6 C6             2.8089     0.9436    -0.2342 C.3     
   7 C7             0.9474    -2.9071    -0.9537 C.2     
   8 C8             1.7072    -3.8133    -1.6608 C.2     
   9 C9             2.8879    -3.3758    -2.2767 C.2     
  10 C10            3.2715    -2.0905    -2.1932 C.2     
  11 C11           -0.3067    -3.3341    -0.2924 C.ar    
  12 C12           -0.2660    -4.2509     0.7586 C.ar    
  13 C13           -1.4359    -4.6459     1.3723 C.ar    
  14 C14           -2.6533    -4.1329     0.9453 C.ar    
  15 C15           -2.6978    -3.2205    -0.1002 C.ar    
  16 C16           -1.5315    -2.8164    -0.7149 C.ar    
  17 O17           -3.8044    -4.5252     1.5520 O.3     
  18 C18           -3.6786    -5.3709     2.6970 C.3     
  19 C19           -4.9222    -5.2337     3.5927 C.3     
  20 C20           -5.5684    -6.6325     3.6669 C.3     
  21 C21           -4.4051    -7.6055     3.3524 C.3     
  22 C22           -3.6125    -6.8483     2.2581 C.3     
  23 O23            0.3119     1.5614    -0.9784 O.2     
  24 O24            0.7222     1.1554     1.4306 O.2     
  25 H25            4.1360     0.1982    -1.7566 H       
  26 H26            2.5691     0.7737    -2.3667 H       
  27 H27            3.1485     1.9774    -0.2982 H       
  28 H28            3.3325     0.4289     0.5714 H       
  29 H29            1.3979    -4.8451    -1.7389 H       
  30 H30            3.4965    -4.0799    -2.8247 H       
  31 H31            4.1902    -1.7917    -2.6761 H       
  32 H32            0.6806    -4.6509     1.0908 H       
  33 H33           -1.4052    -5.3555     2.1859 H       
  34 H34           -3.6466    -2.8236    -0.4296 H       
  35 H35           -1.5665    -2.1034    -1.5254 H       
  36 H36           -2.7827    -5.1072     3.2590 H       
  37 H37           -4.6297    -4.9042     4.5897 H       
  38 H38           -5.6217    -4.5220     3.1541 H       
  39 H39           -5.9618    -6.8185     4.6663 H       
  40 H40           -6.3578    -6.7281     2.9213 H       
  41 H41           -3.7868    -7.7666     4.2355 H       
  42 H42           -4.7860    -8.5519     2.9685 H       
  43 H43           -4.0860    -6.9788     1.2850 H       
  44 H44           -2.5785    -7.1919     2.2293 H       
@<TRIPOS>BOND
   1    1    2 am
   2    1    6 1
   3    1   23 2
   4    1   24 2
   5    2    3 2
   6    3    4 1
   7    3    7 1
   8    4    5 1
   9    4   10 1
  10    5    6 1
  11    5   25 1
  12    5   26 1
  13    6   27 1
  14    6   28 1
  15    7    8 2
  16    7   11 1
  17    8    9 1
  18    8   29 1
  19    9   10 2
  20    9   30 1
  21   10   31 1
  22   11   12 ar
  23   11   16 ar
  24   12   13 ar
  25   12   32 1
  26   13   14 ar
  27   13   33 1
  28   14   15 ar
  29   14   17 1
  30   15   16 ar
  31   15   34 1
  32   16   35 1
  33   17   18 1
  34   18   19 1
  35   18   22 1
  36   18   36 1
  37   19   20 1
  38   19   37 1
  39   19   38 1
  40   20   21 1
  41   20   39 1
  42   20   40 1
  43   21   22 1
  44   21   41 1
  45   21   42 1
  46   22   43 1
  47   22   44 1

#	End of record

