#	Name: ASD03240792
#	Creating user name:	WinNT
#	Creation time:	15. 06. 2019 20:35

#	Modifying user name:	WinNT
#	Modification time:	15. 06. 2019 20:35

#	Program:	/corina/corina34_cracker 3.40 0067  02.08.2006

@<TRIPOS>MOLECULE
ASD03240792
  80   86    0    0    0
SMALL
NO_CHARGES


@<TRIPOS>ATOM
   1 N1            -0.0213     1.4856     0.0267 N.3     
   2 C2            -0.0051     0.0172     0.0128 C.3     
   3 C3             0.6987    -0.4984     1.2701 C.3     
   4 C4             2.1294     0.0461     1.3079 C.3     
   5 C5             2.0858     1.5763     1.2726 C.3     
   6 C6             1.3418     2.0317     0.0152 C.3     
   7 C7             2.8083    -0.4094     2.5738 C.2     
   8 O8             2.2081    -1.1015     3.3687 O.2     
   9 N9             4.0825    -0.0476     2.8228 N.am    
  10 C10            4.6764    -0.3752     4.0467 C.ar    
  11 C11            6.0278    -0.6910     4.1021 C.ar    
  12 C12            6.6109    -1.0139     5.3115 C.ar    
  13 C13            5.8507    -1.0231     6.4668 C.ar    
  14 C14            4.5051    -0.7097     6.4150 C.ar    
  15 C15            3.9172    -0.3798     5.2093 C.ar    
  16 S16            8.3251    -1.4152     5.3827 S.o2    
  17 O17            8.4424    -2.2497     6.5268 O.2     
  18 O18            8.6242    -1.9068     4.0835 O.2     
  19 C19            9.1508     0.1748     5.6673 C.3     
  20 C20           -0.8096     2.0139    -1.0946 C.3     
  21 C21           -1.0100     3.4965    -0.9132 C.ar    
  22 C22           -0.0909     4.3856    -1.4412 C.ar    
  23 C23           -0.2691     5.7442    -1.2788 C.ar    
  24 C24           -1.3788     6.2205    -0.5806 C.ar    
  25 C25           -2.3019     5.3190    -0.0507 C.ar    
  26 C26           -2.1154     3.9630    -0.2243 C.ar    
  27 C27            0.2992    11.9289     0.2562 C.2     
  28 N28           -0.9150    12.5071     0.2633 N.2     
  29 C29           -2.0142    11.8145     0.1116 C.2     
  30 C30           -1.9222    10.3676    -0.0721 C.ar    
  31 C31           -0.6451     9.7668    -0.0782 C.ar    
  32 N32            0.4592    10.5799     0.0899 N.pl3   
  33 C33           -3.0613     9.5735    -0.2396 C.ar    
  34 C34           -2.8818     8.2041    -0.4075 C.ar    
  35 C35           -1.5758     7.6774    -0.4023 C.ar    
  36 N36           -0.5201     8.4614    -0.2413 N.ar    
  37 N37            1.8309    10.3022     0.1312 N.2     
  38 C38            2.4841    11.4246     0.3140 C.2     
  39 C39            1.5704    12.4673     0.4033 C.2     
  40 C40           -4.0508     7.3105    -0.5892 C.ar    
  41 C41           -5.1284     7.3804     0.2923 C.ar    
  42 C42           -6.2141     6.5464     0.1181 C.ar    
  43 C43           -6.2341     5.6422    -0.9286 C.ar    
  44 C44           -5.1674     5.5682    -1.8062 C.ar    
  45 C45           -4.0791     6.4014    -1.6455 C.ar    
  46 C46            3.9814    11.5605     0.4161 C.3     
  47 H47           -1.0286    -0.3570    -0.0098 H       
  48 H48            0.5287    -0.3318    -0.8711 H       
  49 H49            0.1576    -0.1612     2.1542 H       
  50 H50            0.7244    -1.5879     1.2519 H       
  51 H51            2.6823    -0.3226     0.4439 H       
  52 H52            1.5665     1.9460     2.1568 H       
  53 H53            3.1025     1.9690     1.2562 H       
  54 H54            1.8693     1.6733    -0.8687 H       
  55 H55            1.2966     3.1206    -0.0056 H       
  56 H56            4.5879     0.4399     2.1536 H       
  57 H57            6.6219    -0.6843     3.2002 H       
  58 H58            6.3091    -1.2760     7.4114 H       
  59 H59            3.9141    -0.7181     7.3189 H       
  60 H60            2.8672    -0.1301     5.1702 H       
  61 H61            8.7948     0.6068     6.6026 H       
  62 H62           10.2281     0.0195     5.7257 H       
  63 H63            8.9256     0.8535     4.8447 H       
  64 H64           -0.2798     1.8307    -2.0294 H       
  65 H65           -1.7793     1.5170    -1.1231 H       
  66 H66            0.7680     4.0155    -1.9812 H       
  67 H67            0.4492     6.4373    -1.6911 H       
  68 H68           -3.1628     5.6818     0.4912 H       
  69 H69           -2.8315     3.2641     0.1820 H       
  70 H70           -2.9763    12.3051     0.1218 H       
  71 H71           -4.0493    10.0096    -0.2380 H       
  72 H72            1.8066    13.5098     0.5575 H       
  73 H73           -5.1136     8.0854     1.1103 H       
  74 H74           -7.0496     6.5996     0.8004 H       
  75 H75           -7.0857     4.9913    -1.0609 H       
  76 H76           -5.1883     4.8601    -2.6214 H       
  77 H77           -3.2488     6.3458    -2.3339 H       
  78 H78            4.3998    11.7260    -0.5767 H       
  79 H79            4.2265    12.4058     1.0592 H       
  80 H80            4.4010    10.6480     0.8398 H       
@<TRIPOS>BOND
   1    1    2 1
   2    1    6 1
   3    1   20 1
   4    2    3 1
   5    2   47 1
   6    2   48 1
   7    3    4 1
   8    3   49 1
   9    3   50 1
  10    4    5 1
  11    4    7 1
  12    4   51 1
  13    5    6 1
  14    5   52 1
  15    5   53 1
  16    6   54 1
  17    6   55 1
  18    7    8 2
  19    7    9 am
  20    9   10 1
  21    9   56 1
  22   10   11 ar
  23   10   15 ar
  24   11   12 ar
  25   11   57 1
  26   12   13 ar
  27   12   16 1
  28   13   14 ar
  29   13   58 1
  30   14   15 ar
  31   14   59 1
  32   15   60 1
  33   16   17 2
  34   16   18 2
  35   16   19 1
  36   19   61 1
  37   19   62 1
  38   19   63 1
  39   20   21 1
  40   20   64 1
  41   20   65 1
  42   21   22 ar
  43   21   26 ar
  44   22   23 ar
  45   22   66 1
  46   23   24 ar
  47   23   67 1
  48   24   25 ar
  49   24   35 1
  50   25   26 ar
  51   25   68 1
  52   26   69 1
  53   27   28 1
  54   27   32 1
  55   27   39 2
  56   28   29 2
  57   29   30 1
  58   29   70 1
  59   30   31 ar
  60   30   33 ar
  61   31   32 1
  62   31   36 ar
  63   32   37 1
  64   33   34 ar
  65   33   71 1
  66   34   35 ar
  67   34   40 1
  68   35   36 ar
  69   37   38 2
  70   38   39 1
  71   38   46 1
  72   39   72 1
  73   40   41 ar
  74   40   45 ar
  75   41   42 ar
  76   41   73 1
  77   42   43 ar
  78   42   74 1
  79   43   44 ar
  80   43   75 1
  81   44   45 ar
  82   44   76 1
  83   45   77 1
  84   46   78 1
  85   46   79 1
  86   46   80 1

#	End of record

