#	Name: ASD05430384
#	Creating user name:	WinNT
#	Creation time:	15. 06. 2019 21:00

#	Modifying user name:	WinNT
#	Modification time:	15. 06. 2019 21:00

#	Program:	/corina/corina34_cracker 3.40 0067  02.08.2006

@<TRIPOS>MOLECULE
ASD05430384
  55   59    0    0    0
SMALL
NO_CHARGES


@<TRIPOS>ATOM
   1 C1            -0.0229     1.3681     0.1755 C.ar    
   2 C2            -0.0158    -0.0184     0.3226 C.ar    
   3 C3            -1.2129    -0.7203     0.3792 C.ar    
   4 C4            -2.4135    -0.0498     0.2906 C.ar    
   5 C5            -2.4285     1.3412     0.1433 C.ar    
   6 C6            -1.2233     2.0482     0.0917 C.ar    
   7 C7            -4.8651     1.3680    -0.0475 C.2     
   8 C8            -3.7096     2.0591     0.0480 C.2     
   9 N9            -7.1680     1.5696    -0.8192 N.pl3   
  10 C10           -6.1758     2.0461     0.0374 C.2     
  11 O11            1.1509     2.0517     0.1200 O.3     
  12 C12            1.0690     3.4703    -0.0316 C.3     
  13 C13            1.5487    -1.6294     1.3654 C.2     
  14 N14            1.2030    -0.7060     0.4132 N.pl3   
  15 C15            2.7999    -2.0366     1.0779 C.2     
  16 N16            3.2113    -1.3829    -0.0185 N.2     
  17 C17            2.2636    -0.5829    -0.4261 C.2     
  18 C18            3.5995    -3.0509     1.8543 C.3     
  19 C19           -6.8925     0.3392    -1.5621 C.3     
  20 C20           -6.0768    -0.5999    -0.6779 C.3     
  21 O21           -4.8703     0.0157    -0.2320 O.3     
  22 C22           -8.4272     2.2991    -0.9341 C.3     
  23 C23           -8.7845     2.8672     0.4441 C.3     
  24 O24           -7.6868     3.6084     0.9672 O.3     
  25 N25           -6.4153     3.0082     0.8624 N.2     
  26 C26           -8.2725     3.4258    -1.9229 C.ar    
  27 C27           -9.2957     3.7145    -2.8067 C.ar    
  28 C28           -7.9889     5.4936    -3.7372 C.ar    
  29 C29           -6.9672     5.2073    -2.8478 C.ar    
  30 C30           -7.1099     4.1735    -1.9417 C.ar    
  31 F31           -7.8505     6.5040    -4.6234 F       
  32 C32           -9.1550     4.7474    -3.7139 C.ar    
  33 H33           -1.2027    -1.7943     0.4925 H       
  34 H34           -3.3429    -0.5982     0.3345 H       
  35 H35           -1.2302     3.1222    -0.0219 H       
  36 H36           -3.7252     3.1390     0.0545 H       
  37 H37            2.0740     3.8911    -0.0616 H       
  38 H38            0.5481     3.7070    -0.9593 H       
  39 H39            0.5224     3.8947     0.8105 H       
  40 H40            0.9370    -1.9629     2.1906 H       
  41 H41            2.3142     0.0672    -1.2870 H       
  42 H42            3.4124    -4.0464     1.4517 H       
  43 H43            4.6611    -2.8185     1.7698 H       
  44 H44            3.3035    -3.0215     2.9029 H       
  45 H45           -7.8322    -0.1405    -1.8357 H       
  46 H46           -6.3249     0.5753    -2.4623 H       
  47 H47           -6.6741    -0.8807     0.1896 H       
  48 H48           -5.8298    -1.4977    -1.2445 H       
  49 H49           -9.2142     1.6227    -1.2677 H       
  50 H50           -9.6513     3.5216     0.3517 H       
  51 H51           -9.0232     2.0478     1.1221 H       
  52 H52          -10.2051     3.1323    -2.7883 H       
  53 H53           -6.0588     5.7913    -2.8623 H       
  54 H54           -6.3131     3.9500    -1.2479 H       
  55 H55           -9.9542     4.9723    -4.4047 H       
@<TRIPOS>BOND
   1    1    2 ar
   2    1   11 1
   3    1    6 ar
   4    2    3 ar
   5    2   14 1
   6    3    4 ar
   7    3   33 1
   8    4    5 ar
   9    4   34 1
  10    5    6 ar
  11    5    8 1
  12    6   35 1
  13    7    8 2
  14    7   21 1
  15    7   10 1
  16    8   36 1
  17    9   10 1
  18    9   22 1
  19    9   19 1
  20   10   25 2
  21   11   12 1
  22   12   37 1
  23   12   38 1
  24   12   39 1
  25   13   14 1
  26   13   15 2
  27   13   40 1
  28   14   17 1
  29   15   16 1
  30   15   18 1
  31   16   17 2
  32   17   41 1
  33   18   42 1
  34   18   43 1
  35   18   44 1
  36   19   20 1
  37   19   45 1
  38   19   46 1
  39   20   21 1
  40   20   47 1
  41   20   48 1
  42   22   23 1
  43   22   26 1
  44   22   49 1
  45   23   24 1
  46   23   50 1
  47   23   51 1
  48   24   25 1
  49   26   27 ar
  50   26   30 ar
  51   27   32 ar
  52   27   52 1
  53   28   29 ar
  54   28   31 1
  55   28   32 ar
  56   29   30 ar
  57   29   53 1
  58   30   54 1
  59   32   55 1

#	End of record

