#	Name: ASD01884756
#	Creating user name:	WinNT
#	Creation time:	15. 06. 2019 19:48

#	Modifying user name:	WinNT
#	Modification time:	15. 06. 2019 19:48

#	Program:	/corina/corina34_cracker 3.40 0067  02.08.2006

@<TRIPOS>MOLECULE
ASD01884756
  37   38    0    0    0
SMALL
NO_CHARGES


@<TRIPOS>ATOM
   1 N1            -0.0158     1.3120     0.0093 N.2     
   2 C2             0.0021    -0.0041     0.0020 C.2     
   3 C3             1.2359    -0.6831    -0.0134 C.2     
   4 C4             2.4013     0.0582    -0.0206 C.2     
   5 N5             2.3193     1.4080    -0.0125 N.am    
   6 C6             1.1190     2.0153     0.0022 C.2     
   7 O7             1.0663     3.2337     0.0092 O.2     
   8 C8             3.5434     2.2128    -0.0199 C.3     
   9 C9             1.2829    -2.1666    -0.0213 C.ar    
  10 C10            3.9558     2.5007    -1.4649 C.3     
  11 C11            2.8929     3.3745    -2.1341 C.3     
  12 C12            0.8063    -2.8860     1.0728 C.ar    
  13 C13            0.8508    -4.2646     1.0624 C.ar    
  14 C14            1.3702    -4.9353    -0.0363 C.ar    
  15 C15            1.8458    -4.2213    -1.1276 C.ar    
  16 C16            1.7985    -2.8428    -1.1253 C.ar    
  17 O17            1.4137    -6.2936    -0.0434 O.3     
  18 C18            1.9608    -6.9191    -1.2059 C.3     
  19 C19            5.2989     3.2333    -1.4756 C.3     
  20 H20           -0.9239    -0.5599     0.0082 H       
  21 H21            3.3633    -0.4326    -0.0320 H       
  22 H22            3.3631     3.1533     0.5007 H       
  23 H23            4.3408     1.6660     0.4834 H       
  24 H24            4.0499     1.5615    -2.0099 H       
  25 H25            2.7989     4.3137    -1.5891 H       
  26 H26            3.1867     3.5796    -3.1635 H       
  27 H27            1.9360     2.8525    -2.1265 H       
  28 H28            0.4027    -2.3647     1.9282 H       
  29 H29            0.4816    -4.8227     1.9100 H       
  30 H30            2.2493    -4.7458    -1.9811 H       
  31 H31            2.1686    -2.2878    -1.9747 H       
  32 H32            1.3718    -6.6404    -2.0797 H       
  33 H33            2.9915    -6.5924    -1.3433 H       
  34 H34            1.9363    -8.0017    -1.0816 H       
  35 H35            6.0561     2.6109    -0.9988 H       
  36 H36            5.5927     3.4385    -2.5050 H       
  37 H37            5.2049     4.1726    -0.9306 H       
@<TRIPOS>BOND
   1    1    2 2
   2    1    6 1
   3    2    3 1
   4    2   20 1
   5    3    4 2
   6    3    9 1
   7    4    5 1
   8    4   21 1
   9    5    6 am
  10    5    8 1
  11    6    7 2
  12    8   10 1
  13    8   22 1
  14    8   23 1
  15    9   12 ar
  16    9   16 ar
  17   10   19 1
  18   10   11 1
  19   10   24 1
  20   11   25 1
  21   11   26 1
  22   11   27 1
  23   12   13 ar
  24   12   28 1
  25   13   14 ar
  26   13   29 1
  27   14   15 ar
  28   14   17 1
  29   15   16 ar
  30   15   30 1
  31   16   31 1
  32   17   18 1
  33   18   32 1
  34   18   33 1
  35   18   34 1
  36   19   35 1
  37   19   36 1
  38   19   37 1

#	End of record

