#	Name: ASD02508215
#	Creating user name:	WinNT
#	Creation time:	15. 06. 2019 20:24

#	Modifying user name:	WinNT
#	Modification time:	15. 06. 2019 20:24

#	Program:	/corina/corina34_cracker 3.40 0067  02.08.2006

@<TRIPOS>MOLECULE
ASD02508215
  36   38    0    0    0
SMALL
NO_CHARGES


@<TRIPOS>ATOM
   1 C1             0.2485     0.6122    -0.3442 C.ar    
   2 C2             0.0013    -0.7455    -0.5453 C.ar    
   3 C3            -1.2921    -1.2321    -0.4366 C.ar    
   4 C4            -2.3283    -0.3719    -0.1302 C.ar    
   5 C5            -2.0820     0.9756     0.0688 C.ar    
   6 C6            -0.7957     1.4687    -0.0321 C.ar    
   7 S7            -3.9716    -0.9925     0.0076 S.o2    
   8 N8            -4.2470    -1.2990     1.6115 N.am    
   9 C9            -3.4673    -2.2408     2.2865 C.ar    
  10 N10            1.6198     0.7976    -0.5175 N.am    
  11 C11            2.1573    -0.4036    -0.8089 C.2     
  12 O12            1.1897    -1.3337    -0.8268 O.3     
  13 O13           -4.8359     0.0770    -0.3508 O.2     
  14 O14           -3.9809    -2.2527    -0.6491 O.2     
  15 C15            2.3438     2.0661    -0.4037 C.3     
  16 O16            3.3360    -0.6123    -1.0224 O.2     
  17 C17           -2.9434    -1.9422     3.5376 C.ar    
  18 C18           -3.2191    -3.4801     1.7102 C.ar    
  19 C19           -2.4480    -4.4105     2.3796 C.ar    
  20 C20           -1.9231    -4.1104     3.6226 C.ar    
  21 C21           -2.1721    -2.8774     4.2032 C.ar    
  22 F22           -1.6577    -2.5870     5.4183 F       
  23 C23           -1.0828    -5.1283     4.3498 C.3     
  24 H24           -1.4893    -2.2826    -0.5916 H       
  25 H25           -2.8973     1.6425     0.3074 H       
  26 H26           -0.6053     2.5203     0.1238 H       
  27 H27           -4.9499    -0.8243     2.0822 H       
  28 H28            2.6737     2.2050     0.6259 H       
  29 H29            3.2109     2.0500    -1.0640 H       
  30 H30            1.6856     2.8869    -0.6882 H       
  31 H31           -3.1377    -0.9809     3.9899 H       
  32 H32           -3.6291    -3.7163     0.7394 H       
  33 H33           -2.2553    -5.3739     1.9312 H       
  34 H34           -0.0357    -4.9964     4.0775 H       
  35 H35           -1.1983    -4.9932     5.4253 H       
  36 H36           -1.4067    -6.1315     4.0728 H       
@<TRIPOS>BOND
   1    1    2 ar
   2    1   10 1
   3    1    6 ar
   4    2    3 ar
   5    2   12 1
   6    3    4 ar
   7    3   24 1
   8    4    5 ar
   9    4    7 1
  10    5    6 ar
  11    5   25 1
  12    6   26 1
  13    7    8 am
  14    7   13 2
  15    7   14 2
  16    8    9 1
  17    8   27 1
  18    9   17 ar
  19    9   18 ar
  20   10   11 am
  21   10   15 1
  22   11   12 1
  23   11   16 2
  24   15   28 1
  25   15   29 1
  26   15   30 1
  27   17   21 ar
  28   17   31 1
  29   18   19 ar
  30   18   32 1
  31   19   20 ar
  32   19   33 1
  33   20   21 ar
  34   20   23 1
  35   21   22 1
  36   23   34 1
  37   23   35 1
  38   23   36 1

#	End of record

