#	Name: ASD04591164
#	Creating user name:	WinNT
#	Creation time:	15. 06. 2019 20:52

#	Modifying user name:	WinNT
#	Modification time:	15. 06. 2019 20:52

#	Program:	/corina/corina34_cracker 3.40 0067  02.08.2006

@<TRIPOS>MOLECULE
ASD04591164
  57   62    0    0    0
SMALL
NO_CHARGES


@<TRIPOS>ATOM
   1 N1            -0.0170     1.3232    -0.0111 N.ar    
   2 C2             0.0017    -0.0035    -0.0048 C.ar    
   3 N3             1.1299    -0.6949    -0.0117 N.ar    
   4 C4             2.3050    -0.0729    -0.0258 C.ar    
   5 C5             2.3189     1.3365    -0.0332 C.ar    
   6 C6             1.1072     2.0202    -0.0250 C.ar    
   7 N7             3.6031    -0.5196    -0.0356 N.pl3   
   8 C8             4.4823     0.5494    -0.0492 C.ar    
   9 C9             3.7313     1.7384    -0.0484 C.ar    
  10 C10            5.8681     0.6417    -0.0621 C.ar    
  11 N11            6.4613     1.8180    -0.0729 N.ar    
  12 C12            5.7851     2.9532    -0.0724 C.ar    
  13 C13            4.4064     2.9584    -0.0605 C.ar    
  14 N14           -1.2019    -0.6887     0.0098 N.pl3   
  15 C15           -2.4022     0.0122     0.1304 C.ar    
  16 C16            4.0018    -1.9293    -0.0315 C.3     
  17 N17           -2.3891     1.3195     0.3310 N.ar    
  18 N18           -3.4683     2.0042     0.4478 N.ar    
  19 C19           -4.6668     1.4483     0.3753 C.ar    
  20 C20           -4.7831     0.0733     0.1655 C.ar    
  21 C21           -3.6194    -0.6637     0.0338 C.ar    
  22 N22           -5.8099     2.2334     0.5087 N.pl3   
  23 C23            3.4003    -2.6450     1.1956 C.3     
  24 C24            3.4384    -2.6399    -1.2747 C.3     
  25 C25            2.5143    -3.7627    -0.7597 C.3     
  26 C26            2.1010    -3.2942     0.6576 C.3     
  27 C27           -7.1360     1.6161     0.4282 C.3     
  28 C28           -8.1709     2.4790     1.1953 C.3     
  29 S29           -9.7666     1.8837     0.5182 S.o2    
  30 C30           -9.1111     1.2355    -1.0617 C.3     
  31 C31           -7.6052     1.5643    -1.0363 C.3     
  32 O32          -10.2405     0.8032     1.3101 O.2     
  33 O33          -10.6114     2.9960     0.2565 O.2     
  34 H34            1.0849     3.0999    -0.0307 H       
  35 H35            6.4645    -0.2587    -0.0630 H       
  36 H36            6.3204     3.8911    -0.0815 H       
  37 H37            3.8598     3.8898    -0.0602 H       
  38 H38           -1.2103    -1.6559    -0.0637 H       
  39 H39            5.0887    -2.0096    -0.0160 H       
  40 H40           -5.7518    -0.4003     0.1036 H       
  41 H41           -3.6520    -1.7307    -0.1299 H       
  42 H42           -5.7277     3.1888     0.6549 H       
  43 H43            4.0842    -3.4094     1.5645 H       
  44 H44            3.1704    -1.9260     1.9818 H       
  45 H45            2.8684    -1.9359    -1.8810 H       
  46 H46            4.2519    -3.0658    -1.8620 H       
  47 H47            1.6378    -3.8592    -1.4003 H       
  48 H48            3.0551    -4.7075    -0.7065 H       
  49 H49            1.8090    -4.1435     1.2754 H       
  50 H50            1.2967    -2.5605     0.6027 H       
  51 H51           -7.1052     0.6101     0.8469 H       
  52 H52           -8.1117     2.2920     2.2675 H       
  53 H53           -8.0291     3.5376     0.9777 H       
  54 H54           -9.2623     0.1576    -1.1204 H       
  55 H55           -9.5930     1.7324    -1.9037 H       
  56 H56           -7.4330     2.5305    -1.5107 H       
  57 H57           -7.0524     0.7920    -1.5712 H       
@<TRIPOS>BOND
   1    1    2 ar
   2    1    6 ar
   3    2    3 ar
   4    2   14 1
   5    3    4 ar
   6    4    5 ar
   7    4    7 1
   8    5    6 ar
   9    5    9 1
  10    6   34 1
  11    7    8 1
  12    7   16 1
  13    8    9 ar
  14    8   10 ar
  15    9   13 ar
  16   10   11 ar
  17   10   35 1
  18   11   12 ar
  19   12   13 ar
  20   12   36 1
  21   13   37 1
  22   14   15 1
  23   14   38 1
  24   15   17 ar
  25   15   21 ar
  26   16   24 1
  27   16   23 1
  28   16   39 1
  29   17   18 ar
  30   18   19 ar
  31   19   20 ar
  32   19   22 1
  33   20   21 ar
  34   20   40 1
  35   21   41 1
  36   22   27 1
  37   22   42 1
  38   23   26 1
  39   23   43 1
  40   23   44 1
  41   24   25 1
  42   24   45 1
  43   24   46 1
  44   25   26 1
  45   25   47 1
  46   25   48 1
  47   26   49 1
  48   26   50 1
  49   27   28 1
  50   27   31 1
  51   27   51 1
  52   28   29 1
  53   28   52 1
  54   28   53 1
  55   29   30 1
  56   29   32 2
  57   29   33 2
  58   30   31 1
  59   30   54 1
  60   30   55 1
  61   31   56 1
  62   31   57 1

#	End of record

