#	Name: ASD01912174
#	Creating user name:	WinNT
#	Creation time:	15. 06. 2019 19:59

#	Modifying user name:	WinNT
#	Modification time:	15. 06. 2019 19:59

#	Program:	/corina/corina34_cracker 3.40 0067  02.08.2006

@<TRIPOS>MOLECULE
ASD01912174
  45   47    0    0    0
SMALL
NO_CHARGES


@<TRIPOS>ATOM
   1 C1            -0.0169     1.3931     0.0097 C.ar    
   2 C2             0.0021    -0.0041     0.0020 C.ar    
   3 C3            -1.2261    -0.7403     0.0093 C.1     
   4 C4            -2.2331    -1.3439     0.0153 C.1     
   5 C5            -3.4613    -2.0802     0.0226 C.ar    
   6 C6            -3.4601    -3.4815     0.0151 C.ar    
   7 N7            -4.6147    -4.1224     0.0227 N.ar    
   8 C8            -5.7614    -3.4591     0.0372 C.ar    
   9 N9            -5.8059    -2.1351     0.0447 N.ar    
  10 C10           -4.6965    -1.4187     0.0434 C.ar    
  11 N11           -6.9523    -4.1730     0.0443 N.am    
  12 C12            1.2270    -0.6802    -0.0133 C.ar    
  13 C13            2.4080     0.0370    -0.0207 C.ar    
  14 C14            2.3814     1.4197    -0.0131 C.ar    
  15 C15            1.1717     2.0964     0.0021 C.ar    
  16 C16           -8.2001    -3.4199     0.0603 C.3     
  17 C17           -6.8828    -5.5046     0.0306 C.2     
  18 C18           -8.0896    -6.3974    -0.0129 C.3     
  19 C19           -9.3357    -5.6091     0.3977 C.3     
  20 C20           -9.3623    -4.2997    -0.4020 C.3     
  21 C21          -10.6846    -3.5719    -0.1515 C.3     
  22 C22          -10.5897    -6.4278     0.0841 C.3     
  23 C23           -9.2811    -5.3026     1.8957 C.3     
  24 O24           -5.7864    -6.0223     0.0542 O.2     
  25 F25            1.2549    -2.0309    -0.0204 F       
  26 F26            1.1553     3.4473     0.0095 F       
  27 H27           -0.9586     1.9217     0.0170 H       
  28 H28           -2.5292    -4.0290     0.0029 H       
  29 H29           -4.7406    -0.3397     0.0496 H       
  30 H30            3.3542    -0.4835    -0.0322 H       
  31 H31            3.3077     1.9750    -0.0186 H       
  32 H32           -8.3955    -3.0679     1.0732 H       
  33 H33           -8.1113    -2.5613    -0.6054 H       
  34 H34           -8.2205    -6.7802    -1.0250 H       
  35 H35           -7.9471    -7.2325     0.6731 H       
  36 H36           -9.2580    -4.5181    -1.4648 H       
  37 H37          -10.7811    -3.3493     0.9111 H       
  38 H38          -10.7012    -2.6424    -0.7205 H       
  39 H39          -11.5135    -4.2057    -0.4667 H       
  40 H40          -10.5579    -7.3670     0.6364 H       
  41 H41          -11.4748    -5.8635     0.3777 H       
  42 H42          -10.6297    -6.6361    -0.9850 H       
  43 H43           -8.3914    -4.7117     2.1134 H       
  44 H44          -10.1697    -4.7414     2.1844 H       
  45 H45           -9.2431    -6.2366     2.4564 H       
@<TRIPOS>BOND
   1    1    2 ar
   2    1   15 ar
   3    1   27 1
   4    2    3 1
   5    2   12 ar
   6    3    4 3
   7    4    5 1
   8    5    6 ar
   9    5   10 ar
  10    6    7 ar
  11    6   28 1
  12    7    8 ar
  13    8    9 ar
  14    8   11 1
  15    9   10 ar
  16   10   29 1
  17   11   16 1
  18   11   17 am
  19   12   13 ar
  20   12   25 1
  21   13   14 ar
  22   13   30 1
  23   14   15 ar
  24   14   31 1
  25   15   26 1
  26   16   20 1
  27   16   32 1
  28   16   33 1
  29   17   18 1
  30   17   24 2
  31   18   19 1
  32   18   34 1
  33   18   35 1
  34   19   20 1
  35   19   22 1
  36   19   23 1
  37   20   21 1
  38   20   36 1
  39   21   37 1
  40   21   38 1
  41   21   39 1
  42   22   40 1
  43   22   41 1
  44   22   42 1
  45   23   43 1
  46   23   44 1
  47   23   45 1

#	End of record

