#	Name: ASD03740131
#	Creating user name:	WinNT
#	Creation time:	15. 06. 2019 20:46

#	Modifying user name:	WinNT
#	Modification time:	15. 06. 2019 20:46

#	Program:	/corina/corina34_cracker 3.40 0067  02.08.2006

@<TRIPOS>MOLECULE
ASD03740131
  31   33    0    0    0
SMALL
NO_CHARGES


@<TRIPOS>ATOM
   1 C1            -0.0168     1.3858     0.0097 C.ar    
   2 C2             0.0021    -0.0041     0.0020 C.ar    
   3 C3            -1.1617    -0.7196     0.0093 C.ar    
   4 C4            -2.3847    -0.0541     0.0245 C.ar    
   5 C5            -2.4064     1.3542     0.0323 C.ar    
   6 C6            -1.2014     2.0651     0.0303 C.ar    
   7 N7            -3.6912    -0.4688     0.0352 N.pl3   
   8 N8            -4.5267     0.6529     0.0495 N.2     
   9 C9            -3.8131     1.7424     0.0483 C.2     
  10 Br10           1.6130     2.3448    -0.0007 Br      
  11 C11            1.3223    -0.7305    -0.0150 C.3     
  12 C12           -5.4840    -2.2053     2.1156 C.ar    
  13 C13           -4.2802    -2.3495     1.4513 C.ar    
  14 C14           -3.2048    -2.9399     2.0884 C.ar    
  15 C15           -3.3326    -3.3865     3.3902 C.ar    
  16 C16           -4.5370    -3.2425     4.0555 C.ar    
  17 C17           -5.6129    -2.6515     3.4173 C.ar    
  18 C18           -4.1404    -1.8632     0.0317 C.3     
  19 Cl19          -4.6985    -3.8037     5.6904 Cl      
  20 H20           -1.1332    -1.7992     0.0029 H       
  21 H21           -1.2080     3.1451     0.0365 H       
  22 H22           -4.1943     2.7529     0.0580 H       
  23 H23            1.6509    -0.9111     1.0085 H       
  24 H24            1.2065    -1.6826    -0.5328 H       
  25 H25            2.0646    -0.1231    -0.5330 H       
  26 H26           -6.3224    -1.7400     1.6188 H       
  27 H27           -2.2648    -3.0525     1.5688 H       
  28 H28           -2.4925    -3.8480     3.8878 H       
  29 H29           -6.5533    -2.5385     3.9363 H       
  30 H30           -5.1040    -1.9332    -0.4729 H       
  31 H31           -3.4099    -2.4789    -0.4930 H       
@<TRIPOS>BOND
   1    1    2 ar
   2    1   10 1
   3    1    6 ar
   4    2    3 ar
   5    2   11 1
   6    3    4 ar
   7    3   20 1
   8    4    5 ar
   9    4    7 1
  10    5    6 ar
  11    5    9 1
  12    6   21 1
  13    7    8 1
  14    7   18 1
  15    8    9 2
  16    9   22 1
  17   11   23 1
  18   11   24 1
  19   11   25 1
  20   12   13 ar
  21   12   17 ar
  22   12   26 1
  23   13   14 ar
  24   13   18 1
  25   14   15 ar
  26   14   27 1
  27   15   16 ar
  28   15   28 1
  29   16   17 ar
  30   16   19 1
  31   17   29 1
  32   18   30 1
  33   18   31 1

#	End of record

