#	Name: ASD01028322
#	Creating user name:	WinNT
#	Creation time:	15. 06. 2019 18:56

#	Modifying user name:	WinNT
#	Modification time:	15. 06. 2019 18:56

#	Program:	/corina/corina34_cracker 3.40 0067  02.08.2006

@<TRIPOS>MOLECULE
ASD01028322
  53   57    0    0    0
SMALL
NO_CHARGES


@<TRIPOS>ATOM
   1 C1            -0.0171     1.4121     0.0098 C.ar    
   2 C2             0.0021    -0.0041     0.0020 C.ar    
   3 C3             1.2102     2.1117     0.0018 C.ar    
   4 C4             2.3793     1.3712    -0.0133 C.ar    
   5 C5             2.3160    -0.0159    -0.0202 C.ar    
   6 N6             1.1702    -0.6563    -0.0123 N.ar    
   7 O7             1.2417     3.4671     0.0084 O.3     
   8 C8             2.5297     4.0861    -0.0005 C.3     
   9 C9             2.3670     5.5843     0.0086 C.2     
  10 N10            2.2908     6.3756     1.1077 N.pl3   
  11 C11            2.1480     7.6606     0.6386 C.2     
  12 N12            2.1447     7.5878    -0.6821 N.2     
  13 N13            2.2793     6.3597    -1.0433 N.2     
  14 N14            2.3288     6.1318     2.4818 N.2     
  15 C15            2.2287     7.1248     3.3380 C.2     
  16 C16            2.0808     8.4542     2.8880 C.2     
  17 C17            2.0416     8.7229     1.5562 C.2     
  18 C18            2.2713     6.8444     4.7938 C.ar    
  19 C19            2.4169     5.5323     5.2468 C.ar    
  20 C20            2.4568     5.2688     6.5967 C.ar    
  21 C21            2.3510     6.3157     7.5165 C.ar    
  22 C22            2.2050     7.6311     7.0627 C.ar    
  23 C23            2.1716     7.8919     5.7073 C.ar    
  24 C24           -1.2153    -0.7043     0.0100 C.ar    
  25 C25           -2.4012    -0.0064     0.0251 C.ar    
  26 C26           -2.4085     1.3919     0.0326 C.ar    
  27 O27           -3.5786    -0.6838     0.0324 O.3     
  28 C28           -1.2432     2.0940     0.0310 C.ar    
  29 C29           -4.7758     0.0963     0.0481 C.3     
  30 C30            2.3927     6.0339     8.9651 C.2     
  31 N31            2.5329     4.7664     9.4013 N.am    
  32 C32            2.5743     4.4867    10.8387 C.3     
  33 O33            2.3006     6.9452     9.7646 O.2     
  34 F34            2.1020     8.6452     7.9494 F       
  35 H35            3.3370     1.8703    -0.0202 H       
  36 H36            3.2347    -0.5835    -0.0321 H       
  37 H37            3.0880     3.7759     0.8827 H       
  38 H38            3.0713     3.7849    -0.8972 H       
  39 H39            1.9994     9.2595     3.6030 H       
  40 H40            1.9282     9.7383     1.2064 H       
  41 H41            2.4980     4.7226     4.5367 H       
  42 H42            2.5695     4.2529     6.9455 H       
  43 H43            2.0590     8.9066     5.3552 H       
  44 H44           -1.2207    -1.7843     0.0039 H       
  45 H45           -3.3501     1.9206     0.0445 H       
  46 H46           -1.2619     3.1738     0.0372 H       
  47 H47           -4.7913     0.7201     0.9418 H       
  48 H48           -4.8080     0.7302    -0.8380 H       
  49 H49           -5.6412    -0.5664     0.0525 H       
  50 H50            2.6064     4.0393     8.7634 H       
  51 H51            1.6464     4.8232    11.3012 H       
  52 H52            2.6912     3.4147    10.9971 H       
  53 H53            3.4160     5.0142    11.2874 H       
@<TRIPOS>BOND
   1    1    2 ar
   2    1    3 ar
   3    1   28 ar
   4    2   24 ar
   5    2    6 ar
   6    3    4 ar
   7    3    7 1
   8    4    5 ar
   9    4   35 1
  10    5    6 ar
  11    5   36 1
  12    7    8 1
  13    8    9 1
  14    8   37 1
  15    8   38 1
  16    9   10 1
  17    9   13 2
  18   10   11 1
  19   10   14 1
  20   11   12 2
  21   11   17 1
  22   12   13 1
  23   14   15 2
  24   15   16 1
  25   15   18 1
  26   16   17 2
  27   16   39 1
  28   17   40 1
  29   18   19 ar
  30   18   23 ar
  31   19   20 ar
  32   19   41 1
  33   20   21 ar
  34   20   42 1
  35   21   22 ar
  36   21   30 1
  37   22   23 ar
  38   22   34 1
  39   23   43 1
  40   24   25 ar
  41   24   44 1
  42   25   26 ar
  43   25   27 1
  44   26   28 ar
  45   26   45 1
  46   27   29 1
  47   28   46 1
  48   29   47 1
  49   29   48 1
  50   29   49 1
  51   30   31 am
  52   30   33 2
  53   31   32 1
  54   31   50 1
  55   32   51 1
  56   32   52 1
  57   32   53 1

#	End of record

