#	Name: ASD03330296
#	Creating user name:	WinNT
#	Creation time:	15. 06. 2019 20:37

#	Modifying user name:	WinNT
#	Modification time:	15. 06. 2019 20:37

#	Program:	/corina/corina34_cracker 3.40 0067  02.08.2006

@<TRIPOS>MOLECULE
ASD03330296
  61   64    0    0    0
SMALL
NO_CHARGES


@<TRIPOS>ATOM
   1 C1            -1.1558     2.6497     1.3049 C.3     
   2 N2            -1.1899     1.2020     1.0537 N.3     
   3 C3            -0.5511     0.8699    -0.2326 C.3     
   4 C4             0.7933     1.5495    -0.2742 C.2     
   5 N5             1.1581     2.5512     0.5683 N.pl3   
   6 C6             0.2814     3.0899     1.6121 C.3     
   7 C7             1.8424     1.3182    -1.1024 C.2     
   8 N8             2.8328     2.1730    -0.7585 N.2     
   9 C9             2.4268     2.9164     0.2464 C.2     
  10 C10            3.2180     3.9730     0.9147 C.ar    
  11 C11            4.3731     4.4707     0.3111 C.ar    
  12 C12            1.8939     0.3164    -2.1819 C.2     
  13 O13            0.9330    -0.3980    -2.3949 O.2     
  14 C14            3.0571    -0.8041    -4.0063 C.3     
  15 N15            3.0059     0.1918    -2.9332 N.am    
  16 C16            2.4412    -0.2162    -5.2775 C.3     
  17 C17           -2.5661     0.6910     1.1055 C.3     
  18 C18            5.1063     5.4564     0.9393 C.ar    
  19 C19            4.6982     5.9512     2.1651 C.ar    
  20 C20            3.5536     5.4618     2.7688 C.ar    
  21 C21            2.8089     4.4799     2.1485 C.ar    
  22 C22            3.1244     1.1124    -5.6079 C.3     
  23 C23            2.6378    -1.1932    -6.4385 C.3     
  24 C24            0.9457     0.0202    -5.0575 C.3     
  25 C25           -2.5724    -0.7950     0.7415 C.3     
  26 C26           -3.8997    -1.5464     0.8626 C.3     
  27 C27           -3.3341    -1.2105    -0.5187 C.3     
  28 C28            4.5132    -1.1890    -4.2759 C.3     
  29 O29            5.2308    -0.0432    -4.7388 O.3     
  30 H30           -1.5163     3.1791     0.4230 H       
  31 H31           -1.7963     2.8852     2.1548 H       
  32 H32           -0.4209    -0.2094    -0.3115 H       
  33 H33           -1.1706     1.2281    -1.0549 H       
  34 H34            0.3397     4.1783     1.6158 H       
  35 H35            0.5852     2.7014     2.5841 H       
  36 H36            4.6929     4.0851    -0.6456 H       
  37 H37            2.4966    -1.6898    -3.7071 H       
  38 H38            3.7723     0.7616    -2.7633 H       
  39 H39           -2.9641     0.8202     2.1120 H       
  40 H40           -3.1850     1.2413     0.3967 H       
  41 H41            6.0009     5.8423     0.4732 H       
  42 H42            5.2757     6.7225     2.6529 H       
  43 H43            3.2402     5.8521     3.7258 H       
  44 H44            1.9156     4.0986     2.6208 H       
  45 H45            4.1249     0.9200    -5.9953 H       
  46 H46            2.5402     1.6446    -6.3586 H       
  47 H47            3.1948     1.7191    -4.7051 H       
  48 H48            2.1511    -2.1397    -6.2031 H       
  49 H49            2.1990    -0.7743    -7.3441 H       
  50 H50            3.7032    -1.3616    -6.5952 H       
  51 H51            0.8057     0.7163    -4.2304 H       
  52 H52            0.5070     0.4391    -5.9631 H       
  53 H53            0.4590    -0.9263    -4.8222 H       
  54 H54           -1.6607    -1.3418     0.9821 H       
  55 H55           -3.8611    -2.5877     1.1826 H       
  56 H56           -4.7684    -0.9821     1.2016 H       
  57 H57           -3.8307    -0.4251    -1.0885 H       
  58 H58           -2.9234    -2.0307    -1.1076 H       
  59 H59            4.9684    -1.5556    -3.3559 H       
  60 H60            4.5479    -1.9705    -5.0350 H       
  61 H61            6.1632    -0.2139    -4.9301 H       
@<TRIPOS>BOND
   1    1    2 1
   2    1    6 1
   3    1   30 1
   4    1   31 1
   5    2    3 1
   6    2   17 1
   7    3    4 1
   8    3   32 1
   9    3   33 1
  10    4    5 1
  11    4    7 2
  12    5    6 1
  13    5    9 1
  14    6   34 1
  15    6   35 1
  16    7    8 1
  17    7   12 1
  18    8    9 2
  19    9   10 1
  20   10   11 ar
  21   10   21 ar
  22   11   18 ar
  23   11   36 1
  24   12   13 2
  25   12   15 am
  26   14   15 1
  27   14   28 1
  28   14   16 1
  29   14   37 1
  30   15   38 1
  31   16   22 1
  32   16   23 1
  33   16   24 1
  34   17   25 1
  35   17   39 1
  36   17   40 1
  37   18   19 ar
  38   18   41 1
  39   19   20 ar
  40   19   42 1
  41   20   21 ar
  42   20   43 1
  43   21   44 1
  44   22   45 1
  45   22   46 1
  46   22   47 1
  47   23   48 1
  48   23   49 1
  49   23   50 1
  50   24   51 1
  51   24   52 1
  52   24   53 1
  53   25   26 1
  54   25   27 1
  55   25   54 1
  56   26   27 1
  57   26   55 1
  58   26   56 1
  59   27   57 1
  60   27   58 1
  61   28   29 1
  62   28   59 1
  63   28   60 1
  64   29   61 1

#	End of record

