#	Name: ASD01915728
#	Creating user name:	WinNT
#	Creation time:	15. 06. 2019 20:06

#	Modifying user name:	WinNT
#	Modification time:	15. 06. 2019 20:06

#	Program:	/corina/corina34_cracker 3.40 0067  02.08.2006

@<TRIPOS>MOLECULE
ASD01915728
  44   47    0    0    0
SMALL
NO_CHARGES


@<TRIPOS>ATOM
   1 C1            -0.0166     1.3727     0.0096 C.2     
   2 N2             0.0021    -0.0041     0.0020 N.pl3   
   3 C3            -1.2434    -0.7807    -0.0179 C.3     
   4 C4            -2.3411     0.0067     0.6955 C.3     
   5 N5            -2.4045     1.3987     0.2637 N.am    
   6 C6            -1.2813     2.1228     0.0393 C.2     
   7 C7             1.2844     1.7904    -0.0006 C.2     
   8 C8             2.0436     0.6124    -0.0024 C.2     
   9 N9             1.2133    -0.4043     0.0045 N.2     
  10 C10            3.5482     0.5278    -0.0111 C.3     
  11 O11            4.0995     1.8462    -0.0174 O.3     
  12 C12            5.4551     1.9483    -0.0257 C.ar    
  13 O13           -1.3171     3.3272    -0.1281 O.2     
  14 C14            6.0570     3.1979    -0.0322 C.ar    
  15 C15            6.2375     0.8030    -0.0220 C.ar    
  16 C16            7.6150     0.9083    -0.0305 C.ar    
  17 C17            8.2145     2.1562    -0.0423 C.ar    
  18 C18            7.4347     3.3003    -0.0407 C.ar    
  19 C19           -3.6550     2.0007     0.0769 C.ar    
  20 C20           -4.2852     2.6586     1.1265 C.ar    
  21 C21           -4.2848     1.9540    -1.1671 C.ar    
  22 N22           -5.4649     2.5217    -1.3442 N.ar    
  23 C23           -6.0879     3.1481    -0.3634 C.ar    
  24 C24           -5.5233     3.2395     0.8933 C.ar    
  25 F25            9.5616     2.2577    -0.0496 F       
  26 O26           -3.6801     1.3205    -2.2043 O.3     
  27 C27           -4.3768     1.3080    -3.4519 C.3     
  28 H28           -1.5404    -0.9655    -1.0502 H       
  29 H29           -1.0875    -1.7314     0.4921 H       
  30 H30           -3.3017    -0.4681     0.4956 H       
  31 H31           -2.1536    -0.0209     1.7689 H       
  32 H32            1.6485     2.8071    -0.0066 H       
  33 H33            3.8874    -0.0036     0.8781 H       
  34 H34            3.8769    -0.0077    -0.9018 H       
  35 H35            5.4489     4.0905    -0.0310 H       
  36 H36            5.7701    -0.1706    -0.0121 H       
  37 H37            8.2245     0.0167    -0.0276 H       
  38 H38            7.9036     4.2731    -0.0499 H       
  39 H39           -3.8222     2.7160     2.1005 H       
  40 H40           -7.0513     3.5999    -0.5480 H       
  41 H41           -6.0424     3.7543     1.6883 H       
  42 H42           -3.7849     0.7712    -4.1932 H       
  43 H43           -5.3388     0.8111    -3.3259 H       
  44 H44           -4.5383     2.3322    -3.7882 H       
@<TRIPOS>BOND
   1    1    2 1
   2    1    7 2
   3    1    6 1
   4    2    3 1
   5    2    9 1
   6    3    4 1
   7    3   28 1
   8    3   29 1
   9    4    5 1
  10    4   30 1
  11    4   31 1
  12    5    6 am
  13    5   19 1
  14    6   13 2
  15    7    8 1
  16    7   32 1
  17    8    9 2
  18    8   10 1
  19   10   11 1
  20   10   33 1
  21   10   34 1
  22   11   12 1
  23   12   14 ar
  24   12   15 ar
  25   14   18 ar
  26   14   35 1
  27   15   16 ar
  28   15   36 1
  29   16   17 ar
  30   16   37 1
  31   17   18 ar
  32   17   25 1
  33   18   38 1
  34   19   20 ar
  35   19   21 ar
  36   20   24 ar
  37   20   39 1
  38   21   22 ar
  39   21   26 1
  40   22   23 ar
  41   23   24 ar
  42   23   40 1
  43   24   41 1
  44   26   27 1
  45   27   42 1
  46   27   43 1
  47   27   44 1

#	End of record

