#	Name: ASD01180254
#	Creating user name:	WinNT
#	Creation time:	15. 06. 2019 19:07

#	Modifying user name:	WinNT
#	Modification time:	15. 06. 2019 19:07

#	Program:	/corina/corina34_cracker 3.40 0067  02.08.2006

@<TRIPOS>MOLECULE
ASD01180254
  63   65    0    0    0
SMALL
NO_CHARGES


@<TRIPOS>ATOM
   1 C1             0.6005     1.4339     0.9779 C.2     
   2 C2             0.5330    -0.0690     0.8887 C.3     
   3 C3             1.9434    -0.6328     0.7049 C.3     
   4 O4             1.6672     1.9963     0.9021 O.2     
   5 O5            -0.5250     2.1480     1.1359 O.3     
   6 C6             3.0073    -2.8105     0.4540 C.2     
   7 C7             2.9411    -4.2848     0.3665 C.ar    
   8 C8             4.1072    -5.0409     0.1959 C.ar    
   9 C9             3.9909    -6.4175     0.1205 C.ar    
  10 C10            2.7384    -6.9975     0.2151 C.ar    
  11 N11            1.6566    -6.2596     0.3756 N.ar    
  12 C12            1.7163    -4.9466     0.4584 C.ar    
  13 O13            4.0804    -2.2447     0.3777 O.2     
  14 N14            1.8778    -2.0938     0.6182 N.am    
  15 C15            2.6075    -8.4965     0.1328 C.3     
  16 C16            1.8669    -9.0124     1.3682 C.3     
  17 C17            2.7192    -8.7643     2.6144 C.3     
  18 C18            1.9251    -9.1570     3.8619 C.3     
  19 C19            3.9945    -9.6058     2.5358 C.3     
  20 N20            1.8562    -8.8558    -1.0724 N.pl3   
  21 C21            2.8640   -11.0537    -1.0674 C.ar    
  22 C22            2.0566   -10.0991    -1.6754 C.ar    
  23 C23            1.4492   -10.3980    -2.8939 C.ar    
  24 C24            1.6749   -11.6416    -3.4549 C.ar    
  25 C25            2.4964   -12.5484    -2.7879 C.ar    
  26 N26            3.0579   -12.2286    -1.6290 N.ar    
  27 C27            1.0401   -12.0118    -4.7706 C.3     
  28 C28            2.7454   -13.8853    -3.3794 C.ar    
  29 C29            3.0133   -14.0083    -4.7418 C.ar    
  30 C30            3.2443   -15.2544    -5.2873 C.ar    
  31 C31            3.2098   -16.3816    -4.4841 C.ar    
  32 C32            2.9436   -16.2648    -3.1304 C.ar    
  33 C33            2.7179   -15.0225    -2.5739 C.ar    
  34 Cl34           3.5006   -17.9466    -5.1767 Cl      
  35 H35            0.0988    -0.4682     1.8053 H       
  36 H36           -0.0864    -0.3551     0.0387 H       
  37 H37            2.3776    -0.2336    -0.2118 H       
  38 H38            2.5627    -0.3467     1.5549 H       
  39 H39           -0.4315     3.1091     1.1879 H       
  40 H40            5.0725    -4.5619     0.1247 H       
  41 H41            4.8686    -7.0329    -0.0112 H       
  42 H42            0.8088    -4.3769     0.5942 H       
  43 H43            1.0214    -2.5453     0.6790 H       
  44 H44            3.5996    -8.9460     0.0900 H       
  45 H45            0.9167    -8.4877     1.4676 H       
  46 H46            1.6823   -10.0813     1.2612 H       
  47 H47            2.9835    -7.7082     2.6695 H       
  48 H48            1.6608   -10.2130     3.8068 H       
  49 H49            2.5323    -8.9802     4.7496 H       
  50 H50            1.0165    -8.5575     3.9178 H       
  51 H51            3.7306   -10.6517     2.3795 H       
  52 H52            4.6088    -9.2580     1.7053 H       
  53 H53            4.5528    -9.5072     3.4668 H       
  54 H54            1.2194    -8.2299    -1.4515 H       
  55 H55            3.3413   -10.8272    -0.1255 H       
  56 H56            0.8169    -9.6754    -3.3881 H       
  57 H57            1.6894   -11.6987    -5.5882 H       
  58 H58            0.8965   -13.0914    -4.8137 H       
  59 H59            0.0752   -11.5130    -4.8615 H       
  60 H60            3.0398   -13.1297    -5.3693 H       
  61 H61            3.4519   -15.3508    -6.3428 H       
  62 H62            2.9171   -17.1471    -2.5082 H       
  63 H63            2.5156   -14.9319    -1.5169 H       
@<TRIPOS>BOND
   1    1    2 1
   2    1    4 2
   3    1    5 1
   4    2    3 1
   5    2   35 1
   6    2   36 1
   7    3   14 1
   8    3   37 1
   9    3   38 1
  10    5   39 1
  11    6    7 1
  12    6   13 2
  13    6   14 am
  14    7    8 ar
  15    7   12 ar
  16    8    9 ar
  17    8   40 1
  18    9   10 ar
  19    9   41 1
  20   10   11 ar
  21   10   15 1
  22   11   12 ar
  23   12   42 1
  24   14   43 1
  25   15   16 1
  26   15   20 1
  27   15   44 1
  28   16   17 1
  29   16   45 1
  30   16   46 1
  31   17   18 1
  32   17   19 1
  33   17   47 1
  34   18   48 1
  35   18   49 1
  36   18   50 1
  37   19   51 1
  38   19   52 1
  39   19   53 1
  40   20   22 1
  41   20   54 1
  42   21   22 ar
  43   21   26 ar
  44   21   55 1
  45   22   23 ar
  46   23   24 ar
  47   23   56 1
  48   24   25 ar
  49   24   27 1
  50   25   26 ar
  51   25   28 1
  52   27   57 1
  53   27   58 1
  54   27   59 1
  55   28   29 ar
  56   28   33 ar
  57   29   30 ar
  58   29   60 1
  59   30   31 ar
  60   30   61 1
  61   31   32 ar
  62   31   34 1
  63   32   33 ar
  64   32   62 1
  65   33   63 1

#	End of record

