#	Name: ASD01884077
#	Creating user name:	WinNT
#	Creation time:	15. 06. 2019 19:47

#	Modifying user name:	WinNT
#	Modification time:	15. 06. 2019 19:47

#	Program:	/corina/corina34_cracker 3.40 0067  02.08.2006

@<TRIPOS>MOLECULE
ASD01884077
  53   57    0    0    0
SMALL
NO_CHARGES


@<TRIPOS>ATOM
   1 C1            -0.0178     1.4602     0.0101 C.2     
   2 C2             0.0021    -0.0041     0.0020 C.2     
   3 C3             1.2470    -0.6489    -0.0133 C.2     
   4 C4             2.4215     0.1318    -0.0204 C.2     
   5 C5             2.3602     1.4767    -0.0121 C.2     
   6 N6             1.1706     2.1448     0.0024 N.pl3   
   7 N7            -1.0020     2.3408     0.0295 N.2     
   8 C8            -0.4870     3.5747     0.0283 C.2     
   9 C9             0.8593     3.4797     0.0125 C.2     
  10 C10           -1.2163    -0.7565     0.0101 C.1     
  11 N11           -2.1828    -1.3534     0.0165 N.1     
  12 C12            1.8372     4.6263     0.0101 C.3     
  13 C13            2.0853     5.0880     1.4475 C.3     
  14 F14            2.6115     4.0280     2.1935 F       
  15 F15            2.9931     6.1525     1.4452 F       
  16 F16            0.8782     5.5058     2.0181 F       
  17 N17            1.6591    -6.2363    -0.2782 N.pl3   
  18 C18            2.2294    -6.3804    -1.5138 C.2     
  19 C19            2.4209    -5.1755    -2.0732 C.2     
  20 C20            1.9330    -4.1780    -1.1168 C.ar    
  21 C21            1.8627    -2.7861    -1.1220 C.ar    
  22 C22            1.3272    -2.1255    -0.0215 C.ar    
  23 C23            0.8641    -2.8579     1.0798 C.ar    
  24 C24            0.9316    -4.2200     1.0876 C.ar    
  25 C25            1.4642    -4.9023    -0.0040 C.ar    
  26 C26            1.3031    -7.3397     0.6174 C.3     
  27 C27            0.2883    -8.2516    -0.0752 C.3     
  28 C28           -0.0835    -9.4039     0.8602 C.3     
  29 C29            1.1725   -10.2071     1.2041 C.3     
  30 C30            2.1873    -9.2952     1.8966 C.3     
  31 C31            2.5591    -8.1429     0.9613 C.3     
  32 O32            0.8252   -11.2833     2.0777 O.3     
  33 H33            3.3846    -0.3567    -0.0322 H       
  34 H34            3.2796     2.0433    -0.0175 H       
  35 H35           -1.0537     4.4941     0.0416 H       
  36 H36            2.7777     4.3008    -0.4344 H       
  37 H37            1.4272     5.4522    -0.5712 H       
  38 H38            2.4873    -7.3241    -1.9712 H       
  39 H39            2.8528    -4.9785    -3.0433 H       
  40 H40            2.2215    -2.2255    -1.9726 H       
  41 H41            0.4498    -2.3384     1.9311 H       
  42 H42            0.5712    -4.7717     1.9433 H       
  43 H43            0.8665    -6.9388     1.5321 H       
  44 H44           -0.6065    -7.6793    -0.3202 H       
  45 H45            0.7250    -8.6525    -0.9899 H       
  46 H46           -0.5202    -9.0029     1.7749 H       
  47 H47           -0.8065   -10.0535     0.3668 H       
  48 H48            1.6091   -10.6080     0.2894 H       
  49 H49            1.7506    -8.8943     2.8113 H       
  50 H50            3.0821    -9.8675     2.1416 H       
  51 H51            2.9957    -8.5439     0.0466 H       
  52 H52            3.2821    -7.4933     1.4546 H       
  53 H53            1.5747   -11.8362     2.3378 H       
@<TRIPOS>BOND
   1    1    2 1
   2    1    6 1
   3    1    7 2
   4    2    3 2
   5    2   10 1
   6    3    4 1
   7    3   22 1
   8    4    5 2
   9    4   33 1
  10    5    6 1
  11    5   34 1
  12    6    9 1
  13    7    8 1
  14    8    9 2
  15    8   35 1
  16    9   12 1
  17   10   11 3
  18   12   13 1
  19   12   36 1
  20   12   37 1
  21   13   14 1
  22   13   15 1
  23   13   16 1
  24   17   18 1
  25   17   25 1
  26   17   26 1
  27   18   19 2
  28   18   38 1
  29   19   20 1
  30   19   39 1
  31   20   21 ar
  32   20   25 ar
  33   21   22 ar
  34   21   40 1
  35   22   23 ar
  36   23   24 ar
  37   23   41 1
  38   24   25 ar
  39   24   42 1
  40   26   27 1
  41   26   31 1
  42   26   43 1
  43   27   28 1
  44   27   44 1
  45   27   45 1
  46   28   29 1
  47   28   46 1
  48   28   47 1
  49   29   30 1
  50   29   32 1
  51   29   48 1
  52   30   31 1
  53   30   49 1
  54   30   50 1
  55   31   51 1
  56   31   52 1
  57   32   53 1

#	End of record

