#	Name: ASD02570001
#	Creating user name:	WinNT
#	Creation time:	15. 06. 2019 20:25

#	Modifying user name:	WinNT
#	Modification time:	15. 06. 2019 20:25

#	Program:	/corina/corina34_cracker 3.40 0067  02.08.2006

@<TRIPOS>MOLECULE
ASD02570001
  70   73    0    0    0
SMALL
NO_CHARGES


@<TRIPOS>ATOM
   1 C1            -0.0187     1.5278     0.0104 C.3     
   2 C2             0.0021    -0.0041     0.0020 C.3     
   3 C3             0.7897    -0.5182     1.2077 C.3     
   4 C4             2.2644    -0.1267     1.0697 C.3     
   5 C5             2.3484     1.3816     0.9457 C.2     
   6 C6             1.4131     2.0249    -0.0006 C.2     
   7 O7            -1.3375    -0.4976     0.0641 O.3     
   8 O8             2.9865    -0.5555     2.2259 O.3     
   9 C9             1.8144     3.0067    -0.8341 C.2     
  10 C10            3.2073     3.4595    -0.8154 C.2     
  11 C11            3.6038     4.4296    -1.6390 C.2     
  12 C12            5.0159     4.9344    -1.6649 C.3     
  13 C13            5.5088     4.7175    -3.1237 C.3     
  14 C14            4.7074     5.6344    -4.0178 C.3     
  15 C15            3.2567     5.1237    -4.0249 C.3     
  16 C16            2.6574     5.0998    -2.6248 C.3     
  17 C17            3.2233     2.0934     1.6561 C.2     
  18 C18            6.0493     4.1260    -0.8772 C.3     
  19 C19            7.3848     4.4959    -1.5824 C.3     
  20 C20            7.0096     4.9406    -3.0203 C.3     
  21 C21            5.2533     3.2648    -3.5302 C.3     
  22 C22            7.7467     4.0831    -4.0511 C.3     
  23 C23            7.3353     4.5138    -5.4604 C.3     
  24 C24            9.2334     4.2643    -3.8843 C.2     
  25 C25            9.9914     3.2336    -3.6029 C.2     
  26 C26           11.4782     3.4148    -3.4362 C.3     
  27 C27           11.8895     2.9842    -2.0268 C.3     
  28 O28           12.1665     2.6140    -4.3989 O.3     
  29 C29           13.3706     3.0935    -1.6588 C.3     
  30 C30           12.3599     4.0759    -1.0636 C.3     
  31 H31           -0.5409     1.8928    -0.8740 H       
  32 H32           -0.5239     1.8833     0.9085 H       
  33 H33            0.4743    -0.3550    -0.9156 H       
  34 H34            0.3825    -0.0812     2.1195 H       
  35 H35            0.7063    -1.6038     1.2588 H       
  36 H36            2.6862    -0.5924     0.1791 H       
  37 H37           -1.8953    -0.2153    -0.6736 H       
  38 H38            3.9287    -0.3389     2.2039 H       
  39 H39            1.1087     3.4587    -1.5153 H       
  40 H40            3.9130     3.0075    -0.1342 H       
  41 H41            5.0527     5.9897    -1.3947 H       
  42 H42            4.7395     6.6519    -3.6283 H       
  43 H43            5.1125     5.6117    -5.0295 H       
  44 H44            2.6544     5.7736    -4.6597 H       
  45 H45            3.2378     4.1135    -4.4337 H       
  46 H46            1.7143     4.5538    -2.6474 H       
  47 H47            2.4716     6.1224    -2.2964 H       
  48 H48            3.8947     1.5963     2.3405 H       
  49 H49            3.2607     3.1673     1.5472 H       
  50 H50            6.0661     4.4348     0.1680 H       
  51 H51            5.8505     3.0577    -0.9623 H       
  52 H52            7.8736     5.3139    -1.0532 H       
  53 H53            8.0421     3.6271    -1.6188 H       
  54 H54            7.2466     5.9947    -3.1645 H       
  55 H55            4.1832     3.0603    -3.4943 H       
  56 H56            5.6207     3.1009    -4.5433 H       
  57 H57            5.7738     2.5981    -2.8427 H       
  58 H58            7.4895     3.0345    -3.9020 H       
  59 H59            7.8604     3.9029    -6.1948 H       
  60 H60            6.2600     4.3827    -5.5810 H       
  61 H61            7.5925     5.5624    -5.6095 H       
  62 H62            9.6740     5.2439    -3.9969 H       
  63 H63            9.5508     2.2540    -3.4904 H       
  64 H64           11.7354     4.4635    -3.5853 H       
  65 H65           11.3268     2.1504    -1.6070 H       
  66 H66           11.9845     1.6671    -4.3253 H       
  67 H67           13.7821     2.3318    -0.9965 H       
  68 H68           14.0519     3.4722    -2.4208 H       
  69 H69           12.3763     5.1009    -1.4340 H       
  70 H70           12.1066     3.9606    -0.0098 H       
@<TRIPOS>BOND
   1    1    2 1
   2    1    6 1
   3    1   31 1
   4    1   32 1
   5    2    3 1
   6    2    7 1
   7    2   33 1
   8    3    4 1
   9    3   34 1
  10    3   35 1
  11    4    5 1
  12    4    8 1
  13    4   36 1
  14    5    6 1
  15    5   17 2
  16    6    9 2
  17    7   37 1
  18    8   38 1
  19    9   10 1
  20    9   39 1
  21   10   11 2
  22   10   40 1
  23   11   12 1
  24   11   16 1
  25   12   13 1
  26   12   18 1
  27   12   41 1
  28   13   14 1
  29   13   21 1
  30   13   20 1
  31   14   15 1
  32   14   42 1
  33   14   43 1
  34   15   16 1
  35   15   44 1
  36   15   45 1
  37   16   46 1
  38   16   47 1
  39   17   48 1
  40   17   49 1
  41   18   19 1
  42   18   50 1
  43   18   51 1
  44   19   20 1
  45   19   52 1
  46   19   53 1
  47   20   22 1
  48   20   54 1
  49   21   55 1
  50   21   56 1
  51   21   57 1
  52   22   23 1
  53   22   24 1
  54   22   58 1
  55   23   59 1
  56   23   60 1
  57   23   61 1
  58   24   25 2
  59   24   62 1
  60   25   26 1
  61   25   63 1
  62   26   27 1
  63   26   28 1
  64   26   64 1
  65   27   29 1
  66   27   30 1
  67   27   65 1
  68   28   66 1
  69   29   30 1
  70   29   67 1
  71   29   68 1
  72   30   69 1
  73   30   70 1

#	End of record

