#	Name: ASD04220011
#	Creating user name:	WinNT
#	Creation time:	15. 06. 2019 20:48

#	Modifying user name:	WinNT
#	Modification time:	15. 06. 2019 20:48

#	Program:	/corina/corina34_cracker 3.40 0067  02.08.2006

@<TRIPOS>MOLECULE
ASD04220011
 198  200    0    0    0
SMALL
NO_CHARGES


@<TRIPOS>ATOM
   1 S1            -2.8413    -1.6121    -2.8357 S.o2    
   2 O2            -4.2662   -13.3061     5.6683 O.2     
   3 O3            -4.2788   -10.5947     5.0579 O.2     
   4 O4            -5.7346   -13.2163     9.9778 O.2     
   5 O5            -3.8209    -8.4739     0.9752 O.2     
   6 O6             0.0692    -5.8998     1.4600 O.2     
   7 O7            -0.1030   -12.3743     5.5663 O.3     
   8 O8            -2.0028   -14.8510    12.1635 O.2     
   9 O9             0.4919   -11.3898     3.6794 O.2     
  10 O10           -2.2723   -19.2867    11.1077 O.3     
  11 O11           -2.6275    -3.1887    -2.6668 O.3     
  12 O12            1.7392    -5.0200     0.0670 O.2     
  13 O13           -4.0416   -18.8320     9.8643 O.2     
  14 O14           -0.9043    -2.7646    -1.3500 O.2     
  15 O15           -6.8279    -5.0594     1.2963 O.3     
  16 O16           -5.1401    -3.6330     1.3031 O.2     
  17 O17           -3.1444   -14.7505    16.6427 O.2     
  18 O18           -4.8904   -10.5435    16.9824 O.3     
  19 O19           -4.5839   -10.2948    14.8081 O.2     
  20 O20           -1.7536    -1.1079    -3.7735 O.3     
  21 O21           -4.0733    -1.4456    -3.5239 O.2     
  22 O22           -2.5761    -1.0329    -1.5655 O.2     
  23 O23            0.8967   -14.4096    18.8629 O.2     
  24 O24            3.4511    -1.9855    -7.5759 O.3     
  25 O25           -2.4436   -12.0330    21.0384 O.3     
  26 O26           -0.3664   -12.5396    20.4796 O.2     
  27 O27            0.2410   -16.4233    22.9044 O.2     
  28 O28            3.7901   -14.7227    25.5238 O.2     
  29 O29            2.7513   -18.0219    29.0255 O.2     
  30 N30           -6.1968   -12.4007     5.0559 N.am    
  31 N31           -4.9189   -14.0591     8.0946 N.am    
  32 N32           -4.1128   -10.2630     2.8705 N.am    
  33 N33           -2.1210    -7.3348     1.8325 N.am    
  34 N34           -4.1169   -14.3805    11.6825 N.am    
  35 N35           -0.3626    -5.2297    -0.6099 N.am    
  36 N36           -2.0563   -14.3855    14.7440 N.am    
  37 N37            2.0052    -2.7973    -1.6240 N.3     
  38 N38           -1.0897   -15.1602    18.2203 N.am    
  39 N39            0.6696   -14.8080    21.4452 N.am    
  40 N40            2.0870   -15.8693    24.6831 N.am    
  41 N41            4.3961   -16.4176    27.4791 N.3     
  42 N42            1.0987   -16.9194    30.0131 N.am    
  43 C43           -5.7603   -11.8849     3.7501 C.3     
  44 C44           -6.9848   -11.2187     3.0881 C.3     
  45 C45           -7.6324   -12.1101     5.2230 C.3     
  46 C46           -7.9019   -10.8974     4.2976 C.3     
  47 C47           -5.9692   -13.4199     7.2982 C.3     
  48 C48           -5.4153   -13.0387     5.9496 C.2     
  49 C49           -7.1342   -14.3945     7.1142 C.3     
  50 C50           -4.6644   -10.8683     3.9410 C.2     
  51 C51           -6.6049   -15.7269     6.5799 C.3     
  52 C52           -7.8254   -14.6231     8.4599 C.3     
  53 C53           -3.0474    -9.2747     3.0561 C.3     
  54 C54           -4.9198   -13.9333     9.4365 C.2     
  55 C55           -6.1118   -15.5407     5.1435 C.3     
  56 C56           -1.6997    -9.9913     3.1614 C.3     
  57 C57           -3.9083   -14.6834    10.2644 C.3     
  58 C58           -3.0252    -8.3332     1.8796 C.2     
  59 C59           -4.0749   -16.1867    10.0340 C.3     
  60 C60           -1.6775   -10.8526     4.4257 C.3     
  61 C61           -2.0994    -6.4196     0.6887 C.3     
  62 C62           -2.9702   -16.9418    10.7759 C.3     
  63 C63           -3.1115    -5.2950     0.9163 C.3     
  64 C64           -0.7196    -5.8315     0.5420 C.2     
  65 C65           -3.0950   -14.4962    12.5536 C.2     
  66 C66           -1.3469    -5.0551    -1.6808 C.3     
  67 C67           -3.3095   -14.1847    14.0124 C.3     
  68 C68           -0.3500   -11.5584     4.5295 C.2     
  69 C69           -0.8046    -5.6628    -2.9760 C.3     
  70 C70           -4.5221    -5.8838     0.9812 C.3     
  71 C71           -0.6892    -7.1802    -2.8183 C.3     
  72 C72           -3.7603   -12.7303    14.1624 C.3     
  73 C73            0.9000    -4.7886    -0.7766 C.2     
  74 C74           -3.1342   -18.4226    10.5490 C.2     
  75 C75            1.2684    -4.0076    -2.0116 C.3     
  76 C76           -1.6097    -3.5856    -1.8869 C.2     
  77 C77           -4.0978   -12.4496    15.6280 C.3     
  78 C78           -2.0884    -7.7896    -2.7100 C.3     
  79 C79            0.0296    -7.7663    -4.0352 C.3     
  80 C80            2.1475    -4.8715    -2.9180 C.3     
  81 C81           -5.5191    -4.7761     1.2053 C.2     
  82 C82           -2.0829   -14.6651    16.0622 C.2     
  83 C83           -0.7937   -14.8716    16.8148 C.3     
  84 C84            2.4961    -4.0991    -4.1642 C.ar    
  85 C85           -0.0287   -16.0469    16.2031 C.3     
  86 C86           -4.5418   -11.0171    15.7758 C.2     
  87 C87            3.6350    -3.3157    -4.1946 C.ar    
  88 C88            1.6795    -4.1794    -5.2771 C.ar    
  89 C89            1.3141   -16.1764    16.8747 C.ar    
  90 C90           -0.1731   -14.8908    19.1710 C.2     
  91 C91           -0.4775   -15.1876    20.6168 C.3     
  92 C92            3.9570    -2.6069    -5.3358 C.ar    
  93 C93            1.9971    -3.4727    -6.4207 C.ar    
  94 C94            3.1365    -2.6818    -6.4520 C.ar    
  95 C95            1.4516   -16.9712    17.9974 C.ar    
  96 C96            2.4096   -15.5049    16.3649 C.ar    
  97 C97           -1.7080   -14.3898    21.0531 C.3     
  98 C98            2.6833   -17.0900    18.6135 C.ar    
  99 C99            3.6413   -15.6237    16.9811 C.ar    
 100 C100           3.7776   -16.4143    18.1068 C.ar    
 101 C101          -1.4565   -12.9199    20.8359 C.2     
 102 C102           0.9144   -15.4624    22.5978 C.2     
 103 C103           2.0251   -15.0001    23.5054 C.3     
 104 C104           3.0104   -15.6446    25.6387 C.2     
 105 C105           3.0741   -16.5387    26.8501 C.3     
 106 C106           1.9936   -16.1211    27.8497 C.3     
 107 C107           1.9760   -17.0895    29.0042 C.2     
 108 H108           0.7626   -12.8048     5.5896 H       
 109 H109          -2.4181   -20.2267    10.9336 H       
 110 H110          -7.4291    -4.3158     1.4403 H       
 111 H111          -5.1683    -9.6184    17.0274 H       
 112 H112          -1.7918    -0.1569    -3.9448 H       
 113 H113           4.0083    -2.4733    -8.1977 H       
 114 H114          -2.2346   -11.1012    20.8862 H       
 115 H115          -4.2227   -14.5730     7.6562 H       
 116 H116          -4.4212   -10.4818     1.9773 H       
 117 H117          -1.4846    -7.2223     2.5558 H       
 118 H118          -4.9904   -14.0968    11.9945 H       
 119 H119          -1.2074   -14.3172    14.2798 H       
 120 H120           2.8506    -3.0326    -1.1259 H       
 121 H121           2.2077    -2.2238    -2.4291 H       
 122 H122          -1.9453   -15.5450    18.4667 H       
 123 H123           1.2529   -14.0857    21.1643 H       
 124 H124           1.4634   -16.6066    24.7750 H       
 125 H125           4.5731   -15.4674    27.7687 H       
 126 H126           4.4867   -17.0552    28.2559 H       
 127 H127           1.0874   -17.5427    30.7562 H       
 128 H128           0.4786   -16.1737    29.9960 H       
 129 H129          -5.4032   -12.7056     3.1279 H       
 130 H130          -6.6938   -10.3042     2.5711 H       
 131 H131          -7.4769   -11.9098     2.4038 H       
 132 H132          -8.2315   -12.9657     4.9113 H       
 133 H133          -7.8490   -11.8518     6.2596 H       
 134 H134          -7.6032    -9.9655     4.7778 H       
 135 H135          -8.9486   -10.8614     3.9956 H       
 136 H136          -6.3215   -12.5256     7.8123 H       
 137 H137          -7.8488   -13.9768     6.4050 H       
 138 H138          -5.7801   -16.0675     7.2059 H       
 139 H139          -7.4038   -16.4682     6.5966 H       
 140 H140          -8.1199   -13.6634     8.8847 H       
 141 H141          -8.7102   -15.2425     8.3133 H       
 142 H142          -7.1384   -15.1261     9.1404 H       
 143 H143          -3.2310    -8.7098     3.9700 H       
 144 H144          -5.8881   -16.5141     4.7071 H       
 145 H145          -6.8855   -15.0478     4.5549 H       
 146 H146          -5.2106   -14.9275     5.1453 H       
 147 H147          -1.5563   -10.6259     2.2869 H       
 148 H148          -0.8988    -9.2535     3.2102 H       
 149 H149          -2.9029   -14.3802     9.9721 H       
 150 H150          -5.0476   -16.5061    10.4082 H       
 151 H151          -4.0079   -16.4005     8.9673 H       
 152 H152          -1.8209   -10.2180     5.3003 H       
 153 H153          -2.4784   -11.5903     4.3769 H       
 154 H154          -2.3602    -6.9651    -0.2182 H       
 155 H155          -1.9975   -16.6225    10.4018 H       
 156 H156          -3.0372   -16.7281    11.8426 H       
 157 H157          -2.8861    -4.7876     1.8543 H       
 158 H158          -3.0530    -4.5817     0.0942 H       
 159 H159          -2.2756    -5.5552    -1.4059 H       
 160 H160          -4.0760   -14.8461    14.4163 H       
 161 H161          -1.4837    -5.4335    -3.7972 H       
 162 H162           0.1787    -5.2439    -3.1900 H       
 163 H163          -4.7476    -6.3912     0.0432 H       
 164 H164          -4.5807    -6.5971     1.8033 H       
 165 H165          -0.1222    -7.4096    -1.9161 H       
 166 H166          -2.9580   -12.0663    13.8407 H       
 167 H167          -4.6432   -12.5582    13.5468 H       
 168 H168           0.3618    -3.7252    -2.5468 H       
 169 H169          -4.9001   -13.1136    15.9498 H       
 170 H170          -3.2149   -12.6217    16.2436 H       
 171 H171          -2.6176    -7.6543    -3.6533 H       
 172 H172          -2.0052    -8.8538    -2.4896 H       
 173 H173          -2.6393    -7.2948    -1.9101 H       
 174 H174           1.0264    -7.3322    -4.1123 H       
 175 H175           0.1118    -8.8474    -3.9228 H       
 176 H176          -0.5374    -7.5369    -4.9374 H       
 177 H177           3.0620    -5.1395    -2.3889 H       
 178 H178           1.6071    -5.7778    -3.1916 H       
 179 H179          -0.1862   -13.9691    16.7493 H       
 180 H180          -0.5974   -16.9655    16.3478 H       
 181 H181           0.1138   -15.8721    15.1367 H       
 182 H182           4.2732    -3.2575    -3.3253 H       
 183 H183           0.7928    -4.7956    -5.2523 H       
 184 H184          -0.6745   -16.2531    20.7353 H       
 185 H185           4.8465    -1.9949    -5.3590 H       
 186 H186           1.3591    -3.5361    -7.2899 H       
 187 H187           0.5966   -17.4991    18.3933 H       
 188 H188           2.3032   -14.8877    15.4851 H       
 189 H189          -2.5707   -14.7017    20.4644 H       
 190 H190          -1.9037   -14.5727    22.1097 H       
 191 H191           2.7906   -17.7104    19.4910 H       
 192 H192           4.4972   -15.0993    16.5825 H       
 193 H193           4.7399   -16.5068    18.5884 H       
 194 H194           1.8336   -13.9744    23.8206 H       
 195 H195           2.9738   -15.0448    22.9706 H       
 196 H196           2.9090   -17.5728    26.5476 H       
 197 H197           2.2088   -15.1186    28.2196 H       
 198 H198           1.0214   -16.1256    27.3568 H       
@<TRIPOS>BOND
   1    1   11 1
   2    1   20 1
   3    1   21 2
   4    1   22 2
   5    2   48 2
   6    3   50 2
   7    4   54 2
   8    5   58 2
   9    6   64 2
  10    7   68 1
  11    7  108 1
  12    8   65 2
  13    9   68 2
  14   10   74 1
  15   10  109 1
  16   11   76 1
  17   12   73 2
  18   13   74 2
  19   14   76 2
  20   15   81 1
  21   15  110 1
  22   16   81 2
  23   17   82 2
  24   18   86 1
  25   18  111 1
  26   19   86 2
  27   20  112 1
  28   23   90 2
  29   24   94 1
  30   24  113 1
  31   25  101 1
  32   25  114 1
  33   26  101 2
  34   27  102 2
  35   28  104 2
  36   29  107 2
  37   30   43 1
  38   30   45 1
  39   30   48 am
  40   31   54 am
  41   31   47 1
  42   31  115 1
  43   32   50 am
  44   32   53 1
  45   32  116 1
  46   33   58 am
  47   33   61 1
  48   33  117 1
  49   34   65 am
  50   34   57 1
  51   34  118 1
  52   35   64 am
  53   35   73 am
  54   35   66 1
  55   36   82 am
  56   36   67 1
  57   36  119 1
  58   37   75 1
  59   37  120 1
  60   37  121 1
  61   38   90 am
  62   38   83 1
  63   38  122 1
  64   39  102 am
  65   39   91 1
  66   39  123 1
  67   40  103 1
  68   40  104 am
  69   40  124 1
  70   41  105 1
  71   41  125 1
  72   41  126 1
  73   42  107 am
  74   42  127 1
  75   42  128 1
  76   43   44 1
  77   43   50 1
  78   43  129 1
  79   44   46 1
  80   44  130 1
  81   44  131 1
  82   45   46 1
  83   45  132 1
  84   45  133 1
  85   46  134 1
  86   46  135 1
  87   47   48 1
  88   47   49 1
  89   47  136 1
  90   49   51 1
  91   49   52 1
  92   49  137 1
  93   51   55 1
  94   51  138 1
  95   51  139 1
  96   52  140 1
  97   52  141 1
  98   52  142 1
  99   53   56 1
 100   53   58 1
 101   53  143 1
 102   54   57 1
 103   55  144 1
 104   55  145 1
 105   55  146 1
 106   56   60 1
 107   56  147 1
 108   56  148 1
 109   57   59 1
 110   57  149 1
 111   59   62 1
 112   59  150 1
 113   59  151 1
 114   60   68 1
 115   60  152 1
 116   60  153 1
 117   61   63 1
 118   61   64 1
 119   61  154 1
 120   62   74 1
 121   62  155 1
 122   62  156 1
 123   63   70 1
 124   63  157 1
 125   63  158 1
 126   65   67 1
 127   66   69 1
 128   66   76 1
 129   66  159 1
 130   67   72 1
 131   67  160 1
 132   69   71 1
 133   69  161 1
 134   69  162 1
 135   70   81 1
 136   70  163 1
 137   70  164 1
 138   71   78 1
 139   71   79 1
 140   71  165 1
 141   72   77 1
 142   72  166 1
 143   72  167 1
 144   73   75 1
 145   75   80 1
 146   75  168 1
 147   77   86 1
 148   77  169 1
 149   77  170 1
 150   78  171 1
 151   78  172 1
 152   78  173 1
 153   79  174 1
 154   79  175 1
 155   79  176 1
 156   80   84 1
 157   80  177 1
 158   80  178 1
 159   82   83 1
 160   83   85 1
 161   83  179 1
 162   84   87 ar
 163   84   88 ar
 164   85   89 1
 165   85  180 1
 166   85  181 1
 167   87   92 ar
 168   87  182 1
 169   88   93 ar
 170   88  183 1
 171   89   95 ar
 172   89   96 ar
 173   90   91 1
 174   91   97 1
 175   91  184 1
 176   92   94 ar
 177   92  185 1
 178   93   94 ar
 179   93  186 1
 180   95   98 ar
 181   95  187 1
 182   96   99 ar
 183   96  188 1
 184   97  101 1
 185   97  189 1
 186   97  190 1
 187   98  100 ar
 188   98  191 1
 189   99  100 ar
 190   99  192 1
 191  100  193 1
 192  102  103 1
 193  103  194 1
 194  103  195 1
 195  104  105 1
 196  105  106 1
 197  105  196 1
 198  106  107 1
 199  106  197 1
 200  106  198 1

#	End of record

