#	Name: ASD03731528
#	Creating user name:	WinNT
#	Creation time:	15. 06. 2019 20:45

#	Modifying user name:	WinNT
#	Modification time:	15. 06. 2019 20:45

#	Program:	/corina/corina34_cracker 3.40 0067  02.08.2006

@<TRIPOS>MOLECULE
ASD03731528
  68   74    0    0    0
SMALL
NO_CHARGES


@<TRIPOS>ATOM
   1 C1            -0.0180     1.4732     0.0101 C.3     
   2 O2             0.0021    -0.0041     0.0020 O.3     
   3 C3             0.4610    -0.4426     1.1941 C.2     
   4 C4             0.7496     0.7932     2.0594 C.3     
   5 C5             2.0066     1.4316     1.3867 C.3     
   6 C6             1.4892     1.8791    -0.0021 C.3     
   7 C7            -0.3781     1.7450     1.5151 C.3     
   8 C8            -0.8882     2.1290    -1.0309 C.2     
   9 O9            -0.5349     3.1664    -1.5505 O.2     
  10 N10           -2.0590     1.5628    -1.3844 N.am    
  11 C11           -2.9050     2.2003    -2.3964 C.3     
  12 C12           -4.1655     1.3600    -2.6103 C.3     
  13 C13           -5.0490     2.0259    -3.6672 C.3     
  14 O14           -8.6195    -2.7001     0.4081 O.3     
  15 C15           -9.7247    -3.5861     0.6665 C.3     
  16 O16          -10.8615    -2.8786     0.1374 O.3     
  17 C17          -10.3661    -2.0778    -0.8517 C.ar    
  18 C18           -8.9876    -1.9677    -0.6840 C.ar    
  19 C19          -10.9899    -1.4242    -1.8992 C.ar    
  20 C20          -10.2496    -0.6527    -2.7898 C.ar    
  21 C21           -8.8743    -0.5435    -2.6072 C.ar    
  22 C22           -8.2485    -1.1989    -1.5674 C.ar    
  23 O23          -10.6599     0.0501    -3.8843 O.3     
  24 C24           -8.3681     0.3654    -3.6951 C.3     
  25 C25           -9.6492     1.0147    -4.2359 C.3     
  26 N26           -6.2561     1.2213    -3.8720 N.am    
  27 C27           -7.3984     1.3877    -3.1760 C.2     
  28 C28           -7.6252    -0.3812    -4.7631 C.ar    
  29 C29           -7.9569    -1.4203    -5.6036 C.ar    
  30 C30           -7.0282    -1.9032    -6.5083 C.ar    
  31 C31           -5.7662    -1.3404    -6.5659 C.ar    
  32 C32           -5.4289    -0.3000    -5.7254 C.ar    
  33 C33           -6.3575     0.1928    -4.8119 C.ar    
  34 O34           -7.6030     2.2035    -2.3021 O.2     
  35 O35            0.6161    -1.5957     1.5201 O.2     
  36 C36           -0.1551     3.2047     1.9155 C.3     
  37 C37           -1.7817     1.2561     1.8782 C.3     
  38 C38            0.8224     0.5702     3.5713 C.3     
  39 H39            2.3544     2.2902     1.9611 H       
  40 H40            2.8011     0.6931     1.2801 H       
  41 H41            2.0204     1.3534    -0.7956 H       
  42 H42            1.5939     2.9576    -0.1198 H       
  43 H43           -2.3415     0.7331    -0.9688 H       
  44 H44           -3.1862     3.1979    -2.0588 H       
  45 H45           -2.3551     2.2758    -3.3345 H       
  46 H46           -3.8843     0.3625    -2.9478 H       
  47 H47           -4.7154     1.2846    -1.6722 H       
  48 H48           -5.3303     3.0234    -3.3296 H       
  49 H49           -4.4992     2.1013    -4.6053 H       
  50 H50           -9.5863    -4.5331     0.1449 H       
  51 H51           -9.8409    -3.7511     1.7377 H       
  52 H52          -12.0587    -1.5132    -2.0266 H       
  53 H53           -7.1794    -1.1121    -1.4416 H       
  54 H54           -9.5931     1.1399    -5.3172 H       
  55 H55           -9.8370     1.9690    -3.7439 H       
  56 H56           -8.9429    -1.8584    -5.5567 H       
  57 H57           -7.2883    -2.7176    -7.1682 H       
  58 H58           -5.0413    -1.7175    -7.2720 H       
  59 H59           -4.4412     0.1339    -5.7759 H       
  60 H60           -0.7994     3.8483     1.3164 H       
  61 H61           -0.3944     3.3325     2.9712 H       
  62 H62            0.8873     3.4733     1.7441 H       
  63 H63           -1.8562     0.1867     1.6811 H       
  64 H64           -1.9701     1.4449     2.9350 H       
  65 H65           -2.5187     1.7886     1.2769 H       
  66 H66            1.6291    -0.1272     3.7973 H       
  67 H67            1.0133     1.5205     4.0700 H       
  68 H68           -0.1232     0.1584     3.9238 H       
@<TRIPOS>BOND
   1    1    2 1
   2    1    6 1
   3    1    7 1
   4    1    8 1
   5    2    3 1
   6    3    4 1
   7    3   35 2
   8    4    5 1
   9    4    7 1
  10    4   38 1
  11    5    6 1
  12    5   39 1
  13    5   40 1
  14    6   41 1
  15    6   42 1
  16    7   36 1
  17    7   37 1
  18    8    9 2
  19    8   10 am
  20   10   11 1
  21   10   43 1
  22   11   12 1
  23   11   44 1
  24   11   45 1
  25   12   13 1
  26   12   46 1
  27   12   47 1
  28   13   26 1
  29   13   48 1
  30   13   49 1
  31   14   15 1
  32   14   18 1
  33   15   16 1
  34   15   50 1
  35   15   51 1
  36   16   17 1
  37   17   18 ar
  38   17   19 ar
  39   18   22 ar
  40   19   20 ar
  41   19   52 1
  42   20   21 ar
  43   20   23 1
  44   21   22 ar
  45   21   24 1
  46   22   53 1
  47   23   25 1
  48   24   25 1
  49   24   27 1
  50   24   28 1
  51   25   54 1
  52   25   55 1
  53   26   27 am
  54   26   33 1
  55   27   34 2
  56   28   29 ar
  57   28   33 ar
  58   29   30 ar
  59   29   56 1
  60   30   31 ar
  61   30   57 1
  62   31   32 ar
  63   31   58 1
  64   32   33 ar
  65   32   59 1
  66   36   60 1
  67   36   61 1
  68   36   62 1
  69   37   63 1
  70   37   64 1
  71   37   65 1
  72   38   66 1
  73   38   67 1
  74   38   68 1

#	End of record

