#	Name: ASD03731609
#	Creating user name:	WinNT
#	Creation time:	15. 06. 2019 20:46

#	Modifying user name:	WinNT
#	Modification time:	15. 06. 2019 20:46

#	Program:	/corina/corina34_cracker 3.40 0067  02.08.2006

@<TRIPOS>MOLECULE
ASD03731609
  37   38    0    0    0
SMALL
NO_CHARGES


@<TRIPOS>ATOM
   1 C1            -0.1362     1.4671     0.0333 C.2     
   2 C2            -0.0851    -0.0063     0.0191 C.ar    
   3 C3             1.1401    -0.6648    -0.1384 C.ar    
   4 C4             1.1828    -2.0445    -0.1506 C.ar    
   5 C5             0.0129    -2.7784    -0.0073 C.ar    
   6 C6            -1.2080    -2.1270     0.1493 C.ar    
   7 C7            -1.2596    -0.7502     0.1688 C.ar    
   8 O8             0.8870     2.1122    -0.0920 O.2     
   9 N9            -1.3176     2.0991     0.1795 N.am    
  10 S10           -1.3750     3.7540     0.1954 S.o2    
  11 O11           -2.7501     4.0551     0.3892 O.2     
  12 O12           -0.4000     4.1292     1.1587 O.2     
  13 C13           -0.8452     4.2413    -1.4696 C.3     
  14 F14           -2.3432    -2.8464     0.2874 F       
  15 F15            2.2787     0.0487    -0.2788 F       
  16 O16            0.0593    -4.1349    -0.0202 O.3     
  17 C17           -0.1521    -4.7696    -1.2041 C.ar    
  18 C18           -0.0459    -6.1555    -1.2808 C.ar    
  19 C19           -0.2625    -6.7985    -2.4884 C.ar    
  20 C20           -0.5833    -6.0634    -3.6160 C.ar    
  21 C21           -0.6889    -4.6853    -3.5398 C.ar    
  22 C22           -0.4792    -4.0386    -2.3347 C.ar    
  23 O23            0.2703    -6.8769    -0.1721 O.3     
  24 C24            0.3621    -8.2948    -0.3250 C.3     
  25 Cl25          -1.0911    -3.7673    -4.9573 Cl      
  26 Cl26          -0.8533    -6.8707    -5.1289 Cl      
  27 H27            2.1274    -2.5538    -0.2720 H       
  28 H28           -2.2064    -0.2463     0.2951 H       
  29 H29           -2.1343     1.5845     0.2755 H       
  30 H30           -1.5274     3.8176    -2.2066 H       
  31 H31           -0.8532     5.3283    -1.5499 H       
  32 H32            0.1634     3.8709    -1.6529 H       
  33 H33           -0.1806    -7.8736    -2.5501 H       
  34 H34           -0.5661    -2.9637    -2.2764 H       
  35 H35            0.6200    -8.7475     0.6324 H       
  36 H36           -0.5965    -8.6862    -0.6656 H       
  37 H37            1.1327    -8.5320    -1.0585 H       
@<TRIPOS>BOND
   1    1    2 1
   2    1    8 2
   3    1    9 am
   4    2    3 ar
   5    2    7 ar
   6    3    4 ar
   7    3   15 1
   8    4    5 ar
   9    4   27 1
  10    5    6 ar
  11    5   16 1
  12    6    7 ar
  13    6   14 1
  14    7   28 1
  15    9   10 am
  16    9   29 1
  17   10   11 2
  18   10   12 2
  19   10   13 1
  20   13   30 1
  21   13   31 1
  22   13   32 1
  23   16   17 1
  24   17   18 ar
  25   17   22 ar
  26   18   19 ar
  27   18   23 1
  28   19   20 ar
  29   19   33 1
  30   20   21 ar
  31   20   26 1
  32   21   22 ar
  33   21   25 1
  34   22   34 1
  35   23   24 1
  36   24   35 1
  37   24   36 1
  38   24   37 1

#	End of record

