#	Name: ASD01890331
#	Creating user name:	WinNT
#	Creation time:	15. 06. 2019 19:50

#	Modifying user name:	WinNT
#	Modification time:	15. 06. 2019 19:50

#	Program:	/corina/corina34_cracker 3.40 0067  02.08.2006

@<TRIPOS>MOLECULE
ASD01890331
  38   40    0    0    0
SMALL
NO_CHARGES


@<TRIPOS>ATOM
   1 C1            -0.0170     1.4053     0.0098 C.2     
   2 C2             0.0021    -0.0041     0.0020 C.2     
   3 C3             1.2050    -0.6769    -0.0131 C.2     
   4 O4             1.0289     2.0283     0.0031 O.2     
   5 O5            -1.1956     2.0645     0.0189 O.3     
   6 C6             1.2250    -2.1559    -0.0212 C.ar    
   7 C7             0.7140    -2.8580    -1.1143 C.ar    
   8 C8             0.7362    -4.2373    -1.1157 C.ar    
   9 C9             1.2630    -4.9249    -0.0367 C.ar    
  10 C10            1.7708    -4.2351     1.0501 C.ar    
  11 C11            1.7604    -2.8558     1.0616 C.ar    
  12 O12            3.3626     0.0773    -1.0295 O.3     
  13 C13            2.4669     0.0747    -0.0211 C.2     
  14 C14            2.9085     0.8742     0.9872 C.2     
  15 C15            4.1946     1.4108     0.5443 C.ar    
  16 C16            4.4160     0.8655    -0.7345 C.ar    
  17 C17            5.1351     2.2749     1.1103 C.ar    
  18 C18            6.2786     2.5890     0.4092 C.ar    
  19 C19            6.4962     2.0506    -0.8526 C.ar    
  20 C20            5.5761     1.1969    -1.4227 C.ar    
  21 Cl21           7.4519     3.6625     1.1051 Cl      
  22 C22           -1.1401     3.4924     0.0264 C.3     
  23 C23           -2.5618     4.0579     0.0363 C.3     
  24 H24           -0.9258    -0.5567     0.0079 H       
  25 H25            0.3018    -2.3225    -1.9567 H       
  26 H26            0.3411    -4.7816    -1.9607 H       
  27 H27            1.2777    -6.0048    -0.0426 H       
  28 H28            2.1799    -4.7779     1.8895 H       
  29 H29            2.1613    -2.3185     1.9083 H       
  30 H30            2.4102     1.0724     1.9246 H       
  31 H31            4.9667     2.6944     2.0911 H       
  32 H32            7.3961     2.3041    -1.3933 H       
  33 H33            5.7576     0.7853    -2.4045 H       
  34 H34           -0.6084     3.8307     0.9158 H       
  35 H35           -0.6168     3.8404    -0.8642 H       
  36 H36           -3.0935     3.7196    -0.8531 H       
  37 H37           -3.0851     3.7099     0.9269 H       
  38 H38           -2.5195     5.1471     0.0420 H       
@<TRIPOS>BOND
   1    1    2 1
   2    1    4 2
   3    1    5 1
   4    2    3 2
   5    2   24 1
   6    3    6 1
   7    3   13 1
   8    5   22 1
   9    6    7 ar
  10    6   11 ar
  11    7    8 ar
  12    7   25 1
  13    8    9 ar
  14    8   26 1
  15    9   10 ar
  16    9   27 1
  17   10   11 ar
  18   10   28 1
  19   11   29 1
  20   12   13 1
  21   12   16 1
  22   13   14 2
  23   14   15 1
  24   14   30 1
  25   15   16 ar
  26   15   17 ar
  27   16   20 ar
  28   17   18 ar
  29   17   31 1
  30   18   19 ar
  31   18   21 1
  32   19   20 ar
  33   19   32 1
  34   20   33 1
  35   22   23 1
  36   22   34 1
  37   22   35 1
  38   23   36 1
  39   23   37 1
  40   23   38 1

#	End of record

