#	Name: ASD01411040
#	Creating user name:	WinNT
#	Creation time:	15. 06. 2019 19:19

#	Modifying user name:	WinNT
#	Modification time:	15. 06. 2019 19:19

#	Program:	/corina/corina34_cracker 3.40 0067  02.08.2006

@<TRIPOS>MOLECULE
ASD01411040
  36   37    0    0    0
SMALL
NO_CHARGES


@<TRIPOS>ATOM
   1 C1            -0.2175     1.7622    -0.9635 C.2     
   2 S2            -0.1157     0.0107    -0.7132 S.3     
   3 C3            -1.8330    -0.1742    -0.3049 C.2     
   4 C4            -2.3707     1.1896    -0.3985 C.2     
   5 N5            -1.4869     2.1154    -0.7319 N.am    
   6 O6            -3.5396     1.4488    -0.1806 O.2     
   7 S7             1.0654     2.8044    -1.4093 S.2     
   8 C8            -2.4961    -1.3124     0.0188 C.2     
   9 C9            -1.8253    -2.6140    -0.1049 C.ar    
  10 C10           -1.8976     3.5160    -0.8580 C.3     
  11 C11           -0.6837    -2.7441    -0.9035 C.ar    
  12 C12           -0.0603    -3.9688    -1.0144 C.ar    
  13 C13           -0.5605    -5.0687    -0.3390 C.ar    
  14 C14           -1.6890    -4.9500     0.4532 C.ar    
  15 C15           -2.3218    -3.7302     0.5804 C.ar    
  16 C16           -1.1036     4.3713     0.1313 C.3     
  17 C17           -1.5326     5.8341    -0.0004 C.3     
  18 C18           -1.3750     3.8867     1.5569 C.3     
  19 Cl19          -3.7370    -3.5829     1.5750 Cl      
  20 C20           -1.6303     3.9933    -2.2622 C.2     
  21 O21           -1.1464     3.2408    -3.0742 O.2     
  22 O22           -1.9298     5.2545    -2.6107 O.3     
  23 H23           -3.5170    -1.2620     0.3676 H       
  24 H24           -2.9622     3.6033    -0.6410 H       
  25 H25           -0.2922    -1.8875    -1.4319 H       
  26 H26            0.8209    -4.0704    -1.6304 H       
  27 H27           -0.0673    -6.0251    -0.4311 H       
  28 H28           -2.0727    -5.8131     0.9768 H       
  29 H29           -0.0390     4.2840    -0.0856 H       
  30 H30           -2.5972     5.9215     0.2166 H       
  31 H31           -0.9669     6.4435     0.7044 H       
  32 H32           -1.3392     6.1794    -1.0160 H       
  33 H33           -0.8094     4.4961     2.2617 H       
  34 H34           -2.4396     3.9741     1.7739 H       
  35 H35           -1.0694     2.8446     1.6508 H       
  36 H36           -1.7403     5.5147    -3.5226 H       
@<TRIPOS>BOND
   1    1    2 1
   2    1    7 2
   3    1    5 am
   4    2    3 1
   5    3    4 1
   6    3    8 2
   7    4    5 am
   8    4    6 2
   9    5   10 1
  10    8    9 1
  11    8   23 1
  12    9   11 ar
  13    9   15 ar
  14   10   16 1
  15   10   20 1
  16   10   24 1
  17   11   12 ar
  18   11   25 1
  19   12   13 ar
  20   12   26 1
  21   13   14 ar
  22   13   27 1
  23   14   15 ar
  24   14   28 1
  25   15   19 1
  26   16   17 1
  27   16   18 1
  28   16   29 1
  29   17   30 1
  30   17   31 1
  31   17   32 1
  32   18   33 1
  33   18   34 1
  34   18   35 1
  35   20   21 2
  36   20   22 1
  37   22   36 1

#	End of record

