#	Name: ASD05633009
#	Creating user name:	WinNT
#	Creation time:	15. 06. 2019 21:01

#	Modifying user name:	WinNT
#	Modification time:	15. 06. 2019 21:01

#	Program:	/corina/corina34_cracker 3.40 0067  02.08.2006

@<TRIPOS>MOLECULE
ASD05633009
  44   46    0    0    0
SMALL
NO_CHARGES


@<TRIPOS>ATOM
   1 C1            -0.0167     1.3792     0.0096 C.ar    
   2 C2             0.0021    -0.0041     0.0020 C.ar    
   3 C3            -1.1832    -0.7183     0.0095 C.ar    
   4 C4            -2.3920    -0.0541     0.0246 C.ar    
   5 C5            -2.4180     1.3415     0.0328 C.ar    
   6 C6            -1.2190     2.0557     0.0305 C.ar    
   7 S7             1.4982     2.2789    -0.0000 S.o2    
   8 O8             1.1737     3.5181     0.6150 O.2     
   9 O9             2.4369     1.3911     0.5915 O.2     
  10 C10            1.8706     2.5195    -1.7590 C.3     
  11 C11           -3.7101     2.0600     0.0486 C.2     
  12 O12           -3.7297     3.2753     0.0557 O.2     
  13 N13           -4.8662     1.3673     0.0550 N.am    
  14 C14           -6.1466     2.0792     0.0706 C.3     
  15 C15           -7.2760     1.0815     0.0751 C.ar    
  16 C16           -7.9344     0.7884    -1.0793 C.ar    
  17 C17           -8.9813    -0.1315    -1.0947 C.ar    
  18 C18           -9.3756    -0.7634     0.0443 C.ar    
  19 C19           -8.7192    -0.4868     1.2558 C.ar    
  20 C20           -7.6512     0.4446     1.2704 C.ar    
  21 C21           -9.0980    -1.1195     2.4522 C.ar    
  22 C22           -8.4394    -0.8267     3.6066 C.ar    
  23 C23           -7.3925     0.0933     3.6220 C.ar    
  24 C24           -6.9947     0.7212     2.4819 C.ar    
  25 C25            3.1601     3.2868    -1.8991 C.2     
  26 O26            3.7657     3.6356    -0.9135 O.2     
  27 O27            3.6358     3.5828    -3.1189 O.3     
  28 H28            0.9459    -0.5289    -0.0102 H       
  29 H29           -1.1616    -1.7980     0.0031 H       
  30 H30           -3.3164    -0.6127     0.0297 H       
  31 H31           -1.2323     3.1356     0.0368 H       
  32 H32            1.9706     1.5491    -2.2452 H       
  33 H33            1.0618     3.0795    -2.2284 H       
  34 H34           -4.8506     0.3975     0.0494 H       
  35 H35           -6.2064     2.6997     0.9648 H       
  36 H36           -6.2224     2.7099    -0.8151 H       
  37 H37           -7.6414     1.2762    -1.9973 H       
  38 H38           -9.4875    -0.3458    -2.0243 H       
  39 H39          -10.1890    -1.4734     0.0175 H       
  40 H40           -9.9079    -1.8340     2.4555 H       
  41 H41           -8.7325    -1.3143     4.5246 H       
  42 H42           -6.8869     0.3082     4.5518 H       
  43 H43           -6.1817     1.4316     2.5089 H       
  44 H44            4.4664     4.0764    -3.1583 H       
@<TRIPOS>BOND
   1    1    2 ar
   2    1    7 1
   3    1    6 ar
   4    2    3 ar
   5    2   28 1
   6    3    4 ar
   7    3   29 1
   8    4    5 ar
   9    4   30 1
  10    5    6 ar
  11    5   11 1
  12    6   31 1
  13    7    8 2
  14    7    9 2
  15    7   10 1
  16   10   25 1
  17   10   32 1
  18   10   33 1
  19   11   12 2
  20   11   13 am
  21   13   14 1
  22   13   34 1
  23   14   15 1
  24   14   35 1
  25   14   36 1
  26   15   16 ar
  27   15   20 ar
  28   16   17 ar
  29   16   37 1
  30   17   18 ar
  31   17   38 1
  32   18   19 ar
  33   18   39 1
  34   19   20 ar
  35   19   21 ar
  36   20   24 ar
  37   21   22 ar
  38   21   40 1
  39   22   23 ar
  40   22   41 1
  41   23   24 ar
  42   23   42 1
  43   24   43 1
  44   25   26 2
  45   25   27 1
  46   27   44 1

#	End of record

