#	Name: ASD01001017
#	Creating user name:	WinNT
#	Creation time:	15. 06. 2019 18:54

#	Modifying user name:	WinNT
#	Modification time:	15. 06. 2019 18:54

#	Program:	/corina/corina34_cracker 3.40 0067  02.08.2006

@<TRIPOS>MOLECULE
ASD01001017
  60   63    0    0    0
SMALL
NO_CHARGES


@<TRIPOS>ATOM
   1 C1             1.4552     0.8606     2.1946 C.ar    
   2 C2             1.6455    -0.4138     1.6940 C.ar    
   3 C3             0.6329     1.7494     1.5278 C.ar    
   4 C4             1.0134    -0.7994     0.5267 C.ar    
   5 C5             0.0007     1.3638     0.3605 C.ar    
   6 C6             0.1906     0.0893    -0.1398 C.ar    
   7 C7             1.2216    -2.1884    -0.0196 C.3     
   8 C8             0.6504    -2.2716    -1.4116 C.ar    
   9 C9             2.6964    -2.4954    -0.0626 C.ar    
  10 S10            0.3846    -3.3907     1.0503 S.3     
  11 C11            1.0703    -1.3845    -2.3852 C.ar    
  12 C12           -0.2893    -3.2385    -1.7165 C.ar    
  13 C13            3.1322    -3.8019     0.0667 C.ar    
  14 C14            3.6088    -1.4703    -0.2368 C.ar    
  15 C15            0.5463    -1.4608    -3.6621 C.ar    
  16 C16           -0.8132    -3.3148    -2.9934 C.ar    
  17 C17            4.4815    -4.0890     0.0285 C.ar    
  18 C18            4.9605    -1.7454    -0.2769 C.ar    
  19 C19           -0.3972    -2.4244    -3.9656 C.ar    
  20 C20            5.4059    -3.0594    -0.1411 C.ar    
  21 C21           -1.3117    -2.7531     1.1315 C.3     
  22 C22           -2.1287    -3.6004     2.1090 C.3     
  23 N23           -1.5882    -3.4408     3.4656 N.3     
  24 C24            6.8569    -3.3615    -0.1834 C.ar    
  25 C25            7.2990    -4.6777    -0.0471 C.ar    
  26 C26            8.6458    -4.9594    -0.0857 C.ar    
  27 C27            9.5704    -3.9263    -0.2620 C.ar    
  28 C28            9.1261    -2.6083    -0.3989 C.ar    
  29 C29            7.7785    -2.3300    -0.3651 C.ar    
  30 C30           -3.5663    -3.1492     2.0848 C.2     
  31 O31           -3.9849    -2.4187     2.9515 O.2     
  32 O32           -4.3818    -3.5588     1.1005 O.3     
  33 C33           11.0148    -4.2269    -0.3031 C.2     
  34 O34           11.4005    -5.3727    -0.1837 O.2     
  35 O35           11.9057    -3.2305    -0.4731 O.3     
  36 H36            1.9455     1.1603     3.1090 H       
  37 H37            2.2883    -1.1081     2.2147 H       
  38 H38            0.4839     2.7450     1.9191 H       
  39 H39           -0.6423     2.0580    -0.1600 H       
  40 H40           -0.3027    -0.2117    -1.0522 H       
  41 H41            1.8074    -0.6317    -2.1480 H       
  42 H42           -0.6138    -3.9346    -0.9572 H       
  43 H43            2.4151    -4.5988     0.1981 H       
  44 H44            3.2625    -0.4527    -0.3419 H       
  45 H45            0.8738    -0.7673    -4.4225 H       
  46 H46           -1.5471    -4.0705    -3.2317 H       
  47 H47            4.8206    -5.1093     0.1303 H       
  48 H48            5.6718    -0.9443    -0.4134 H       
  49 H49           -0.8069    -2.4838    -4.9631 H       
  50 H50           -1.2949    -1.7184     1.4737 H       
  51 H51           -1.7657    -2.8012     0.1417 H       
  52 H52           -2.0720    -4.6488     1.8164 H       
  53 H53           -1.6296    -2.4767     3.7603 H       
  54 H54           -2.0696    -4.0397     4.1195 H       
  55 H55            6.5843    -5.4758     0.0891 H       
  56 H56            8.9878    -5.9783     0.0205 H       
  57 H57            9.8396    -1.8090    -0.5348 H       
  58 H58            7.4349    -1.3116    -0.4709 H       
  59 H59           -5.2955    -3.2430     1.1273 H       
  60 H60           12.8407    -3.4763    -0.4934 H       
@<TRIPOS>BOND
   1    1    2 ar
   2    1    3 ar
   3    1   36 1
   4    2    4 ar
   5    2   37 1
   6    3    5 ar
   7    3   38 1
   8    4    6 ar
   9    4    7 1
  10    5    6 ar
  11    5   39 1
  12    6   40 1
  13    7    8 1
  14    7    9 1
  15    7   10 1
  16    8   11 ar
  17    8   12 ar
  18    9   13 ar
  19    9   14 ar
  20   10   21 1
  21   11   15 ar
  22   11   41 1
  23   12   16 ar
  24   12   42 1
  25   13   17 ar
  26   13   43 1
  27   14   18 ar
  28   14   44 1
  29   15   19 ar
  30   15   45 1
  31   16   19 ar
  32   16   46 1
  33   17   20 ar
  34   17   47 1
  35   18   20 ar
  36   18   48 1
  37   19   49 1
  38   20   24 1
  39   21   22 1
  40   21   50 1
  41   21   51 1
  42   22   23 1
  43   22   30 1
  44   22   52 1
  45   23   53 1
  46   23   54 1
  47   24   25 ar
  48   24   29 ar
  49   25   26 ar
  50   25   55 1
  51   26   27 ar
  52   26   56 1
  53   27   28 ar
  54   27   33 1
  55   28   29 ar
  56   28   57 1
  57   29   58 1
  58   30   31 2
  59   30   32 1
  60   32   59 1
  61   33   34 2
  62   33   35 1
  63   35   60 1

#	End of record

