#	Name: ASD01914094
#	Creating user name:	WinNT
#	Creation time:	15. 06. 2019 20:02

#	Modifying user name:	WinNT
#	Modification time:	15. 06. 2019 20:02

#	Program:	/corina/corina34_cracker 3.40 0067  02.08.2006

@<TRIPOS>MOLECULE
ASD01914094
  50   52    0    0    0
SMALL
NO_CHARGES


@<TRIPOS>ATOM
   1 C1            -0.0167     1.3808     0.0096 C.ar    
   2 C2             0.0021    -0.0041     0.0020 C.ar    
   3 C3             2.3857     0.0990    -0.0201 C.ar    
   4 C4             2.2848     1.4825    -0.0118 C.ar    
   5 O5             3.6041    -0.5029    -0.0354 O.3     
   6 C6             1.2225    -0.6638    -0.0132 C.ar    
   7 N7             1.1058     2.0721     0.0026 N.ar    
   8 F8            -1.1536    -0.7038     0.0097 F       
   9 C9             4.7497     0.3513    -0.0422 C.3     
  10 C10            6.0016    -0.4874    -0.0591 C.ar    
  11 N11            7.1799     0.1059    -0.0677 N.ar    
  12 C12            8.3040    -0.5802    -0.0825 C.ar    
  13 C13            8.2837    -1.9752    -0.0902 C.ar    
  14 C14            7.0480    -2.6337    -0.0814 C.ar    
  15 C15            5.8965    -1.8669    -0.0598 C.ar    
  16 C16            9.5456    -2.7452    -0.1077 C.2     
  17 N17           10.7288    -2.0998    -0.1165 N.am    
  18 C18           11.9793    -2.8628    -0.1339 C.3     
  19 C19           13.0891    -2.0090    -0.7504 C.3     
  20 O20            9.5161    -3.9604    -0.1143 O.2     
  21 C21           12.3642    -3.2439     1.2970 C.3     
  22 C22           14.3951    -2.8059    -0.7686 C.3     
  23 C23           15.5050    -1.9520    -1.3851 C.3     
  24 C24           15.1201    -1.5710    -2.8160 C.3     
  25 C25           13.8141    -0.7741    -2.7978 C.3     
  26 C26           12.7042    -1.6279    -2.1813 C.3     
  27 H27           -0.9631     1.9010     0.0169 H       
  28 H28            3.1823     2.0833    -0.0168 H       
  29 H29            1.2683    -1.7428    -0.0190 H       
  30 H30            4.7250     0.9851    -0.9287 H       
  31 H31            4.7426     0.9757     0.8512 H       
  32 H32            9.2496    -0.0585    -0.0891 H       
  33 H33            6.9951    -3.7124    -0.0870 H       
  34 H34            4.9258    -2.3402    -0.0525 H       
  35 H35           10.7523    -1.1301    -0.1113 H       
  36 H36           11.8447    -3.7673    -0.7271 H       
  37 H37           13.2237    -1.1045    -0.1572 H       
  38 H38           11.5735    -3.8522     1.7362 H       
  39 H39           13.2946    -3.8116     1.2840 H       
  40 H40           12.4987    -2.3394     1.8902 H       
  41 H41           14.6693    -3.0774     0.2508 H       
  42 H42           14.2606    -3.7104    -1.3618 H       
  43 H43           15.6395    -1.0475    -0.7919 H       
  44 H44           16.4354    -2.5197    -1.3980 H       
  45 H45           15.9108    -0.9627    -3.2552 H       
  46 H46           14.9856    -2.4755    -3.4092 H       
  47 H47           13.9486     0.1304    -2.2046 H       
  48 H48           13.5399    -0.5026    -3.8172 H       
  49 H49           12.5697    -2.5324    -2.7745 H       
  50 H50           11.7738    -1.0602    -2.1683 H       
@<TRIPOS>BOND
   1    1    2 ar
   2    1    7 ar
   3    1   27 1
   4    2    6 ar
   5    2    8 1
   6    3    4 ar
   7    3    5 1
   8    3    6 ar
   9    4    7 ar
  10    4   28 1
  11    5    9 1
  12    6   29 1
  13    9   10 1
  14    9   30 1
  15    9   31 1
  16   10   11 ar
  17   10   15 ar
  18   11   12 ar
  19   12   13 ar
  20   12   32 1
  21   13   14 ar
  22   13   16 1
  23   14   15 ar
  24   14   33 1
  25   15   34 1
  26   16   17 am
  27   16   20 2
  28   17   18 1
  29   17   35 1
  30   18   19 1
  31   18   21 1
  32   18   36 1
  33   19   22 1
  34   19   26 1
  35   19   37 1
  36   21   38 1
  37   21   39 1
  38   21   40 1
  39   22   23 1
  40   22   41 1
  41   22   42 1
  42   23   24 1
  43   23   43 1
  44   23   44 1
  45   24   25 1
  46   24   45 1
  47   24   46 1
  48   25   26 1
  49   25   47 1
  50   25   48 1
  51   26   49 1
  52   26   50 1

#	End of record

