#	Name: ASD02560206
#	Creating user name:	WinNT
#	Creation time:	15. 06. 2019 20:24

#	Modifying user name:	WinNT
#	Modification time:	15. 06. 2019 20:24

#	Program:	/corina/corina34_cracker 3.40 0067  02.08.2006

@<TRIPOS>MOLECULE
ASD02560206
  75   80    0    0    0
SMALL
NO_CHARGES


@<TRIPOS>ATOM
   1 Br1            1.7031     2.4558    -1.5620 Br      
   2 N2             0.0402     1.3272     0.4365 N.2     
   3 N3            -0.1973     0.1262     0.2748 N.2     
   4 C4             1.4594     1.6243     0.2027 C.3     
   5 N5             2.1353     0.3030     0.2496 N.3     
   6 C6             1.0174    -0.6102    -0.0980 C.3     
   7 S7             1.1400    -2.1496     0.8537 S.3     
   8 C8             1.0482    -1.5755     2.5720 C.3     
   9 C9             1.1380    -2.7578     3.5021 C.2     
  10 O10            1.2526    -3.8774     3.0504 O.2     
  11 N11            1.0909    -2.5709     4.8360 N.am    
  12 C12            3.1535     0.2292    -0.6984 C.ar    
  13 C13            1.1068    -3.6696     5.6952 C.ar    
  14 C14            0.4454    -3.6043     6.9189 C.ar    
  15 C15            0.4595    -4.6878     7.7693 C.ar    
  16 C16            1.1386    -5.8531     7.4024 C.ar    
  17 C17            1.8009    -5.9146     6.1737 C.ar    
  18 C18            1.7783    -4.8299     5.3255 C.ar    
  19 Cl19          -0.3970    -2.1560     7.3733 Cl      
  20 C20            1.1563    -7.0160     8.3111 C.2     
  21 C21            4.2380     1.1313    -0.6504 C.ar    
  22 C22            3.1139    -0.7293    -1.6888 C.ar    
  23 C23            4.1258    -0.8114    -2.6403 C.ar    
  24 C24            5.1809     0.0493    -2.6206 C.ar    
  25 C25            5.2620     1.0375    -1.6250 C.ar    
  26 C26            4.3207     2.1188     0.3436 C.ar    
  27 C27            6.3391     1.9396    -1.5805 C.ar    
  28 C28            6.3861     2.8849    -0.6025 C.ar    
  29 C29            5.3813     2.9725     0.3591 C.ar    
  30 C30            6.2638    -0.0617    -3.6627 C.3     
  31 N31            1.8115    -8.1389     7.9559 N.am    
  32 O32            0.5798    -6.9610     9.3802 O.2     
  33 C33            7.0378    -1.3792    -3.7397 C.3     
  34 C34            6.0255    -1.0218    -4.8298 C.3     
  35 C35            1.8291    -9.2932     8.8578 C.3     
  36 C36            2.9443    -9.1318     9.8585 C.2     
  37 C37            2.0528   -10.5710     8.0466 C.3     
  38 O38            3.6518    -8.1530     9.8220 O.2     
  39 O39            3.1517   -10.0754    10.7904 O.3     
  40 C40            0.8767   -10.7977     7.1320 C.ar    
  41 C41            0.8809   -10.2629     5.8569 C.ar    
  42 C42           -0.1960   -10.4692     5.0166 C.ar    
  43 C43           -1.2822   -11.2137     5.4530 C.ar    
  44 C44           -1.2840   -11.7492     6.7328 C.ar    
  45 C45           -0.2022   -11.5448     7.5673 C.ar    
  46 O46           -2.3430   -11.4178     4.6283 O.3     
  47 H47            1.8450     2.2759     0.9868 H       
  48 H48            1.0193    -0.8227    -1.1671 H       
  49 H49            1.8741    -0.8927     2.7715 H       
  50 H50            0.1023    -1.0582     2.7321 H       
  51 H51            1.0460    -1.6723     5.1986 H       
  52 H52           -0.0532    -4.6369     8.7185 H       
  53 H53            2.3265    -6.8136     5.8875 H       
  54 H54            2.2900    -4.8774     4.3756 H       
  55 H55            2.2882    -1.4245    -1.7262 H       
  56 H56            4.0737    -1.5704    -3.4068 H       
  57 H57            3.5467     2.2013     1.0923 H       
  58 H58            7.1256     1.8827    -2.3185 H       
  59 H59            7.2147     3.5768    -0.5706 H       
  60 H60            5.4418     3.7321     1.1244 H       
  61 H61            6.8123     0.8571    -3.8704 H       
  62 H62            2.2714    -8.1828     7.1029 H       
  63 H63            8.0954    -1.3273    -3.9984 H       
  64 H64            6.7637    -2.1658    -3.0366 H       
  65 H65            5.0854    -1.5733    -4.8439 H       
  66 H66            6.4170    -0.7348    -5.8057 H       
  67 H67            0.8763    -9.3584     9.3831 H       
  68 H68            2.9610   -10.4698     7.4524 H       
  69 H69            2.1546   -11.4185     8.7244 H       
  70 H70            3.8789    -9.9277    11.4104 H       
  71 H71            1.7266    -9.6831     5.5178 H       
  72 H72           -0.1924   -10.0510     4.0208 H       
  73 H73           -2.1284   -12.3292     7.0748 H       
  74 H74           -0.2031   -11.9614     8.5637 H       
  75 H75           -2.2694   -12.2123     4.0821 H       
@<TRIPOS>BOND
   1    1    4 1
   2    2    3 2
   3    2    4 1
   4    3    6 1
   5    4    5 1
   6    4   47 1
   7    5    6 1
   8    5   12 1
   9    6    7 1
  10    6   48 1
  11    7    8 1
  12    8    9 1
  13    8   49 1
  14    8   50 1
  15    9   10 2
  16    9   11 am
  17   11   13 1
  18   11   51 1
  19   12   21 ar
  20   12   22 ar
  21   13   14 ar
  22   13   18 ar
  23   14   15 ar
  24   14   19 1
  25   15   16 ar
  26   15   52 1
  27   16   17 ar
  28   16   20 1
  29   17   18 ar
  30   17   53 1
  31   18   54 1
  32   20   31 am
  33   20   32 2
  34   21   25 ar
  35   21   26 ar
  36   22   23 ar
  37   22   55 1
  38   23   24 ar
  39   23   56 1
  40   24   25 ar
  41   24   30 1
  42   25   27 ar
  43   26   29 ar
  44   26   57 1
  45   27   28 ar
  46   27   58 1
  47   28   29 ar
  48   28   59 1
  49   29   60 1
  50   30   33 1
  51   30   34 1
  52   30   61 1
  53   31   35 1
  54   31   62 1
  55   33   34 1
  56   33   63 1
  57   33   64 1
  58   34   65 1
  59   34   66 1
  60   35   36 1
  61   35   37 1
  62   35   67 1
  63   36   38 2
  64   36   39 1
  65   37   40 1
  66   37   68 1
  67   37   69 1
  68   39   70 1
  69   40   41 ar
  70   40   45 ar
  71   41   42 ar
  72   41   71 1
  73   42   43 ar
  74   42   72 1
  75   43   44 ar
  76   43   46 1
  77   44   45 ar
  78   44   73 1
  79   45   74 1
  80   46   75 1

#	End of record

