#	Name: ASD08178180
#	Creating user name:	WinNT
#	Creation time:	15. 06. 2019 21:18

#	Modifying user name:	WinNT
#	Modification time:	15. 06. 2019 21:18

#	Program:	/corina/corina34_cracker 3.40 0067  02.08.2006

@<TRIPOS>MOLECULE
ASD08178180
  68   72    0    0    0
SMALL
NO_CHARGES


@<TRIPOS>ATOM
   1 C1            -0.0191     1.5027     0.0207 C.ar    
   2 C2             0.0010    -0.0042     0.0166 C.3     
   3 C3            -0.8034    -0.5283     1.2078 C.3     
   4 C4            -0.7830    -2.0581     1.2036 C.3     
   5 C5            -1.5874    -2.5822     2.3949 C.3     
   6 C6            -1.5673    -4.0891     2.3907 C.2     
   7 N7            -0.6926    -4.8430     2.9773 N.2     
   8 N8            -0.8493    -6.0898     2.8558 N.2     
   9 C9            -1.8644    -6.5050     2.1598 C.2     
  10 S10           -2.7350    -5.1430     1.5925 S.3     
  11 N11           -2.1931    -7.8348     1.9197 N.am    
  12 C12           -1.4281    -8.8206     2.4289 C.2     
  13 C13           -1.7844   -10.2616     2.1687 C.3     
  14 O14           -0.4530    -8.5481     3.0966 O.2     
  15 C15           -0.7780   -11.1576     2.8435 C.ar    
  16 C16            1.1728     2.2124     0.0064 C.ar    
  17 C17            1.1067     3.5974     0.0109 C.ar    
  18 C18           -0.1542     4.1903     0.0295 C.ar    
  19 N19           -1.2376     3.4283     0.0422 N.ar    
  20 N20           -1.1697     2.1466     0.0324 N.ar    
  21 N21           -0.2749     5.5795     0.0353 N.am    
  22 C22           -0.9911   -11.5802     4.1425 C.ar    
  23 C23           -0.0697   -12.4025     4.7650 C.ar    
  24 C24            1.0664   -12.8039     4.0903 C.ar    
  25 C25            1.2831   -12.3812     2.7857 C.ar    
  26 C26            0.3539   -11.5605     2.1616 C.ar    
  27 C27           -1.4926     6.1505    -0.0517 C.2     
  28 O28           -2.4744     5.4610    -0.2290 O.2     
  29 C29           -1.6342     7.6458     0.0713 C.3     
  30 C30           -3.0867     8.0253    -0.0606 C.ar    
  31 C31           -3.8892     8.0891     1.0632 C.ar    
  32 C32           -5.2215     8.4372     0.9422 C.ar    
  33 C33           -5.7512     8.7220    -0.3024 C.ar    
  34 C34           -4.9485     8.6592    -1.4261 C.ar    
  35 C35           -3.6151     8.3153    -1.3046 C.ar    
  36 N36            2.4361   -12.7867     2.0981 N.pl3   
  37 C37            3.4320   -13.5950     2.5826 C.2     
  38 C38            4.3406   -13.7272     1.5977 C.2     
  39 N39            3.9165   -13.0213     0.5389 N.2     
  40 C40            2.7743   -12.4579     0.8243 C.2     
  41 H41           -0.4409    -0.3709    -0.9099 H       
  42 H42            1.0307    -0.3540     0.0913 H       
  43 H43           -0.3615    -0.1615     2.1343 H       
  44 H44           -1.8331    -0.1785     1.1331 H       
  45 H45           -1.2249    -2.4249     0.2772 H       
  46 H46            0.2467    -2.4079     1.2784 H       
  47 H47           -1.1455    -2.2155     3.3213 H       
  48 H48           -2.6171    -2.2324     2.3201 H       
  49 H49           -2.9730    -8.0528     1.3857 H       
  50 H50           -2.7782   -10.4676     2.5661 H       
  51 H51           -1.7761   -10.4498     1.0951 H       
  52 H52            2.1241     1.7012    -0.0074 H       
  53 H53            2.0044     4.1978     0.0007 H       
  54 H54            0.5176     6.1349     0.1018 H       
  55 H55           -1.8787   -11.2673     4.6723 H       
  56 H56           -0.2387   -12.7308     5.7800 H       
  57 H57            1.7858   -13.4458     4.5770 H       
  58 H58            0.5197   -11.2303     1.1467 H       
  59 H59           -1.2615     7.9672     1.0438 H       
  60 H60           -1.0588     8.1313    -0.7169 H       
  61 H61           -3.4753     7.8665     2.0356 H       
  62 H62           -5.8487     8.4863     1.8201 H       
  63 H63           -6.7923     8.9933    -0.3970 H       
  64 H64           -5.3624     8.8814    -2.3985 H       
  65 H65           -2.9879     8.2662    -2.1825 H       
  66 H66            3.4788   -14.0399     3.5655 H       
  67 H67            5.2533   -14.3021     1.6510 H       
  68 H68            2.1981   -11.8296     0.1613 H       
@<TRIPOS>BOND
   1    1    2 1
   2    1   16 ar
   3    1   20 ar
   4    2    3 1
   5    2   41 1
   6    2   42 1
   7    3    4 1
   8    3   43 1
   9    3   44 1
  10    4    5 1
  11    4   45 1
  12    4   46 1
  13    5    6 1
  14    5   47 1
  15    5   48 1
  16    6    7 2
  17    6   10 1
  18    7    8 1
  19    8    9 2
  20    9   10 1
  21    9   11 1
  22   11   12 am
  23   11   49 1
  24   12   13 1
  25   12   14 2
  26   13   15 1
  27   13   50 1
  28   13   51 1
  29   15   22 ar
  30   15   26 ar
  31   16   17 ar
  32   16   52 1
  33   17   18 ar
  34   17   53 1
  35   18   19 ar
  36   18   21 1
  37   19   20 ar
  38   21   27 am
  39   21   54 1
  40   22   23 ar
  41   22   55 1
  42   23   24 ar
  43   23   56 1
  44   24   25 ar
  45   24   57 1
  46   25   26 ar
  47   25   36 1
  48   26   58 1
  49   27   28 2
  50   27   29 1
  51   29   30 1
  52   29   59 1
  53   29   60 1
  54   30   31 ar
  55   30   35 ar
  56   31   32 ar
  57   31   61 1
  58   32   33 ar
  59   32   62 1
  60   33   34 ar
  61   33   63 1
  62   34   35 ar
  63   34   64 1
  64   35   65 1
  65   36   37 1
  66   36   40 1
  67   37   38 2
  68   37   66 1
  69   38   39 1
  70   38   67 1
  71   39   40 2
  72   40   68 1

#	End of record

