#	Name: ASD01411104
#	Creating user name:	WinNT
#	Creation time:	15. 06. 2019 19:19

#	Modifying user name:	WinNT
#	Modification time:	15. 06. 2019 19:19

#	Program:	/corina/corina34_cracker 3.40 0067  02.08.2006

@<TRIPOS>MOLECULE
ASD01411104
  50   52    0    0    0
SMALL
NO_CHARGES


@<TRIPOS>ATOM
   1 C1            -0.1804     1.6237     0.3407 C.3     
   2 C2            -0.2234     0.0938     0.2170 C.3     
   3 O3             1.1743     2.0717     0.2422 O.3     
   4 C4             0.8312    -0.4736     1.1337 C.2     
   5 C5             1.9878     1.7476     1.3766 C.3     
   6 C6             1.8337     0.2721     1.6613 C.2     
   7 C7             1.0013    -1.8193     1.6181 C.ar    
   8 C8             1.5281     2.5583     2.5901 C.3     
   9 N9             2.6269    -0.5123     2.4478 N.pl3   
  10 C10            0.2768    -3.0133     1.4120 C.ar    
  11 C11            2.1526    -1.7945     2.4477 C.ar    
  12 C12            0.7544    -4.1555     2.0655 C.ar    
  13 C13            2.5984    -2.9512     3.0816 C.ar    
  14 C14            1.8756    -4.1156     2.8692 C.ar    
  15 C15            2.3817     2.1873     3.8044 C.3     
  16 C16            3.4526     2.0647     1.0689 C.3     
  17 N17            3.6135     3.5106     0.8967 N.am    
  18 C18            4.7996     4.0930     1.1618 C.2     
  19 O19            5.7338     3.4201     1.5431 O.2     
  20 C20            4.9651     5.5804     0.9846 C.3     
  21 C21           -0.8867    -3.0539     0.5782 C.1     
  22 N22           -1.8097    -3.0861    -0.0833 N.1     
  23 C23            3.8194    -2.9384     3.9650 C.3     
  24 C24            1.9905     3.0695     4.9916 C.3     
  25 C25            3.8640     1.3591    -0.1975 C.2     
  26 O26            4.2518     1.9984    -1.1466 O.2     
  27 O27            3.7996     0.0204    -0.2712 O.3     
  28 H28           -0.7698     2.0698    -0.4604 H       
  29 H29           -0.5927     1.9221     1.3046 H       
  30 H30           -1.2061    -0.2729     0.5135 H       
  31 H31           -0.0144    -0.1992    -0.8118 H       
  32 H32            1.6387     3.6220     2.3795 H       
  33 H33            0.4818     2.3363     2.8001 H       
  34 H34            3.4091    -0.2063     2.9331 H       
  35 H35            0.2319    -5.0919     1.9376 H       
  36 H36            2.2023    -5.0253     3.3509 H       
  37 H37            2.2156     1.1406     4.0592 H       
  38 H38            3.4348     2.3411     3.5689 H       
  39 H39            4.0789     1.7252     1.8939 H       
  40 H40            2.8663     4.0488     0.5918 H       
  41 H41            4.0258     6.0118     0.6387 H       
  42 H42            5.2428     6.0311     1.9374 H       
  43 H43            5.7464     5.7741     0.2497 H       
  44 H44            3.5235    -2.7175     4.9905 H       
  45 H45            4.3042    -3.9140     3.9288 H       
  46 H46            4.5134    -2.1745     3.6144 H       
  47 H47            0.9374     2.9156     5.2271 H       
  48 H48            2.5986     2.8052     5.8567 H       
  49 H49            2.1566     4.1162     4.7368 H       
  50 H50            4.0740    -0.3872    -1.1041 H       
@<TRIPOS>BOND
   1    1    2 1
   2    1    3 1
   3    1   28 1
   4    1   29 1
   5    2    4 1
   6    2   30 1
   7    2   31 1
   8    3    5 1
   9    4    6 2
  10    4    7 1
  11    5    8 1
  12    5   16 1
  13    5    6 1
  14    6    9 1
  15    7   10 ar
  16    7   11 ar
  17    8   15 1
  18    8   32 1
  19    8   33 1
  20    9   11 1
  21    9   34 1
  22   10   12 ar
  23   10   21 1
  24   11   13 ar
  25   12   14 ar
  26   12   35 1
  27   13   14 ar
  28   13   23 1
  29   14   36 1
  30   15   24 1
  31   15   37 1
  32   15   38 1
  33   16   17 1
  34   16   25 1
  35   16   39 1
  36   17   18 am
  37   17   40 1
  38   18   19 2
  39   18   20 1
  40   20   41 1
  41   20   42 1
  42   20   43 1
  43   21   22 3
  44   23   44 1
  45   23   45 1
  46   23   46 1
  47   24   47 1
  48   24   48 1
  49   24   49 1
  50   25   26 2
  51   25   27 1
  52   27   50 1

#	End of record

