#	Name: ASD04590017
#	Creating user name:	WinNT
#	Creation time:	15. 06. 2019 20:50

#	Modifying user name:	WinNT
#	Modification time:	15. 06. 2019 20:50

#	Program:	/corina/corina34_cracker 3.40 0067  02.08.2006

@<TRIPOS>MOLECULE
ASD04590017
  44   47    0    0    0
SMALL
NO_CHARGES


@<TRIPOS>ATOM
   1 C1            -0.0166     1.3730     0.0096 C.ar    
   2 C2             0.0021    -0.0041     0.0020 C.ar    
   3 C3             1.1801     2.0882     0.0020 C.ar    
   4 C4             2.4174     1.4094    -0.0085 C.ar    
   5 C5             2.4047     0.0141    -0.0355 C.ar    
   6 C6             1.2128    -0.6770    -0.0222 C.ar    
   7 N7             3.5671     2.1792     0.0301 N.3     
   8 C8             4.8431     1.4639    -0.1221 C.3     
   9 C9             4.7349     0.1761     0.6674 C.3     
  10 C10            3.7061    -0.7013    -0.1020 C.3     
  11 C11            5.9534    -0.7467     0.6901 C.3     
  12 C12            5.3256    -2.1305     1.0243 C.3     
  13 C13            3.8443    -2.0581     0.5668 C.3     
  14 Cl14           2.7427    -2.1705     1.9897 Cl      
  15 S15            6.1932    -3.4429     0.1212 S.3     
  16 C16            5.4440    -4.9124     0.7408 C.ar    
  17 C17            5.8561    -6.1545     0.2737 C.ar    
  18 C18            5.2665    -7.3041     0.7615 C.ar    
  19 C19            4.2672    -7.2202     1.7136 C.ar    
  20 C20            3.8544    -5.9855     2.1809 C.ar    
  21 C21            4.4432    -4.8322     1.7020 C.ar    
  22 C22            1.1529     3.5609     0.0045 C.2     
  23 O23            2.1939     4.1878    -0.0021 O.2     
  24 O24           -0.0265     4.2130     0.0140 O.3     
  25 N25            6.9253    -6.2453    -0.7457 N.pl3   
  26 O26            7.2860    -7.3345    -1.1545 O.2     
  27 O27            7.4445    -5.2309    -1.1757 O.2     
  28 H28           -0.9595     1.8995     0.0169 H       
  29 H29           -0.9249    -0.5580     0.0153 H       
  30 H30            1.2225    -1.7570    -0.0303 H       
  31 H31            3.5065     2.9521    -0.6158 H       
  32 H32            5.0195     1.2401    -1.1742 H       
  33 H33            5.6581     2.0720     0.2702 H       
  34 H34            4.3815     0.3802     1.6781 H       
  35 H35            4.0169    -0.7886    -1.1431 H       
  36 H36            6.4405    -0.7683    -0.2848 H       
  37 H37            6.6546    -0.4424     1.4673 H       
  38 H38            5.3775    -2.3161     2.0971 H       
  39 H39            3.6281    -2.8550    -0.1447 H       
  40 H40            5.5861    -8.2699     0.3987 H       
  41 H41            3.8077    -8.1209     2.0931 H       
  42 H42            3.0736    -5.9237     2.9245 H       
  43 H43            4.1206    -3.8685     2.0675 H       
  44 H44            0.0063     5.1795     0.0152 H       
@<TRIPOS>BOND
   1    1    2 ar
   2    1    3 ar
   3    1   28 1
   4    2    6 ar
   5    2   29 1
   6    3    4 ar
   7    3   22 1
   8    4    5 ar
   9    4    7 1
  10    5    6 ar
  11    5   10 1
  12    6   30 1
  13    7    8 1
  14    7   31 1
  15    8    9 1
  16    8   32 1
  17    8   33 1
  18    9   10 1
  19    9   11 1
  20    9   34 1
  21   10   13 1
  22   10   35 1
  23   11   12 1
  24   11   36 1
  25   11   37 1
  26   12   13 1
  27   12   15 1
  28   12   38 1
  29   13   14 1
  30   13   39 1
  31   15   16 1
  32   16   17 ar
  33   16   21 ar
  34   17   18 ar
  35   17   25 1
  36   18   19 ar
  37   18   40 1
  38   19   20 ar
  39   19   41 1
  40   20   21 ar
  41   20   42 1
  42   21   43 1
  43   22   23 2
  44   22   24 1
  45   24   44 1
  46   25   26 2
  47   25   27 2

#	End of record

