#	Name: ASD04882104
#	Creating user name:	WinNT
#	Creation time:	15. 06. 2019 20:54

#	Modifying user name:	WinNT
#	Modification time:	15. 06. 2019 20:54

#	Program:	/corina/corina34_cracker 3.40 0067  02.08.2006

@<TRIPOS>MOLECULE
ASD04882104
  73   77    0    0    0
SMALL
NO_CHARGES


@<TRIPOS>ATOM
   1 C1             2.1861     1.8462    -0.7993 C.ar    
   2 C2             2.2276     0.4690    -0.7087 C.ar    
   3 C3             1.0491    -0.2516    -0.5595 C.ar    
   4 C4            -0.1672     0.4165    -0.5020 C.ar    
   5 C5            -0.2015     1.7943    -0.5932 C.ar    
   6 C6             0.9732     2.5083    -0.7417 C.ar    
   7 N7             1.0874    -1.6448    -0.4680 N.3     
   8 C8             0.6798    -2.0962     0.8698 C.3     
   9 C9             2.4210    -2.1586    -0.8104 C.3     
  10 C10            2.3997    -3.6886    -0.7755 C.3     
  11 N11            1.9921    -4.1399     0.5623 N.3     
  12 C12            0.6585    -3.6261     0.9046 C.3     
  13 C13            2.0303    -5.5288     0.6535 C.ar    
  14 C14            1.2427    -6.3017    -0.1915 C.ar    
  15 C15            2.8651    -6.1442     1.5911 C.ar    
  16 C16            2.9028    -7.5225     1.6813 C.ar    
  17 C17            2.1053    -8.2974     0.8340 C.ar    
  18 C18            1.2774    -7.6761    -0.1047 C.ar    
  19 N19            3.6631    -5.3641     2.4379 N.am    
  20 C20            3.9233    -5.7821     3.6925 C.2     
  21 C21            4.6659    -4.9131     4.6180 C.2     
  22 O22            3.5438    -6.8781     4.0595 O.2     
  23 C23            2.1425    -9.7694     0.9265 C.2     
  24 O24            2.8672   -10.3093     1.7400 O.2     
  25 N25            1.3733   -10.5156     0.1092 N.am    
  26 S26            5.3116    -3.2932     4.3112 S.3     
  27 C27            1.4102   -11.9772     0.2010 C.3     
  28 C28            0.4514   -12.5774    -0.8293 C.3     
  29 C29            0.4901   -14.1039    -0.7334 C.3     
  30 N30           -0.4280   -14.6785    -1.7199 N.am    
  31 C31           -0.0835   -15.0026    -2.9781 C.2     
  32 C32           -1.8405   -14.9800    -1.4595 C.3     
  33 C33           -2.4911   -15.1405    -2.8514 C.3     
  34 C34           -1.2797   -15.5596    -3.7180 C.3     
  35 O35            1.0250   -14.8676    -3.4515 O.2     
  36 N36            5.9275    -3.0791     5.7318 N.2     
  37 C37            5.7134    -4.1167     6.4775 C.2     
  38 C38            5.0165    -5.1701     5.9320 C.2     
  39 C39           -1.4480    -0.3610    -0.3407 C.3     
  40 H40            3.1021     2.4073    -0.9108 H       
  41 H41            3.1750    -0.0475    -0.7541 H       
  42 H42           -1.1469     2.3144    -0.5486 H       
  43 H43            0.9435     3.5856    -0.8124 H       
  44 H44            1.3885    -1.7254     1.6103 H       
  45 H45           -0.3156    -1.7134     1.0951 H       
  46 H46            2.6950    -1.8214    -1.8100 H       
  47 H47            3.1495    -1.7886    -0.0889 H       
  48 H48            1.6910    -4.0594    -1.5160 H       
  49 H49            3.3951    -4.0713    -1.0008 H       
  50 H50            0.3845    -3.9634     1.9043 H       
  51 H51           -0.0700    -3.9962     0.1832 H       
  52 H52            0.6018    -5.8237    -0.9175 H       
  53 H53            3.5472    -8.0001     2.4046 H       
  54 H54            0.6606    -8.2738    -0.7595 H       
  55 H55            4.0283    -4.5231     2.1214 H       
  56 H56            0.7952   -10.0848    -0.5398 H       
  57 H57            2.4229   -12.3282     0.0026 H       
  58 H58            1.1082   -12.2862     1.2017 H       
  59 H59           -0.5612   -12.2264    -0.6308 H       
  60 H60            0.7535   -12.2684    -1.8300 H       
  61 H61            1.5027   -14.4549    -0.9318 H       
  62 H62            0.1880   -14.4128     0.2673 H       
  63 H63           -1.9301   -15.9065    -0.8922 H       
  64 H64           -2.3079   -14.1581    -0.9171 H       
  65 H65           -3.2497   -15.9231    -2.8395 H       
  66 H66           -2.9125   -14.1962    -3.1962 H       
  67 H67           -1.3518   -15.1196    -4.7127 H       
  68 H68           -1.2153   -16.6457    -3.7840 H       
  69 H69            6.0675    -4.1520     7.4971 H       
  70 H70            4.7802    -6.0828     6.4587 H       
  71 H71           -1.6353    -0.5370     0.7186 H       
  72 H72           -2.2745     0.2082    -0.7661 H       
  73 H73           -1.3606    -1.3165    -0.8579 H       
@<TRIPOS>BOND
   1    1    2 ar
   2    1    6 ar
   3    1   40 1
   4    2    3 ar
   5    2   41 1
   6    3    4 ar
   7    3    7 1
   8    4    5 ar
   9    4   39 1
  10    5    6 ar
  11    5   42 1
  12    6   43 1
  13    7    8 1
  14    7    9 1
  15    8   12 1
  16    8   44 1
  17    8   45 1
  18    9   10 1
  19    9   46 1
  20    9   47 1
  21   10   11 1
  22   10   48 1
  23   10   49 1
  24   11   12 1
  25   11   13 1
  26   12   50 1
  27   12   51 1
  28   13   14 ar
  29   13   15 ar
  30   14   18 ar
  31   14   52 1
  32   15   16 ar
  33   15   19 1
  34   16   17 ar
  35   16   53 1
  36   17   18 ar
  37   17   23 1
  38   18   54 1
  39   19   20 am
  40   19   55 1
  41   20   21 1
  42   20   22 2
  43   21   26 1
  44   21   38 2
  45   23   24 2
  46   23   25 am
  47   25   27 1
  48   25   56 1
  49   26   36 1
  50   27   28 1
  51   27   57 1
  52   27   58 1
  53   28   29 1
  54   28   59 1
  55   28   60 1
  56   29   30 1
  57   29   61 1
  58   29   62 1
  59   30   31 am
  60   30   32 1
  61   31   35 2
  62   31   34 1
  63   32   33 1
  64   32   63 1
  65   32   64 1
  66   33   34 1
  67   33   65 1
  68   33   66 1
  69   34   67 1
  70   34   68 1
  71   36   37 2
  72   37   38 1
  73   37   69 1
  74   38   70 1
  75   39   71 1
  76   39   72 1
  77   39   73 1

#	End of record

