#	Name: ASD01810790
#	Creating user name:	WinNT
#	Creation time:	15. 06. 2019 19:25

#	Modifying user name:	WinNT
#	Modification time:	15. 06. 2019 19:25

#	Program:	/corina/corina34_cracker 3.40 0067  02.08.2006

@<TRIPOS>MOLECULE
ASD01810790
  22   21    0    0    0
SMALL
NO_CHARGES


@<TRIPOS>ATOM
   1 C1            -0.0184     1.5028     0.0103 C.2     
   2 C2             0.0021    -0.0041     0.0020 C.3     
   3 C3             1.4513    -0.4944    -0.0145 C.3     
   4 O4             1.0236     2.1234     0.0037 O.2     
   5 N5            -1.1946     2.1607     0.0195 N.am    
   6 N6            -1.2131     3.5266     0.0270 N.3     
   7 N7             1.4712    -1.9632    -0.0225 N.3     
   8 C8             2.8265    -2.4699    -0.2764 C.3     
   9 C9             0.9336    -2.5039     1.2331 C.3     
  10 H10           -0.4983    -0.3791     0.8948 H       
  11 H11           -0.5153    -0.3696    -0.8850 H       
  12 H12            1.9516    -0.1193    -0.9073 H       
  13 H13            1.9686    -0.1289     0.8726 H       
  14 H14           -2.0280     1.6644     0.0207 H       
  15 H15           -2.1599     3.8753     0.0334 H       
  16 H16           -0.6882     3.8910     0.8078 H       
  17 H17            3.4991    -2.1156     0.5048 H       
  18 H18            2.8127    -3.5599    -0.2770 H       
  19 H19            3.1733    -2.1104    -1.2451 H       
  20 H20           -0.0957    -2.1690     1.3617 H       
  21 H21            0.9599    -3.5931     1.2004 H       
  22 H22            1.5376    -2.1508     2.0689 H       
@<TRIPOS>BOND
   1    1    2 1
   2    1    4 2
   3    1    5 am
   4    2    3 1
   5    2   10 1
   6    2   11 1
   7    3    7 1
   8    3   12 1
   9    3   13 1
  10    5    6 1
  11    5   14 1
  12    6   15 1
  13    6   16 1
  14    7    8 1
  15    7    9 1
  16    8   17 1
  17    8   18 1
  18    8   19 1
  19    9   20 1
  20    9   21 1
  21    9   22 1

#	End of record

