#	Name: ASD01028551
#	Creating user name:	WinNT
#	Creation time:	15. 06. 2019 18:57

#	Modifying user name:	WinNT
#	Modification time:	15. 06. 2019 18:57

#	Program:	/corina/corina34_cracker 3.40 0067  02.08.2006

@<TRIPOS>MOLECULE
ASD01028551
  42   46    0    0    0
SMALL
NO_CHARGES


@<TRIPOS>ATOM
   1 N1            -0.0169     1.3921     0.0097 N.2     
   2 N2             0.0021    -0.0041     0.0020 N.pl3   
   3 C3             1.1072     2.0742     0.0026 C.2     
   4 C4             2.3534     1.4122    -0.0133 C.2     
   5 C5             2.4037     0.0541    -0.0211 C.2     
   6 C6             1.2007    -0.6771    -0.0130 C.2     
   7 N7             0.9143    -1.9688    -0.0171 N.2     
   8 N8            -0.3640    -2.1208    -0.0052 N.2     
   9 C9            -0.9586    -0.9538     0.0054 C.2     
  10 C10           -2.4463    -0.7138     0.0208 C.3     
  11 C11            1.0649     3.5569     0.0110 C.ar    
  12 N12           -2.9150    -0.6423     1.4070 N.pl3   
  13 C13           -4.2591    -0.4262     1.6745 C.ar    
  14 C14           -5.1756    -0.2754     0.6477 C.ar    
  15 C15           -6.5152    -0.0601     0.9452 C.ar    
  16 N16           -6.9456     0.0058     2.1835 N.ar    
  17 C17           -6.1159    -0.1312     3.2224 C.ar    
  18 C18           -4.7369    -0.3590     3.0073 C.ar    
  19 C19           -6.5909    -0.0590     4.5468 C.ar    
  20 C20           -5.6927    -0.2073     5.5644 C.ar    
  21 C21           -4.3463    -0.4236     5.2785 C.ar    
  22 N22           -3.9096    -0.4959     4.0442 N.ar    
  23 C23           -0.1604     4.2206     0.0263 C.ar    
  24 C24           -0.1960     5.6020     0.0345 C.ar    
  25 C25            0.9859     6.3279     0.0271 C.ar    
  26 C26            2.2072     5.6707     0.0119 C.ar    
  27 C27            2.2504     4.2894     0.0094 C.ar    
  28 F28           -1.3834     6.2462     0.0493 F       
  29 F29            0.9474     7.6783     0.0343 F       
  30 F30            3.3560     6.3817     0.0048 F       
  31 H31            3.2685     1.9857    -0.0197 H       
  32 H32            3.3546    -0.4578    -0.0329 H       
  33 H33           -2.6682     0.2250    -0.4867 H       
  34 H34           -2.9517    -1.5323    -0.4918 H       
  35 H35           -2.2857    -0.7459     2.1377 H       
  36 H36           -4.8500    -0.3245    -0.3809 H       
  37 H37           -7.2212     0.0566     0.1363 H       
  38 H38           -7.6378     0.1096     4.7518 H       
  39 H39           -6.0257    -0.1566     6.5906 H       
  40 H40           -3.6464    -0.5388     6.0929 H       
  41 H41           -1.0810     3.6560     0.0313 H       
  42 H42            3.2018     3.7783    -0.0024 H       
@<TRIPOS>BOND
   1    1    2 1
   2    1    3 2
   3    2    6 1
   4    2    9 1
   5    3    4 1
   6    3   11 1
   7    4    5 2
   8    4   31 1
   9    5    6 1
  10    5   32 1
  11    6    7 2
  12    7    8 1
  13    8    9 2
  14    9   10 1
  15   10   12 1
  16   10   33 1
  17   10   34 1
  18   11   23 ar
  19   11   27 ar
  20   12   13 1
  21   12   35 1
  22   13   14 ar
  23   13   18 ar
  24   14   15 ar
  25   14   36 1
  26   15   16 ar
  27   15   37 1
  28   16   17 ar
  29   17   18 ar
  30   17   19 ar
  31   18   22 ar
  32   19   20 ar
  33   19   38 1
  34   20   21 ar
  35   20   39 1
  36   21   22 ar
  37   21   40 1
  38   23   24 ar
  39   23   41 1
  40   24   25 ar
  41   24   28 1
  42   25   26 ar
  43   25   29 1
  44   26   27 ar
  45   26   30 1
  46   27   42 1

#	End of record

