#	Name: ASD04591060
#	Creating user name:	WinNT
#	Creation time:	15. 06. 2019 20:52

#	Modifying user name:	WinNT
#	Modification time:	15. 06. 2019 20:52

#	Program:	/corina/corina34_cracker 3.40 0067  02.08.2006

@<TRIPOS>MOLECULE
ASD04591060
  79   85    0    0    0
SMALL
NO_CHARGES


@<TRIPOS>ATOM
   1 N1            -0.0159     1.3218    -0.0029 N.ar    
   2 C2             0.0021    -0.0041     0.0027 C.ar    
   3 N3             1.1289    -0.6962     0.0017 N.ar    
   4 C4             2.3047    -0.0754    -0.0051 C.ar    
   5 C5             2.3200     1.3340    -0.0112 C.ar    
   6 C6             1.1088     2.0184    -0.0099 C.ar    
   7 N7             3.6025    -0.5232    -0.0077 N.pl3   
   8 C8             4.4827     0.5450    -0.0154 C.ar    
   9 C9             3.7327     1.7347    -0.0178 C.ar    
  10 C10            5.8686     0.6360    -0.0213 C.ar    
  11 N11            6.4630     1.8116    -0.0286 N.ar    
  12 C12            5.7878     2.9474    -0.0311 C.ar    
  13 C13            4.4091     2.9539    -0.0261 C.ar    
  14 N14           -1.2067    -0.6911     0.0103 N.am    
  15 C15           -2.4095     0.0117     0.1316 C.ar    
  16 N16           -2.9591     0.1657     1.3249 N.ar    
  17 C17           -4.0923     0.8212     1.4871 C.ar    
  18 C18           -4.7522     1.3762     0.4004 C.ar    
  19 C19           -4.2028     1.2341    -0.8728 C.ar    
  20 C20           -3.0105     0.5451    -1.0023 C.ar    
  21 N21           -5.9544     2.0695     0.5801 N.3     
  22 C22            3.9999    -1.9332    -0.0030 C.3     
  23 C23           -7.0201     1.4996    -0.2540 C.3     
  24 C24            3.4510    -2.6314     1.2536 C.3     
  25 C25            2.5198    -3.7581     0.7605 C.3     
  26 C26            3.0204    -4.0646    -0.6729 C.3     
  27 C27            3.3831    -2.6601    -1.2159 C.3     
  28 C28           -6.3417     2.0930     1.9963 C.3     
  29 C29           -7.5742     2.9831     2.1744 C.3     
  30 C30           -8.7180     2.4384     1.3159 C.3     
  31 C31           -8.2741     2.3708    -0.1470 C.3     
  32 O32           -9.0809     1.1291     1.7708 O.3     
  33 C33          -10.4686     1.1813     2.1600 C.3     
  34 C34          -11.0019     2.4166     1.3921 C.3     
  35 O35           -9.8583     3.3042     1.4315 O.3     
  36 O36           -2.3896    -2.6995    -0.0917 O.3     
  37 C37           -2.3271    -4.1450    -0.2135 C.3     
  38 C38           -1.5197    -4.7206     0.9517 C.3     
  39 C39           -3.7443    -4.7209    -0.1858 C.3     
  40 C40           -1.6513    -4.5167    -1.5350 C.3     
  41 C41           -1.2191    -2.0343    -0.0991 C.2     
  42 O42           -0.1741    -2.6449    -0.2045 O.2     
  43 H43            1.0870     3.0982    -0.0141 H       
  44 H44            6.4642    -0.2649    -0.0195 H       
  45 H45            6.3241     3.8849    -0.0369 H       
  46 H46            3.8633     3.8859    -0.0279 H       
  47 H47           -4.5111     0.9267     2.4770 H       
  48 H48           -4.6944     1.6556    -1.7371 H       
  49 H49           -2.5565     0.4160    -1.9737 H       
  50 H50            5.0865    -2.0148    -0.0309 H       
  51 H51           -6.6896     1.4648    -1.2921 H       
  52 H52           -7.2488     0.4903     0.0883 H       
  53 H53            4.2711    -3.0525     1.8351 H       
  54 H54            2.8890    -1.9211     1.8600 H       
  55 H55            2.6175    -4.6389     1.3952 H       
  56 H56            1.4853    -3.4157     0.7382 H       
  57 H57            3.9004    -4.7073    -0.6455 H       
  58 H58            2.2288    -4.5171    -1.2700 H       
  59 H59            2.4880    -2.1403    -1.5574 H       
  60 H60            4.1108    -2.7395    -2.0235 H       
  61 H61           -6.5742     1.0804     2.3261 H       
  62 H62           -5.5188     2.4887     2.5914 H       
  63 H63           -7.8741     2.9840     3.2223 H       
  64 H64           -7.3370     4.0000     1.8621 H       
  65 H65           -8.0512     3.3754    -0.5066 H       
  66 H66           -9.0717     1.9364    -0.7497 H       
  67 H67          -10.9909     0.2776     1.8461 H       
  68 H68          -10.5615     1.3271     3.2362 H       
  69 H69          -11.2589     2.1567     0.3653 H       
  70 H70          -11.8557     2.8573     1.9068 H       
  71 H71           -2.0011    -4.4558     1.8931 H       
  72 H72           -1.4728    -5.8058     0.8603 H       
  73 H73           -0.5101    -4.3103     0.9319 H       
  74 H74           -4.3194    -4.3109    -1.0159 H       
  75 H75           -3.6973    -5.8061    -0.2772 H       
  76 H76           -4.2257    -4.4561     0.7556 H       
  77 H77           -0.6417    -4.1064    -1.5547 H       
  78 H78           -1.6044    -5.6019    -1.6264 H       
  79 H79           -2.2265    -4.1067    -2.3651 H       
@<TRIPOS>BOND
   1    1    2 ar
   2    1    6 ar
   3    2    3 ar
   4    2   14 1
   5    3    4 ar
   6    4    5 ar
   7    4    7 1
   8    5    6 ar
   9    5    9 1
  10    6   43 1
  11    7    8 1
  12    7   22 1
  13    8    9 ar
  14    8   10 ar
  15    9   13 ar
  16   10   11 ar
  17   10   44 1
  18   11   12 ar
  19   12   13 ar
  20   12   45 1
  21   13   46 1
  22   14   15 1
  23   14   41 am
  24   15   16 ar
  25   15   20 ar
  26   16   17 ar
  27   17   18 ar
  28   17   47 1
  29   18   19 ar
  30   18   21 1
  31   19   20 ar
  32   19   48 1
  33   20   49 1
  34   21   28 1
  35   21   23 1
  36   22   24 1
  37   22   27 1
  38   22   50 1
  39   23   31 1
  40   23   51 1
  41   23   52 1
  42   24   25 1
  43   24   53 1
  44   24   54 1
  45   25   26 1
  46   25   55 1
  47   25   56 1
  48   26   27 1
  49   26   57 1
  50   26   58 1
  51   27   59 1
  52   27   60 1
  53   28   29 1
  54   28   61 1
  55   28   62 1
  56   29   30 1
  57   29   63 1
  58   29   64 1
  59   30   31 1
  60   30   32 1
  61   30   35 1
  62   31   65 1
  63   31   66 1
  64   32   33 1
  65   33   34 1
  66   33   67 1
  67   33   68 1
  68   34   35 1
  69   34   69 1
  70   34   70 1
  71   36   37 1
  72   36   41 1
  73   37   38 1
  74   37   39 1
  75   37   40 1
  76   38   71 1
  77   38   72 1
  78   38   73 1
  79   39   74 1
  80   39   75 1
  81   39   76 1
  82   40   77 1
  83   40   78 1
  84   40   79 1
  85   41   42 2

#	End of record

