#	Name: ASD05303035
#	Creating user name:	WinNT
#	Creation time:	15. 06. 2019 20:58

#	Modifying user name:	WinNT
#	Modification time:	15. 06. 2019 20:58

#	Program:	/corina/corina34_cracker 3.40 0067  02.08.2006

@<TRIPOS>MOLECULE
ASD05303035
  43   46    0    0    0
SMALL
NO_CHARGES


@<TRIPOS>ATOM
   1 C1             0.4264     1.6942    -1.6199 C.ar    
   2 C2             0.3739     0.3176    -1.7321 C.ar    
   3 C3             1.4324    -0.4547    -1.2870 C.ar    
   4 C4             2.5426     0.1550    -0.7298 C.ar    
   5 C5             2.6004     1.5425    -0.6182 C.ar    
   6 C6             1.5349     2.3079    -1.0653 C.ar    
   7 O7             3.6909     2.1457    -0.0800 O.3     
   8 N8             3.6234    -0.6166    -0.2649 N.am    
   9 C9             4.5867     1.4106     0.6269 C.ar    
  10 C10            4.5772     0.0195     0.5507 C.ar    
  11 C11            5.4949    -0.7251     1.2704 C.ar    
  12 C12            6.4245    -0.0847     2.0709 C.ar    
  13 C13            6.4354     1.2950     2.1506 C.ar    
  14 C14            5.5209     2.0434     1.4318 C.ar    
  15 C15            3.7407    -1.9196    -0.5891 C.2     
  16 O16            2.7907    -2.5177    -1.0566 O.2     
  17 N17            4.9108    -2.5596    -0.3951 N.am    
  18 C18            4.9891    -3.9447    -0.5768 C.ar    
  19 C19            3.8347    -4.7159    -0.5529 C.ar    
  20 C20            3.9154    -6.0831    -0.7331 C.ar    
  21 C21            5.1439    -6.6837    -0.9371 C.ar    
  22 C22            6.2956    -5.9183    -0.9615 C.ar    
  23 C23            6.2212    -4.5505    -0.7872 C.ar    
  24 C24            7.4766    -3.7172    -0.8144 C.3     
  25 C25            7.9785    -3.5044     0.6152 C.3     
  26 H26           -0.4003     2.2938    -1.9711 H       
  27 H27           -0.4940    -0.1556    -2.1672 H       
  28 H28            1.3919    -1.5304    -1.3738 H       
  29 H29            1.5704     3.3840    -0.9811 H       
  30 H30            5.4859    -1.8033     1.2073 H       
  31 H31            7.1418    -0.6635     2.6338 H       
  32 H32            7.1617     1.7913     2.7771 H       
  33 H33            5.5345     3.1213     1.4981 H       
  34 H34            5.6987    -2.0599    -0.1295 H       
  35 H35            2.8748    -4.2474    -0.3933 H       
  36 H36            3.0179    -6.6836    -0.7143 H       
  37 H37            5.2044    -7.7528    -1.0774 H       
  38 H38            7.2538    -6.3905    -1.1207 H       
  39 H39            8.2418    -4.2319    -1.3953 H       
  40 H40            7.2617    -2.7513    -1.2716 H       
  41 H41            7.2132    -2.9896     1.1961 H       
  42 H42            8.1933    -4.4703     1.0724 H       
  43 H43            8.8865    -2.9017     0.5955 H       
@<TRIPOS>BOND
   1    1    2 ar
   2    1    6 ar
   3    1   26 1
   4    2    3 ar
   5    2   27 1
   6    3    4 ar
   7    3   28 1
   8    4    5 ar
   9    4    8 1
  10    5    6 ar
  11    5    7 1
  12    6   29 1
  13    7    9 1
  14    8   10 1
  15    8   15 am
  16    9   10 ar
  17    9   14 ar
  18   10   11 ar
  19   11   12 ar
  20   11   30 1
  21   12   13 ar
  22   12   31 1
  23   13   14 ar
  24   13   32 1
  25   14   33 1
  26   15   16 2
  27   15   17 am
  28   17   18 1
  29   17   34 1
  30   18   19 ar
  31   18   23 ar
  32   19   20 ar
  33   19   35 1
  34   20   21 ar
  35   20   36 1
  36   21   22 ar
  37   21   37 1
  38   22   23 ar
  39   22   38 1
  40   23   24 1
  41   24   25 1
  42   24   39 1
  43   24   40 1
  44   25   41 1
  45   25   42 1
  46   25   43 1

#	End of record

