#	Name: ASD02610013
#	Creating user name:	WinNT
#	Creation time:	15. 06. 2019 20:25

#	Modifying user name:	WinNT
#	Modification time:	15. 06. 2019 20:25

#	Program:	/corina/corina34_cracker 3.40 0067  02.08.2006

@<TRIPOS>MOLECULE
ASD02610013
  84   86    0    0    0
SMALL
NO_CHARGES


@<TRIPOS>ATOM
   1 C1             0.3374     1.1026    -0.2638 C.3     
   2 C2             0.7220    -0.3875    -0.3896 C.3     
   3 C3             2.2262    -0.4281    -0.4854 C.2     
   4 C4             2.7522     0.7596    -0.3953 C.2     
   5 C5             1.6882     1.7899    -0.1361 C.3     
   6 C6             4.1998     1.1232    -0.6336 C.3     
   7 C7             4.5871     2.2842     0.2630 C.3     
   8 C8             4.2483     3.6345    -0.2905 C.3     
   9 C9             2.8228     4.0353    -0.0313 C.3     
  10 C10            1.8520     3.1111    -0.7699 C.3     
  11 O11            0.1396    -0.9472    -1.5684 O.3     
  12 C12            3.0258    -1.6929    -0.6642 C.3     
  13 O13           -0.4683     1.3274     0.9231 O.3     
  14 H14            1.7777     1.9954     0.9307 H       
  15 O15            0.5539     3.7586    -0.8339 O.3     
  16 C16            2.3623     2.9077    -2.1978 C.3     
  17 O17            4.4770     3.6226    -1.7244 O.3     
  18 C18            4.8341     4.7842    -2.2942 C.2     
  19 C19            5.0884     4.8488    -3.7782 C.3     
  20 O20            4.9517     5.7782    -1.6173 O.2     
  21 O21            5.1038     0.0507    -0.2464 O.3     
  22 C22            6.2926     0.5941     0.0892 C.2     
  23 C23            6.0987     2.0568     0.4540 C.3     
  24 O24            3.9319     2.1363     1.5243 O.3     
  25 C25            5.4771     6.2765    -4.1674 C.3     
  26 C26            5.7352     6.3420    -5.6740 C.3     
  27 C27           -1.8005     1.2487     0.7791 C.2     
  28 C28           -2.7012     1.4703     1.9669 C.3     
  29 C29           -4.1614     1.3252     1.5338 C.3     
  30 C30           -5.0758     1.5501     2.7397 C.3     
  31 C31           -6.5360     1.4051     2.3066 C.3     
  32 C32           -7.4504     1.6300     3.5126 C.3     
  33 O33           -2.2777     1.0003    -0.3028 O.2     
  34 O34            7.3490     0.0077     0.0987 O.2     
  35 O35            6.8480     2.8973    -0.4259 O.3     
  36 C36           -8.9106     1.4849     3.0795 C.3     
  37 C37           -9.8250     1.7098     4.2854 C.3     
  38 C38            6.5002     2.3057     1.9092 C.3     
  39 C39           -0.0232     4.0836     0.3336 C.2     
  40 C40           -1.3145     4.8605     0.3453 C.3     
  41 O41            0.4926     3.7534     1.3751 O.2     
  42 H42           -0.1861     1.4431    -1.1572 H       
  43 H43            0.3878    -0.9363     0.4908 H       
  44 H44            4.3487     1.3937    -1.6789 H       
  45 H45            4.9085     4.3747     0.1615 H       
  46 H46            2.6245     3.9814     1.0391 H       
  47 H47            2.6712     5.0597    -0.3717 H       
  48 H48            0.3454    -1.8824    -1.7029 H       
  49 H49            2.3497    -2.5466    -0.7112 H       
  50 H50            3.5995    -1.6324    -1.5890 H       
  51 H51            3.7065    -1.8145     0.1784 H       
  52 H52            1.5789     2.4501    -2.8019 H       
  53 H53            2.6354     3.8718    -2.6269 H       
  54 H54            3.2362     2.2564    -2.1821 H       
  55 H55            5.8990     4.1679    -4.0379 H       
  56 H56            4.1847     4.5592    -4.3146 H       
  57 H57            4.1295     2.8420     2.1553 H       
  58 H58            4.6665     6.9574    -3.9077 H       
  59 H59            6.3807     6.5661    -3.6310 H       
  60 H60            6.5458     5.6612    -5.9337 H       
  61 H61            4.8316     6.0525    -6.2104 H       
  62 H62            6.0122     7.3592    -5.9513 H       
  63 H63           -2.4755     0.7323     2.7367 H       
  64 H64           -2.5380     2.4718     2.3648 H       
  65 H65           -4.3871     2.0632     0.7641 H       
  66 H66           -4.3246     0.3236     1.1359 H       
  67 H67           -4.8501     0.8121     3.5095 H       
  68 H68           -4.9126     2.5517     3.1376 H       
  69 H69           -6.7617     2.1431     1.5369 H       
  70 H70           -6.6992     0.4035     1.9087 H       
  71 H71           -7.2247     0.8920     4.2823 H       
  72 H72           -7.2872     2.6316     3.9105 H       
  73 H73            7.8063     2.7943    -0.3469 H       
  74 H74           -9.1363     2.2229     2.3097 H       
  75 H75           -9.0738     0.4834     2.6816 H       
  76 H76           -9.5993     0.9718     5.0551 H       
  77 H77           -9.6618     2.7114     4.6833 H       
  78 H78          -10.8653     1.6065     3.9769 H       
  79 H79            5.9550     1.6210     2.5588 H       
  80 H80            7.5714     2.1401     2.0240 H       
  81 H81            6.2603     3.3335     2.1816 H       
  82 H82           -2.1556     4.1674     0.3314 H       
  83 H83           -1.3624     5.4720     1.2464 H       
  84 H84           -1.3593     5.5040    -0.5333 H       
@<TRIPOS>BOND
   1    1    2 1
   2    1    5 1
   3    1   13 1
   4    1   42 1
   5    2    3 1
   6    2   11 1
   7    2   43 1
   8    3    4 2
   9    3   12 1
  10    4    5 1
  11    4    6 1
  12    5   10 1
  13    5   14 1
  14    6    7 1
  15    6   21 1
  16    6   44 1
  17    7   23 1
  18    7   24 1
  19    7    8 1
  20    8    9 1
  21    8   17 1
  22    8   45 1
  23    9   10 1
  24    9   46 1
  25    9   47 1
  26   10   15 1
  27   10   16 1
  28   11   48 1
  29   12   49 1
  30   12   50 1
  31   12   51 1
  32   13   27 1
  33   15   39 1
  34   16   52 1
  35   16   53 1
  36   16   54 1
  37   17   18 1
  38   18   19 1
  39   18   20 2
  40   19   25 1
  41   19   55 1
  42   19   56 1
  43   21   22 1
  44   22   23 1
  45   22   34 2
  46   23   35 1
  47   23   38 1
  48   24   57 1
  49   25   26 1
  50   25   58 1
  51   25   59 1
  52   26   60 1
  53   26   61 1
  54   26   62 1
  55   27   28 1
  56   27   33 2
  57   28   29 1
  58   28   63 1
  59   28   64 1
  60   29   30 1
  61   29   65 1
  62   29   66 1
  63   30   31 1
  64   30   67 1
  65   30   68 1
  66   31   32 1
  67   31   69 1
  68   31   70 1
  69   32   36 1
  70   32   71 1
  71   32   72 1
  72   35   73 1
  73   36   37 1
  74   36   74 1
  75   36   75 1
  76   37   76 1
  77   37   77 1
  78   37   78 1
  79   38   79 1
  80   38   80 1
  81   38   81 1
  82   39   40 1
  83   39   41 2
  84   40   82 1
  85   40   83 1
  86   40   84 1

#	End of record

