#	Name: ASD01418003
#	Creating user name:	WinNT
#	Creation time:	15. 06. 2019 19:20

#	Modifying user name:	WinNT
#	Modification time:	15. 06. 2019 19:20

#	Program:	/corina/corina34_cracker 3.40 0067  02.08.2006

@<TRIPOS>MOLECULE
ASD01418003
  57   58    0    0    0
SMALL
NO_CHARGES


@<TRIPOS>ATOM
   1 C1             0.8946    -2.5798    -0.0114 C.3     
   2 C2             0.7030    -1.7638    -1.2914 C.3     
   3 C3            -0.7445    -1.8962    -1.7687 C.3     
   4 C4            -0.8916    -1.2364    -3.1157 C.2     
   5 N5             1.0023    -0.3513    -1.0210 N.4     
   6 O6             0.0879    -0.8199    -3.6971 O.2     
   7 C7             2.4072    -0.2177    -0.6130 C.3     
   8 C8             2.6832     1.2296    -0.2008 C.3     
   9 C9             1.8599     1.5717     1.0425 C.3     
  10 C10            3.3028    -0.5913    -1.7659 C.ar    
  11 C11            4.5440    -1.1524    -1.5235 C.ar    
  12 C12            5.3682    -1.4966    -2.5870 C.ar    
  13 C13            4.9436    -1.2763    -3.8899 C.ar    
  14 C14            3.7021    -0.7152    -4.1256 C.ar    
  15 C15            2.8811    -0.3782    -3.0652 C.ar    
  16 O16            6.5887    -2.0478    -2.3524 O.3     
  17 C17            6.6717    -3.4014    -2.2674 C.ar    
  18 C18            7.8962    -4.0091    -2.0290 C.ar    
  19 C19            7.9777    -5.3853    -1.9426 C.ar    
  20 C20            6.8405    -6.1573    -2.0933 C.ar    
  21 C21            5.6192    -5.5543    -2.3313 C.ar    
  22 C22            5.5312    -4.1782    -2.4130 C.ar    
  23 F23            4.9539    -1.3648    -0.2538 F       
  24 Cl24           5.9706    -1.7044    -5.2224 Cl      
  25 N25           -2.1116    -1.1092    -3.6741 N.am    
  26 C26           -2.2546    -0.4678    -4.9835 C.3     
  27 C27           -3.7308    -0.4520    -5.3851 C.3     
  28 N28           -3.8742     0.1912    -6.6981 N.4     
  29 H29            1.9479    -2.5742     0.2689 H       
  30 H30            0.3026    -2.1405     0.7916 H       
  31 H31            0.5696    -3.6060    -0.1826 H       
  32 H32            1.3759    -2.1363    -2.0638 H       
  33 H33           -1.0051    -2.9514    -1.8507 H       
  34 H34           -1.4089    -1.4124    -1.0527 H       
  35 H35            0.8413     0.1924    -1.8556 H       
  36 H36            0.4038    -0.0164    -0.2808 H       
  37 H37            2.6051    -0.8796     0.2301 H       
  38 H38            3.7436     1.3481     0.0217 H       
  39 H39            2.4059     1.8985    -1.0156 H       
  40 H40            2.1878     0.9521     1.8772 H       
  41 H41            2.0003     2.6231     1.2934 H       
  42 H42            0.8050     1.3836     0.8429 H       
  43 H43            3.3714    -0.5437    -5.1393 H       
  44 H44            1.9102     0.0561    -3.2523 H       
  45 H45            8.7848    -3.4066    -1.9116 H       
  46 H46            8.9306    -5.8588    -1.7575 H       
  47 H47            6.9064    -7.2331    -2.0254 H       
  48 H48            4.7326    -6.1596    -2.4494 H       
  49 H49            4.5761    -3.7074    -2.5941 H       
  50 H50           -2.8950    -1.4423    -3.2091 H       
  51 H51           -1.8816     0.5550    -4.9297 H       
  52 H52           -1.6822    -1.0248    -5.7253 H       
  53 H53           -4.1038    -1.4748    -5.4389 H       
  54 H54           -4.3032     0.1050    -4.6433 H       
  55 H55           -3.5289     1.1380    -6.6483 H       
  56 H56           -3.3443    -0.3244    -7.3848 H       
  57 H57           -4.8477     0.2016    -6.9630 H       
@<TRIPOS>BOND
   1    1    2 1
   2    1   29 1
   3    1   30 1
   4    1   31 1
   5    2    3 1
   6    2    5 1
   7    2   32 1
   8    3    4 1
   9    3   33 1
  10    3   34 1
  11    4    6 2
  12    4   25 am
  13    5    7 1
  14    5   35 1
  15    5   36 1
  16    7    8 1
  17    7   10 1
  18    7   37 1
  19    8    9 1
  20    8   38 1
  21    8   39 1
  22    9   40 1
  23    9   41 1
  24    9   42 1
  25   10   11 ar
  26   10   15 ar
  27   11   12 ar
  28   11   23 1
  29   12   13 ar
  30   12   16 1
  31   13   14 ar
  32   13   24 1
  33   14   15 ar
  34   14   43 1
  35   15   44 1
  36   16   17 1
  37   17   18 ar
  38   17   22 ar
  39   18   19 ar
  40   18   45 1
  41   19   20 ar
  42   19   46 1
  43   20   21 ar
  44   20   47 1
  45   21   22 ar
  46   21   48 1
  47   22   49 1
  48   25   26 1
  49   25   50 1
  50   26   27 1
  51   26   51 1
  52   26   52 1
  53   27   28 1
  54   27   53 1
  55   27   54 1
  56   28   55 1
  57   28   56 1
  58   28   57 1

#	End of record

