#	Name: ASD01208525
#	Creating user name:	WinNT
#	Creation time:	15. 06. 2019 19:10

#	Modifying user name:	WinNT
#	Modification time:	15. 06. 2019 19:10

#	Program:	/corina/corina34_cracker 3.40 0067  02.08.2006

@<TRIPOS>MOLECULE
ASD01208525
  67   70    0    0    0
SMALL
NO_CHARGES


@<TRIPOS>ATOM
   1 N1            -0.0847     1.5285    -0.4716 N.pl3   
   2 C2            -0.0833     0.1587    -0.6105 C.2     
   3 C3             1.2301    -0.2629    -0.6660 C.2     
   4 C4             2.0367     0.8686    -0.5591 C.2     
   5 C5             1.2078     1.9631    -0.4400 C.2     
   6 C6            -1.2682    -0.7010    -0.6862 C.2     
   7 O7            -1.1397    -1.9050    -0.8095 O.2     
   8 N8            -2.5000    -0.1582    -0.6192 N.am    
   9 N9            -3.6325    -0.9799    -0.6915 N.am    
  10 C10            1.6449     3.3685    -0.3022 C.ar    
  11 C11            0.6985     4.3878    -0.1901 C.ar    
  12 C12            1.1124     5.7033    -0.0612 C.ar    
  13 C13            2.4663     6.0082    -0.0439 C.ar    
  14 C14            3.4103     4.9979    -0.1550 C.ar    
  15 C15            3.0049     3.6790    -0.2781 C.ar    
  16 O16            4.7348     5.3019    -0.1380 O.3     
  17 C17            5.6520     4.2060    -0.1353 C.3     
  18 C18            6.9755     4.6503     0.4907 C.3     
  19 C19            5.8976     3.7430    -1.5727 C.3     
  20 O20            7.5811     5.6481    -0.3338 O.3     
  21 C21            8.8296     6.1337     0.1636 C.3     
  22 O22            0.1917     6.6967     0.0480 O.3     
  23 C23           -0.5776     6.7325     1.1658 C.ar    
  24 C24           -1.6169     7.6537     1.2644 C.ar    
  25 C25           -2.3997     7.6924     2.3985 C.ar    
  26 C26           -2.1482     6.8052     3.4489 C.ar    
  27 C27           -1.1042     5.8830     3.3450 C.ar    
  28 C28           -0.3296     5.8463     2.2064 C.ar    
  29 F29           -1.8581     8.5106     0.2481 F       
  30 C30           -2.9834     6.8432     4.6653 C.2     
  31 O31           -2.6729     6.1814     5.6369 O.2     
  32 N32           -4.0903     7.6115     4.6991 N.am    
  33 C33           -5.1725     7.8677     5.6613 C.3     
  34 C34           -6.0773     8.2111     4.4698 C.3     
  35 C35           -4.7438     8.5675     3.7925 C.3     
  36 C36           -4.8643    -0.4371    -0.6245 C.2     
  37 O37           -4.9924     0.7627    -0.5016 O.2     
  38 C38           -6.0824    -1.3209    -0.7023 C.3     
  39 H39           -0.8729     2.0906    -0.4106 H       
  40 H40            1.5701    -1.2824    -0.7723 H       
  41 H41            3.1166     0.8846    -0.5674 H       
  42 H42           -2.6025     0.8013    -0.5209 H       
  43 H43           -3.5300    -1.9394    -0.7898 H       
  44 H44           -0.3552     4.1514    -0.2043 H       
  45 H45            2.7858     7.0350     0.0561 H       
  46 H46            3.7406     2.8925    -0.3601 H       
  47 H47            5.2336     3.3835     0.4449 H       
  48 H48            6.7882     5.0627     1.4821 H       
  49 H49            7.6438     3.7932     0.5740 H       
  50 H50            4.9546     3.4265    -2.0186 H       
  51 H51            6.3159     4.5655    -2.1529 H       
  52 H52            6.5971     2.9071    -1.5706 H       
  53 H53            9.2241     6.8871    -0.5182 H       
  54 H54            8.6808     6.5769     1.1483 H       
  55 H55            9.5364     5.3074     0.2402 H       
  56 H56           -3.2058     8.4071     2.4753 H       
  57 H57           -0.9073     5.1962     4.1549 H       
  58 H58            0.4747     5.1302     2.1244 H       
  59 H59           -5.4897     6.9778     6.2049 H       
  60 H60           -4.9782     8.7161     6.3174 H       
  61 H61           -6.5880     7.3522     4.0344 H       
  62 H62           -6.7330     9.0653     4.6382 H       
  63 H63           -4.4364     9.6004     3.9559 H       
  64 H64           -4.6957     8.2737     2.7439 H       
  65 H65           -6.3662    -1.6376     0.3013 H       
  66 H66           -6.9050    -0.7669    -1.1547 H       
  67 H67           -5.8572    -2.1974    -1.3099 H       
@<TRIPOS>BOND
   1    1    2 1
   2    1    5 1
   3    1   39 1
   4    2    3 2
   5    2    6 1
   6    3    4 1
   7    3   40 1
   8    4    5 2
   9    4   41 1
  10    5   10 1
  11    6    7 2
  12    6    8 am
  13    8    9 1
  14    8   42 1
  15    9   36 am
  16    9   43 1
  17   10   11 ar
  18   10   15 ar
  19   11   12 ar
  20   11   44 1
  21   12   13 ar
  22   12   22 1
  23   13   14 ar
  24   13   45 1
  25   14   15 ar
  26   14   16 1
  27   15   46 1
  28   16   17 1
  29   17   18 1
  30   17   19 1
  31   17   47 1
  32   18   20 1
  33   18   48 1
  34   18   49 1
  35   19   50 1
  36   19   51 1
  37   19   52 1
  38   20   21 1
  39   21   53 1
  40   21   54 1
  41   21   55 1
  42   22   23 1
  43   23   24 ar
  44   23   28 ar
  45   24   25 ar
  46   24   29 1
  47   25   26 ar
  48   25   56 1
  49   26   27 ar
  50   26   30 1
  51   27   28 ar
  52   27   57 1
  53   28   58 1
  54   30   31 2
  55   30   32 am
  56   32   33 1
  57   32   35 1
  58   33   34 1
  59   33   59 1
  60   33   60 1
  61   34   35 1
  62   34   61 1
  63   34   62 1
  64   35   63 1
  65   35   64 1
  66   36   37 2
  67   36   38 1
  68   38   65 1
  69   38   66 1
  70   38   67 1

#	End of record

