#	Name: ASD00170646
#	Creating user name:	WinNT
#	Creation time:	15. 06. 2019 18:32

#	Modifying user name:	WinNT
#	Modification time:	15. 06. 2019 18:32

#	Program:	/corina/corina34_cracker 3.40 0067  02.08.2006

@<TRIPOS>MOLECULE
ASD00170646
  52   56    0    0    0
SMALL
NO_CHARGES


@<TRIPOS>ATOM
   1 C1            -0.0147     1.2124    -0.0044 C.2     
   2 O2             0.6142     1.0299    -1.0312 O.2     
   3 C3             1.6694    -0.0473     1.3051 C.ar    
   4 C4             0.5141     0.7167     1.2844 C.ar    
   5 C5            -0.1594     1.0248     2.4796 C.ar    
   6 C6             0.3065     0.5818     3.6752 C.ar    
   7 C7             1.4775    -0.1958     3.7298 C.ar    
   8 C8             1.9794    -0.6647     4.9553 C.ar    
   9 C9             3.1153    -1.4149     4.9769 C.ar    
  10 C10            3.7919    -1.7273     3.7992 C.ar    
  11 C11            3.3365    -1.2911     2.5933 C.ar    
  12 C12            2.1660    -0.5134     2.5311 C.ar    
  13 C13           -3.5965     2.1250    -0.1959 C.2     
  14 C14           -2.5749     1.2629    -0.1839 C.2     
  15 C15           -1.2902     1.9272    -0.0452 C.2     
  16 C16           -1.3937     3.2920     0.0440 C.2     
  17 S17           -3.0234     3.7772    -0.0378 S.3     
  18 C18           -2.7454    -0.2434    -0.3020 C.3     
  19 C19           -4.1424    -0.5395    -0.8520 C.3     
  20 C20           -5.1803     0.2270    -0.0265 C.3     
  21 C21           -5.0526     1.7228    -0.3345 C.3     
  22 C22           -6.5850    -0.2525    -0.3977 C.3     
  23 C23           -7.5963     0.4126     0.5000 C.ar    
  24 C24           -8.1613     1.6188     0.1302 C.ar    
  25 C25           -9.0889     2.2289     0.9537 C.ar    
  26 C26           -9.4520     1.6325     2.1467 C.ar    
  27 C27           -8.8877     0.4259     2.5161 C.ar    
  28 C28           -7.9633    -0.1864     1.6906 C.ar    
  29 N29           -0.3241     4.1532     0.1820 N.pl3   
  30 H30            2.1813    -0.2854     0.3843 H       
  31 H31           -1.0587     1.6219     2.4460 H       
  32 H32           -0.2218     0.8267     4.5848 H       
  33 H33            1.4665    -0.4307     5.8765 H       
  34 H34            3.4980    -1.7731     5.9211 H       
  35 H35            4.6911    -2.3239     3.8444 H       
  36 H36            3.8711    -1.5404     1.6887 H       
  37 H37           -1.9928    -0.6442    -0.9810 H       
  38 H38           -2.6349    -0.7018     0.6808 H       
  39 H39           -4.1987    -0.2224    -1.8933 H       
  40 H40           -4.3412    -1.6091    -0.7846 H       
  41 H41           -5.0028     0.0531     1.0348 H       
  42 H42           -5.6570     2.2890     0.3742 H       
  43 H43           -5.3922     1.9243    -1.3504 H       
  44 H44           -6.7947     0.0062    -1.4356 H       
  45 H45           -6.6444    -1.3338    -0.2736 H       
  46 H46           -7.8776     2.0847    -0.8019 H       
  47 H47           -9.5298     3.1716     0.6651 H       
  48 H48          -10.1763     2.1095     2.7904 H       
  49 H49           -9.1712    -0.0399     3.4484 H       
  50 H50           -7.5252    -1.1309     1.9774 H       
  51 H51            0.5714     3.7994     0.2993 H       
  52 H52           -0.4678     5.1123     0.1616 H       
@<TRIPOS>BOND
   1    1    2 2
   2    1    4 1
   3    1   15 1
   4    3    4 ar
   5    3   12 ar
   6    3   30 1
   7    4    5 ar
   8    5    6 ar
   9    5   31 1
  10    6    7 ar
  11    6   32 1
  12    7    8 ar
  13    7   12 ar
  14    8    9 ar
  15    8   33 1
  16    9   10 ar
  17    9   34 1
  18   10   11 ar
  19   10   35 1
  20   11   12 ar
  21   11   36 1
  22   13   14 2
  23   13   17 1
  24   13   21 1
  25   14   15 1
  26   14   18 1
  27   15   16 2
  28   16   17 1
  29   16   29 1
  30   18   19 1
  31   18   37 1
  32   18   38 1
  33   19   20 1
  34   19   39 1
  35   19   40 1
  36   20   21 1
  37   20   22 1
  38   20   41 1
  39   21   42 1
  40   21   43 1
  41   22   23 1
  42   22   44 1
  43   22   45 1
  44   23   24 ar
  45   23   28 ar
  46   24   25 ar
  47   24   46 1
  48   25   26 ar
  49   25   47 1
  50   26   27 ar
  51   26   48 1
  52   27   28 ar
  53   27   49 1
  54   28   50 1
  55   29   51 1
  56   29   52 1

#	End of record

