#	Name: ASD06600084
#	Creating user name:	WinNT
#	Creation time:	15. 06. 2019 21:07

#	Modifying user name:	WinNT
#	Modification time:	15. 06. 2019 21:07

#	Program:	/corina/corina34_cracker 3.40 0067  02.08.2006

@<TRIPOS>MOLECULE
ASD06600084
 403  404    0    0    0
SMALL
NO_CHARGES


@<TRIPOS>ATOM
   1 C1             3.2805    -9.9613   -14.5763 C.2     
   2 O2             2.7597   -10.2249   -15.6394 O.2     
   3 N3             5.3009   -10.9018   -15.5368 N.am    
   4 C4             4.7632   -10.1597   -14.3938 C.3     
   5 C5             5.4524    -8.7969   -14.3008 C.3     
   6 C6             6.9351    -8.9961   -13.9804 C.3     
   7 C7             5.3133    -8.0628   -15.6359 C.3     
   8 C8             0.6587    -8.1613   -12.7736 C.2     
   9 O9             1.4461    -7.7036   -11.9727 O.2     
  10 N10            2.5341    -9.4857   -13.5598 N.am    
  11 C11            1.1119    -9.2008   -13.7661 C.3     
  12 C12            0.3010   -10.4830   -13.5680 C.3     
  13 C13            0.6728   -11.4946   -14.6539 C.3     
  14 C14           -0.1382   -12.7768   -14.4558 C.3     
  15 C15            0.2337   -13.7883   -15.5418 C.3     
  16 N16           -0.5450   -15.0194   -15.3515 N.3     
  17 C17           -2.5456    -6.8660   -11.5832 C.2     
  18 O18           -3.1731    -7.7227   -12.1691 O.2     
  19 N19           -0.6216    -7.7404   -12.7759 N.am    
  20 C20           -1.0622    -6.7299   -11.8110 C.3     
  21 C21           -0.7562    -5.3344   -12.3585 C.3     
  22 C22            0.7358    -5.1548   -12.4706 C.ar    
  23 C23            1.3882    -5.5033   -13.6385 C.ar    
  24 C24            2.7568    -5.3386   -13.7413 C.ar    
  25 C25            3.4731    -4.8249   -12.6764 C.ar    
  26 C26            2.8206    -4.4755   -11.5089 C.ar    
  27 C27            1.4514    -4.6361   -11.4076 C.ar    
  28 C28           -5.1786    -4.8461   -10.0499 C.2     
  29 O29           -4.4462    -3.8880    -9.9219 O.2     
  30 N30           -3.1751    -6.0356   -10.7283 N.am    
  31 C31           -4.6172    -6.1679   -10.5068 C.3     
  32 C32           -4.8733    -7.2288    -9.4345 C.3     
  33 C33           -4.4158    -8.5951    -9.9493 C.3     
  34 C34           -4.6719    -9.6560    -8.8770 C.3     
  35 N35           -4.2339   -10.9642    -9.3699 N.pl3   
  36 C36           -4.3656   -12.0778    -8.5745 C.2     
  37 N37           -3.9759   -13.2417    -9.0131 N.2     
  38 N38           -4.9083   -11.9637    -7.3165 N.pl3   
  39 C39           -8.3004    -3.6801    -8.5472 C.2     
  40 O40           -8.7029    -4.8106    -8.3711 O.2     
  41 N41           -6.4945    -4.7288    -9.7835 N.am    
  42 C42           -7.0403    -3.4439    -9.3393 C.3     
  43 C43           -7.3594    -2.5765   -10.5586 C.3     
  44 O44           -8.4036    -3.1884   -11.3183 O.3     
  45 C45          -11.3813    -2.9852    -8.0224 C.2     
  46 O46          -11.3020    -2.8833    -9.2283 O.2     
  47 N47           -8.9799    -2.6353    -8.0346 N.am    
  48 C48          -10.1418    -2.8687    -7.1733 C.3     
  49 C49          -10.2985    -1.6986    -6.2000 C.3     
  50 C50           -9.1217    -1.6667    -5.2592 C.2     
  51 O51           -8.2086    -2.4440    -5.4073 O.2     
  52 O52           -9.0879    -0.7748    -4.2566 O.3     
  53 C53          -14.9910    -2.9446    -7.4464 C.2     
  54 O54          -14.8584    -2.6175    -6.2861 O.2     
  55 N55          -12.5780    -3.2026    -7.4418 N.am    
  56 C56          -13.7829    -3.3159    -8.2673 C.3     
  57 C57          -13.9271    -4.7557    -8.7644 C.3     
  58 C58          -12.7632    -5.0915    -9.6990 C.3     
  59 C59          -12.8382    -6.5669   -10.0971 C.3     
  60 C60          -12.8485    -4.2197   -10.9534 C.3     
  61 C61          -18.6157    -3.2819    -7.7791 C.2     
  62 O62          -18.5159    -3.9892    -8.7593 O.2     
  63 N63          -16.2186    -2.9759    -8.0017 N.am    
  64 C64          -17.3930    -2.6149    -7.2037 C.3     
  65 C65          -17.5803    -1.0967    -7.2299 C.3     
  66 O66          -17.8847    -0.6772    -8.5616 O.3     
  67 C67          -22.2353    -2.9488    -7.3912 C.2     
  68 O68          -22.1273    -1.9418    -6.7240 O.2     
  69 N69          -19.8200    -3.0925    -7.2045 N.am    
  70 C70          -21.0086    -3.7409    -7.7639 C.3     
  71 C71          -21.1275    -5.1593    -7.2028 C.3     
  72 C72          -19.9433    -5.9995    -7.6851 C.3     
  73 C73          -20.0622    -7.4179    -7.1240 C.3     
  74 N74          -18.9283    -8.2224    -7.5858 N.pl3   
  75 C75          -18.8202    -9.5395    -7.2066 C.2     
  76 N76          -19.7266   -10.0724    -6.4362 N.2     
  77 N77          -17.7561   -10.2945    -7.6400 N.pl3   
  78 C78          -25.8494    -3.4949    -7.4458 C.2     
  79 O79          -25.7241    -4.6680    -7.7271 O.2     
  80 N80          -23.4524    -3.3594    -7.7993 N.am    
  81 C81          -24.6448    -2.5894    -7.4370 C.3     
  82 C82          -24.8489    -1.4594    -8.4481 C.3     
  83 C83          -23.6843    -0.4717    -8.3511 C.3     
  84 C84          -23.8230     0.5893    -9.4447 C.3     
  85 C85          -23.7024     0.2048    -6.9789 C.3     
  86 C86          -29.4780    -2.9900    -7.4074 C.2     
  87 O87          -29.4215    -1.8061    -7.1500 O.2     
  88 N88          -27.0659    -3.0011    -7.1412 N.am    
  89 C89          -28.2520    -3.8532    -7.2560 C.3     
  90 C90          -28.3860    -4.7131    -5.9976 C.3     
  91 C91          -29.6175    -5.6123    -6.1230 C.3     
  92 C92          -29.3842    -6.6457    -7.2269 C.3     
  93 C93          -29.8615    -6.3313    -4.7947 C.3     
  94 C94          -33.0625    -3.6010    -7.7831 C.2     
  95 O95          -32.9304    -4.8057    -7.7377 O.2     
  96 N96          -30.6371    -3.5335    -7.8287 N.am    
  97 C97          -31.8494    -2.7137    -7.8941 C.3     
  98 C98          -31.8865    -1.9636    -9.2272 C.3     
  99 C99          -30.6663    -1.0463    -9.3303 C.3     
 100 O100         -31.8681    -2.9036   -10.3033 O.3     
 101 C101         -36.6591    -3.1619    -8.2676 C.2     
 102 O102         -36.5259    -2.0139    -8.6353 O.2     
 103 N103         -34.2940    -3.0557    -7.7343 N.am    
 104 C104         -35.4773    -3.9193    -7.7189 C.3     
 105 C105         -35.7728    -4.3540    -6.2821 C.3     
 106 C106         -34.6271    -5.2281    -5.7679 C.3     
 107 C107         -34.9226    -5.6629    -4.3311 C.3     
 108 C108         -33.7769    -6.5370    -3.8169 C.3     
 109 N109         -34.0606    -6.9544    -2.4374 N.3     
 110 C110         -40.2861    -3.6131    -8.3331 C.2     
 111 O111         -40.2387    -4.5550    -7.5706 O.2     
 112 N112         -37.8639    -3.7604    -8.3498 N.am    
 113 C113         -39.0126    -3.0242    -8.8832 C.3     
 114 C114         -39.0206    -3.1278   -10.4097 C.3     
 115 C115         -37.7879    -2.4196   -10.9753 C.3     
 116 C116         -37.7294    -2.6294   -12.4897 C.3     
 117 C117         -37.8750    -0.9228   -10.6707 C.3     
 118 C118         -43.8972    -2.9082    -8.7025 C.2     
 119 O119         -43.7225    -1.9815    -9.4651 O.2     
 120 N120         -41.4776    -3.0930    -8.6885 N.am    
 121 C121         -42.7155    -3.6655    -8.1538 C.3     
 122 C122         -47.4618    -2.6563    -7.9321 C.2     
 123 O123         -47.3440    -3.3017    -6.9120 O.2     
 124 N124         -45.1482    -3.2607    -8.3457 N.am    
 125 C125         -46.2970    -2.5245    -8.8791 C.3     
 126 C126         -46.6818    -3.0990   -10.2439 C.3     
 127 O127         -47.1363    -4.4442   -10.0835 O.3     
 128 C128         -51.0550    -1.9960    -8.0569 C.2     
 129 O129         -51.0316    -1.5937    -9.2008 O.2     
 130 N130         -48.6345    -2.0570    -8.2187 N.am    
 131 C131         -49.7668    -2.1852    -7.2981 C.3     
 132 C132         -49.6580    -1.1206    -6.2045 C.3     
 133 C133         -48.3561    -1.3204    -5.4261 C.3     
 134 O134         -49.6616     0.1777    -6.8016 O.3     
 135 C135         -54.6510    -2.3872    -7.2886 C.2     
 136 O136         -54.4493    -2.8656    -6.1925 O.2     
 137 N137         -52.2332    -2.2739    -7.4643 N.am    
 138 C138         -53.4894    -1.9865    -8.1612 C.3     
 139 C139         -57.1416    -4.0325    -6.6658 C.2     
 140 O140         -56.2200    -4.7346    -7.0247 O.2     
 141 N141         -55.9138    -2.2138    -7.7262 N.am    
 142 C142         -57.1337    -2.5590    -6.9817 C.3     
 143 C143         -58.3357    -2.2093    -7.8841 C.3     
 144 C144         -57.7154    -2.2137    -9.3063 C.3     
 145 C145         -56.3009    -1.6406    -9.0282 C.3     
 146 C146         -59.6014    -6.4693    -5.4936 C.2     
 147 O147         -60.5176    -5.6829    -5.6078 O.2     
 148 N148         -58.1727    -4.5702    -5.9845 N.am    
 149 C149         -58.1804    -6.0026    -5.6775 C.3     
 150 C150         -57.3909    -6.2526    -4.3909 C.3     
 151 C151         -61.2525    -9.4390    -4.1453 C.2     
 152 O152         -60.2130    -9.8885    -3.7114 O.2     
 153 N153         -59.8542    -7.7607    -5.2022 N.am    
 154 C154         -61.2357    -8.2145    -5.0235 C.3     
 155 C155         -61.8407    -8.5561    -6.3866 C.3     
 156 O156         -61.1465    -9.6709    -6.9500 O.3     
 157 C157         -63.6164   -12.0561    -3.2266 C.2     
 158 O158         -64.4322   -11.7148    -4.0566 O.2     
 159 N159         -62.4229   -10.0347    -3.8420 N.am    
 160 C160         -62.4512   -11.1574    -2.9013 C.3     
 161 C161         -62.6011   -10.6241    -1.4751 C.3     
 162 C162         -62.4493   -11.7771    -0.4809 C.3     
 163 C163         -61.0206   -12.3209    -0.5447 C.3     
 164 C164         -62.7402   -11.2723     0.9338 C.3     
 165 C165         -66.0583   -13.6284    -1.9488 C.2     
 166 O166         -65.8938   -12.7108    -1.1802 O.2     
 167 N167         -63.7519   -13.2390    -2.5952 N.am    
 168 C168         -64.9309   -14.0719    -2.8451 C.3     
 169 C169         -64.5928   -15.5352    -2.5532 C.3     
 170 O170         -64.3087   -15.6900    -1.1613 O.3     
 171 O171         -67.2452   -14.2528    -2.0043 O.3     
 172 C172           6.4290   -11.6263   -15.3994 C.2     
 173 O173           6.9991   -11.6638   -14.3296 O.2     
 174 C174          19.8435   -22.9377   -21.9792 C.3     
 175 C175          19.2819   -22.1626   -20.7856 C.3     
 176 C176          18.0061   -21.4308   -21.2072 C.3     
 177 C177          17.4446   -20.6557   -20.0136 C.3     
 178 C178          16.1688   -19.9239   -20.4352 C.3     
 179 C179          15.6072   -19.1489   -19.2415 C.3     
 180 C180          14.3315   -18.4171   -19.6632 C.3     
 181 C181          13.7699   -17.6420   -18.4695 C.3     
 182 C182          12.4941   -16.9102   -18.8912 C.3     
 183 C183          11.9326   -16.1352   -17.6975 C.3     
 184 C184          10.6568   -15.4034   -18.1191 C.3     
 185 C185          10.0953   -14.6283   -16.9255 C.3     
 186 C186           8.8195   -13.8965   -17.3471 C.3     
 187 C187           8.2579   -13.1215   -16.1535 C.3     
 188 C188           6.9821   -12.3897   -16.5751 C.3     
 189 H189           4.8449   -10.8718   -16.3924 H       
 190 H190           4.9445   -10.7219   -13.4778 H       
 191 H191           4.9862    -8.2071   -13.5115 H       
 192 H192           7.4263    -9.4845   -14.8220 H       
 193 H193           7.4012    -8.0274   -13.8000 H       
 194 H194           7.0343    -9.6183   -13.0909 H       
 195 H195           4.2569    -7.9209   -15.8642 H       
 196 H196           5.8043    -7.0919   -15.5696 H       
 197 H197           5.7795    -8.6526   -16.4251 H       
 198 H198           2.9385    -9.3321   -12.6916 H       
 199 H199           0.9594    -8.8273   -14.7787 H       
 200 H200           0.5219   -10.9048   -12.5875 H       
 201 H201          -0.7627   -10.2539   -13.6336 H       
 202 H202           0.4518   -11.0728   -15.6344 H       
 203 H203           1.7364   -11.7236   -14.5883 H       
 204 H204           0.0828   -13.1986   -13.4753 H       
 205 H205          -1.2018   -12.5477   -14.5215 H       
 206 H206           0.0127   -13.3665   -16.5222 H       
 207 H207           1.2973   -14.0174   -15.4761 H       
 208 H208          -0.3173   -15.7039   -16.0570 H       
 209 H209          -0.4070   -15.3950   -14.4253 H       
 210 H210          -1.2514    -8.1065   -13.4164 H       
 211 H211          -0.5350    -6.8738   -10.8679 H       
 212 H212          -1.2106    -5.2226   -13.3429 H       
 213 H213          -1.1630    -4.5818   -11.6830 H       
 214 H214           0.8285    -5.9047   -14.4704 H       
 215 H215           3.2665    -5.6116   -14.6534 H       
 216 H216           4.5425    -4.6969   -12.7565 H       
 217 H217           3.3803    -4.0744   -10.6768 H       
 218 H218           0.9411    -4.3597   -10.4968 H       
 219 H219          -2.6733    -5.3504   -10.2597 H       
 220 H220          -5.1017    -6.4666   -11.4364 H       
 221 H221          -4.3164    -6.9754    -8.5324 H       
 222 H222          -5.9384    -7.2647    -9.2059 H       
 223 H223          -4.9727    -8.8485   -10.8514 H       
 224 H224          -3.3506    -8.5592   -10.1779 H       
 225 H225          -4.1150    -9.4026    -7.9749 H       
 226 H226          -5.7371    -9.6919    -8.6484 H       
 227 H227          -3.8509   -11.0447   -10.2575 H       
 228 H228          -4.0688   -14.0274    -8.4519 H       
 229 H229          -5.1983   -11.0975    -6.9901 H       
 230 H230          -5.0012   -12.7494    -6.7553 H       
 231 H231          -7.0803    -5.4952    -9.8859 H       
 232 H232          -6.3075    -2.9349    -8.7131 H       
 233 H233          -7.6814    -1.5891   -10.2278 H       
 234 H234          -6.4682    -2.4792   -11.1785 H       
 235 H235          -8.6583    -2.6918   -12.1080 H       
 236 H236          -8.6998    -1.7287    -8.2359 H       
 237 H237          -9.9981    -3.7917    -6.6116 H       
 238 H238         -10.3418    -0.7640    -6.7594 H       
 239 H239         -11.2179    -1.8225    -5.6278 H       
 240 H240          -8.3125    -0.7926    -3.6791 H       
 241 H241         -12.6414    -3.2841    -6.4773 H       
 242 H242         -13.7030    -2.6430    -9.1211 H       
 243 H243         -13.9178    -5.4366    -7.9133 H       
 244 H244         -14.8683    -4.8613    -9.3039 H       
 245 H245         -11.8198    -4.9007    -9.1874 H       
 246 H246         -13.7816    -6.7576   -10.6087 H       
 247 H247         -12.0089    -6.8061   -10.7629 H       
 248 H248         -12.7774    -7.1879    -9.2035 H       
 249 H249         -13.7919    -4.4105   -11.4650 H       
 250 H250         -12.7950    -3.1686   -10.6697 H       
 251 H251         -12.0193    -4.4590   -11.6192 H       
 252 H252         -16.3246    -3.2375    -8.9298 H       
 253 H253         -17.2489    -2.9455    -6.1751 H       
 254 H254         -18.3991    -0.8201    -6.5658 H       
 255 H255         -16.6627    -0.6116    -6.8970 H       
 256 H256         -18.0166     0.2764    -8.6531 H       
 257 H257         -19.8997    -2.5268    -6.4206 H       
 258 H258         -20.9211    -3.7858    -8.8495 H       
 259 H259         -21.1257    -5.1204    -6.1135 H       
 260 H260         -22.0577    -5.6101    -7.5487 H       
 261 H261         -19.9451    -6.0384    -8.7744 H       
 262 H262         -19.0132    -5.5487    -7.3392 H       
 263 H263         -20.0604    -7.3791    -6.0346 H       
 264 H264         -20.9924    -7.8687    -7.4699 H       
 265 H265         -18.2538    -7.8259    -8.1591 H       
 266 H266         -19.6503   -11.0017    -6.1687 H       
 267 H267         -17.0816    -9.8979    -8.2133 H       
 268 H268         -17.6799   -11.2238    -7.3725 H       
 269 H269         -23.5387    -4.1648    -8.3330 H       
 270 H270         -24.5154    -2.1665    -6.4408 H       
 271 H271         -24.8895    -1.8755    -9.4548 H       
 272 H272         -25.7833    -0.9418    -8.2309 H       
 273 H273         -22.7431    -1.0060    -8.4805 H       
 274 H274         -24.7642     1.1235    -9.3153 H       
 275 H275         -22.9934     1.2929    -9.3755 H       
 276 H276         -23.8102     0.1073   -10.4222 H       
 277 H277         -24.6436     0.7390    -6.8495 H       
 278 H278         -23.6036    -0.5511    -6.1998 H       
 279 H279         -22.8727     0.9083    -6.9098 H       
 280 H280         -27.1560    -2.0816    -6.8459 H       
 281 H281         -28.1524    -4.4990    -8.1284 H       
 282 H282         -27.4953    -5.3308    -5.8831 H       
 283 H283         -28.4948    -4.0674    -5.1262 H       
 284 H284         -30.4873    -5.0045    -6.3723 H       
 285 H285         -28.5579    -7.2983    -6.9450 H       
 286 H286         -30.2869    -7.2410    -7.3641 H       
 287 H287         -29.1415    -6.1339    -8.1582 H       
 288 H288         -30.0277    -5.5951    -4.0083 H       
 289 H289         -30.7388    -6.9719    -4.8841 H       
 290 H290         -28.9917    -6.9391    -4.5455 H       
 291 H291         -30.6686    -4.4675    -8.0886 H       
 292 H292         -31.8477    -1.9963    -7.0735 H       
 293 H293         -32.7962    -1.3657    -9.2825 H       
 294 H294         -29.7610    -1.6508    -9.3855 H       
 295 H295         -30.7483    -0.4320   -10.2270 H       
 296 H296         -30.6204    -0.4026    -8.4519 H       
 297 H297         -32.6143    -3.5186   -10.3011 H       
 298 H298         -34.3969    -2.0915    -7.7093 H       
 299 H299         -35.2926    -4.7998    -8.3343 H       
 300 H300         -35.8698    -3.4725    -5.6484 H       
 301 H301         -36.7024    -4.9226    -6.2584 H       
 302 H302         -34.5301    -6.1097    -6.4016 H       
 303 H303         -33.6975    -4.6595    -5.7916 H       
 304 H304         -35.0196    -4.7814    -3.6974 H       
 305 H305         -35.8522    -6.2315    -4.3074 H       
 306 H306         -33.6799    -7.4185    -4.4506 H       
 307 H307         -32.8473    -5.9684    -3.8406 H       
 308 H308         -33.3179    -7.5333    -2.0748 H       
 309 H309         -34.2187    -6.1547    -1.8428 H       
 310 H310         -37.9703    -4.6786    -8.0557 H       
 311 H311         -38.9406    -1.9767    -8.5905 H       
 312 H312         -39.0030    -4.1775   -10.7027 H       
 313 H313         -39.9220    -2.6563   -10.8011 H       
 314 H314         -36.8894    -2.8321   -10.5164 H       
 315 H315         -38.6279    -2.2169   -12.9487 H       
 316 H316         -36.8512    -2.1249   -12.8927 H       
 317 H317         -37.6673    -3.6957   -12.7067 H       
 318 H318         -37.9168    -0.7734    -9.5918 H       
 319 H319         -36.9969    -0.4183   -11.0737 H       
 320 H320         -38.7736    -0.5103   -11.1296 H       
 321 H321         -41.5154    -2.3397    -9.2984 H       
 322 H322         -42.7099    -3.5917    -7.0663 H       
 323 H323         -42.7875    -4.7130    -8.4465 H       
 324 H324         -45.2879    -4.0019    -7.7357 H       
 325 H325         -46.0350    -1.4721    -8.9886 H       
 326 H326         -47.4780    -2.4961   -10.6805 H       
 327 H327         -45.8130    -3.0850   -10.9021 H       
 328 H328         -47.3977    -4.8723   -10.9103 H       
 329 H329         -48.7287    -1.5409    -9.0346 H       
 330 H330         -49.7551    -3.1757    -6.8433 H       
 331 H331         -50.5053    -1.2102    -5.5246 H       
 332 H332         -47.5097    -1.2487    -6.1091 H       
 333 H333         -48.2699    -0.5511    -4.6587 H       
 334 H334         -48.3612    -2.3037    -4.9558 H       
 335 H335         -50.4592     0.3736    -7.3121 H       
 336 H336         -52.2494    -2.6641    -6.5764 H       
 337 H337         -53.5245    -2.5495    -9.0939 H       
 338 H338         -53.5489    -0.9200    -8.3781 H       
 339 H339         -57.1802    -1.9819    -6.0582 H       
 340 H340         -59.1142    -2.9676    -7.8006 H       
 341 H341         -58.7287    -1.2229    -7.6379 H       
 342 H342         -57.6588    -3.2267    -9.7047 H       
 343 H343         -58.2739    -1.5620    -9.9782 H       
 344 H344         -56.3348    -0.5528    -8.9687 H       
 345 H345         -55.6043    -1.9575    -9.8043 H       
 346 H346         -58.9097    -4.0087    -5.6975 H       
 347 H347         -57.7206    -6.5527    -6.4985 H       
 348 H348         -57.3966    -7.3184    -4.1625 H       
 349 H349         -56.3631    -5.9150    -4.5239 H       
 350 H350         -57.8507    -5.7026    -3.5698 H       
 351 H351         -59.1215    -8.3897    -5.1109 H       
 352 H352         -61.8202    -7.4230    -4.5546 H       
 353 H353         -62.8940    -8.8083    -6.2637 H       
 354 H354         -61.7479    -7.6969    -7.0509 H       
 355 H355         -61.4777    -9.9433    -7.8167 H       
 356 H356         -63.2464    -9.7200    -4.2466 H       
 357 H357         -61.5227   -11.7227    -2.9821 H       
 358 H358         -61.8316    -9.8761    -1.2842 H       
 359 H359         -63.5854   -10.1708    -1.3583 H       
 360 H360         -63.1518   -12.5709    -0.7350 H       
 361 H361         -60.3143   -11.5061    -0.3855 H       
 362 H362         -60.8845   -13.0763     0.2292 H       
 363 H363         -60.8453   -12.7677    -1.5234 H       
 364 H364         -63.7580   -10.8849     0.9793 H       
 365 H365         -62.6321   -12.0937     1.6421 H       
 366 H366         -62.0377   -10.4786     1.1880 H       
 367 H367         -63.0687   -13.5390    -1.9754 H       
 368 H368         -65.2336   -13.9699    -3.8872 H       
 369 H369         -65.4406   -16.1649    -2.8231 H       
 370 H370         -63.7208   -15.8301    -3.1369 H       
 371 H371         -64.0855   -16.5949    -0.9036 H       
 372 H372         -67.9378   -13.9328    -1.4102 H       
 373 H373          19.1050   -23.6626   -22.3216 H       
 374 H374          20.0731   -22.2435   -22.7876 H       
 375 H375          20.7523   -23.4590   -21.6788 H       
 376 H376          19.0523   -22.8567   -19.9772 H       
 377 H377          20.0203   -21.4376   -20.4432 H       
 378 H378          18.2357   -20.7367   -22.0156 H       
 379 H379          17.2677   -22.1558   -21.5496 H       
 380 H380          17.2150   -21.3499   -19.2051 H       
 381 H381          18.1830   -19.9308   -19.6712 H       
 382 H382          16.3984   -19.2298   -21.2436 H       
 383 H383          15.4304   -20.6489   -20.7776 H       
 384 H384          15.3776   -19.8430   -18.4331 H       
 385 H385          16.3457   -18.4239   -18.8992 H       
 386 H386          14.5611   -17.7229   -20.4716 H       
 387 H387          13.5930   -19.1421   -20.0055 H       
 388 H388          13.5403   -18.3362   -17.6611 H       
 389 H389          14.5083   -16.9170   -18.1272 H       
 390 H390          12.7237   -16.2161   -19.6996 H       
 391 H391          11.7557   -17.6352   -19.2335 H       
 392 H392          11.7030   -16.8293   -16.8891 H       
 393 H393          12.6710   -15.4102   -17.3551 H       
 394 H394          10.8864   -14.7092   -18.9276 H       
 395 H395           9.9184   -16.1284   -18.4615 H       
 396 H396           9.8656   -15.3225   -16.1171 H       
 397 H397          10.8337   -13.9033   -16.5831 H       
 398 H398           9.0491   -13.2024   -18.1555 H       
 399 H399           8.0810   -14.6215   -17.6895 H       
 400 H400           8.0283   -13.8156   -15.3451 H       
 401 H401           8.9964   -12.3965   -15.8111 H       
 402 H402           6.2437   -13.1147   -16.9175 H       
 403 H403           7.2118   -11.6955   -17.3835 H       
@<TRIPOS>BOND
   1    1    2 2
   2    1    4 1
   3    1   10 am
   4    3  172 am
   5    3    4 1
   6    3  189 1
   7    4    5 1
   8    4  190 1
   9    5    6 1
  10    5    7 1
  11    5  191 1
  12    6  192 1
  13    6  193 1
  14    6  194 1
  15    7  195 1
  16    7  196 1
  17    7  197 1
  18    8    9 2
  19    8   11 1
  20    8   19 am
  21   10   11 1
  22   10  198 1
  23   11   12 1
  24   11  199 1
  25   12   13 1
  26   12  200 1
  27   12  201 1
  28   13   14 1
  29   13  202 1
  30   13  203 1
  31   14   15 1
  32   14  204 1
  33   14  205 1
  34   15   16 1
  35   15  206 1
  36   15  207 1
  37   16  208 1
  38   16  209 1
  39   17   18 2
  40   17   20 1
  41   17   30 am
  42   19   20 1
  43   19  210 1
  44   20   21 1
  45   20  211 1
  46   21   22 1
  47   21  212 1
  48   21  213 1
  49   22   23 ar
  50   22   27 ar
  51   23   24 ar
  52   23  214 1
  53   24   25 ar
  54   24  215 1
  55   25   26 ar
  56   25  216 1
  57   26   27 ar
  58   26  217 1
  59   27  218 1
  60   28   29 2
  61   28   31 1
  62   28   41 am
  63   30   31 1
  64   30  219 1
  65   31   32 1
  66   31  220 1
  67   32   33 1
  68   32  221 1
  69   32  222 1
  70   33   34 1
  71   33  223 1
  72   33  224 1
  73   34   35 1
  74   34  225 1
  75   34  226 1
  76   35   36 1
  77   35  227 1
  78   36   37 2
  79   36   38 1
  80   37  228 1
  81   38  229 1
  82   38  230 1
  83   39   40 2
  84   39   42 1
  85   39   47 am
  86   41   42 1
  87   41  231 1
  88   42   43 1
  89   42  232 1
  90   43   44 1
  91   43  233 1
  92   43  234 1
  93   44  235 1
  94   45   46 2
  95   45   48 1
  96   45   55 am
  97   47   48 1
  98   47  236 1
  99   48   49 1
 100   48  237 1
 101   49   50 1
 102   49  238 1
 103   49  239 1
 104   50   51 2
 105   50   52 1
 106   52  240 1
 107   53   54 2
 108   53   56 1
 109   53   63 am
 110   55   56 1
 111   55  241 1
 112   56   57 1
 113   56  242 1
 114   57   58 1
 115   57  243 1
 116   57  244 1
 117   58   59 1
 118   58   60 1
 119   58  245 1
 120   59  246 1
 121   59  247 1
 122   59  248 1
 123   60  249 1
 124   60  250 1
 125   60  251 1
 126   61   62 2
 127   61   64 1
 128   61   69 am
 129   63   64 1
 130   63  252 1
 131   64   65 1
 132   64  253 1
 133   65   66 1
 134   65  254 1
 135   65  255 1
 136   66  256 1
 137   67   68 2
 138   67   70 1
 139   67   80 am
 140   69   70 1
 141   69  257 1
 142   70   71 1
 143   70  258 1
 144   71   72 1
 145   71  259 1
 146   71  260 1
 147   72   73 1
 148   72  261 1
 149   72  262 1
 150   73   74 1
 151   73  263 1
 152   73  264 1
 153   74   75 1
 154   74  265 1
 155   75   76 2
 156   75   77 1
 157   76  266 1
 158   77  267 1
 159   77  268 1
 160   78   79 2
 161   78   81 1
 162   78   88 am
 163   80   81 1
 164   80  269 1
 165   81   82 1
 166   81  270 1
 167   82   83 1
 168   82  271 1
 169   82  272 1
 170   83   84 1
 171   83   85 1
 172   83  273 1
 173   84  274 1
 174   84  275 1
 175   84  276 1
 176   85  277 1
 177   85  278 1
 178   85  279 1
 179   86   87 2
 180   86   89 1
 181   86   96 am
 182   88   89 1
 183   88  280 1
 184   89   90 1
 185   89  281 1
 186   90   91 1
 187   90  282 1
 188   90  283 1
 189   91   92 1
 190   91   93 1
 191   91  284 1
 192   92  285 1
 193   92  286 1
 194   92  287 1
 195   93  288 1
 196   93  289 1
 197   93  290 1
 198   94   95 2
 199   94   97 1
 200   94  103 am
 201   96   97 1
 202   96  291 1
 203   97   98 1
 204   97  292 1
 205   98   99 1
 206   98  100 1
 207   98  293 1
 208   99  294 1
 209   99  295 1
 210   99  296 1
 211  100  297 1
 212  101  102 2
 213  101  104 1
 214  101  112 am
 215  103  104 1
 216  103  298 1
 217  104  105 1
 218  104  299 1
 219  105  106 1
 220  105  300 1
 221  105  301 1
 222  106  107 1
 223  106  302 1
 224  106  303 1
 225  107  108 1
 226  107  304 1
 227  107  305 1
 228  108  109 1
 229  108  306 1
 230  108  307 1
 231  109  308 1
 232  109  309 1
 233  110  111 2
 234  110  113 1
 235  110  120 am
 236  112  113 1
 237  112  310 1
 238  113  114 1
 239  113  311 1
 240  114  115 1
 241  114  312 1
 242  114  313 1
 243  115  116 1
 244  115  117 1
 245  115  314 1
 246  116  315 1
 247  116  316 1
 248  116  317 1
 249  117  318 1
 250  117  319 1
 251  117  320 1
 252  118  119 2
 253  118  121 1
 254  118  124 am
 255  120  121 1
 256  120  321 1
 257  121  322 1
 258  121  323 1
 259  122  123 2
 260  122  125 1
 261  122  130 am
 262  124  125 1
 263  124  324 1
 264  125  126 1
 265  125  325 1
 266  126  127 1
 267  126  326 1
 268  126  327 1
 269  127  328 1
 270  128  129 2
 271  128  131 1
 272  128  137 am
 273  130  131 1
 274  130  329 1
 275  131  132 1
 276  131  330 1
 277  132  133 1
 278  132  134 1
 279  132  331 1
 280  133  332 1
 281  133  333 1
 282  133  334 1
 283  134  335 1
 284  135  136 2
 285  135  138 1
 286  135  141 am
 287  137  138 1
 288  137  336 1
 289  138  337 1
 290  138  338 1
 291  139  140 2
 292  139  148 am
 293  139  142 1
 294  141  142 1
 295  141  145 1
 296  142  143 1
 297  142  339 1
 298  143  144 1
 299  143  340 1
 300  143  341 1
 301  144  145 1
 302  144  342 1
 303  144  343 1
 304  145  344 1
 305  145  345 1
 306  146  147 2
 307  146  149 1
 308  146  153 am
 309  148  149 1
 310  148  346 1
 311  149  150 1
 312  149  347 1
 313  150  348 1
 314  150  349 1
 315  150  350 1
 316  151  152 2
 317  151  154 1
 318  151  159 am
 319  153  154 1
 320  153  351 1
 321  154  155 1
 322  154  352 1
 323  155  156 1
 324  155  353 1
 325  155  354 1
 326  156  355 1
 327  157  158 2
 328  157  160 1
 329  157  167 am
 330  159  160 1
 331  159  356 1
 332  160  161 1
 333  160  357 1
 334  161  162 1
 335  161  358 1
 336  161  359 1
 337  162  163 1
 338  162  164 1
 339  162  360 1
 340  163  361 1
 341  163  362 1
 342  163  363 1
 343  164  364 1
 344  164  365 1
 345  164  366 1
 346  165  166 2
 347  165  168 1
 348  165  171 1
 349  167  168 1
 350  167  367 1
 351  168  169 1
 352  168  368 1
 353  169  170 1
 354  169  369 1
 355  169  370 1
 356  170  371 1
 357  171  372 1
 358  172  173 2
 359  172  188 1
 360  174  175 1
 361  174  373 1
 362  174  374 1
 363  174  375 1
 364  175  176 1
 365  175  376 1
 366  175  377 1
 367  176  177 1
 368  176  378 1
 369  176  379 1
 370  177  178 1
 371  177  380 1
 372  177  381 1
 373  178  179 1
 374  178  382 1
 375  178  383 1
 376  179  180 1
 377  179  384 1
 378  179  385 1
 379  180  181 1
 380  180  386 1
 381  180  387 1
 382  181  182 1
 383  181  388 1
 384  181  389 1
 385  182  183 1
 386  182  390 1
 387  182  391 1
 388  183  184 1
 389  183  392 1
 390  183  393 1
 391  184  185 1
 392  184  394 1
 393  184  395 1
 394  185  186 1
 395  185  396 1
 396  185  397 1
 397  186  187 1
 398  186  398 1
 399  186  399 1
 400  187  188 1
 401  187  400 1
 402  187  401 1
 403  188  402 1
 404  188  403 1

#	End of record

