#	Name: ASD02030695
#	Creating user name:	WinNT
#	Creation time:	15. 06. 2019 20:15

#	Modifying user name:	WinNT
#	Modification time:	15. 06. 2019 20:15

#	Program:	/corina/corina34_cracker 3.40 0067  02.08.2006

@<TRIPOS>MOLECULE
ASD02030695
  34   36    0    0    0
SMALL
NO_CHARGES


@<TRIPOS>ATOM
   1 N1            -0.0169     1.3957     0.0097 N.2     
   2 N2             0.0021    -0.0041     0.0020 N.am    
   3 C3             1.1646    -0.6797    -0.0123 C.2     
   4 N4             2.3448    -0.0325    -0.0200 N.am    
   5 C5             2.3757     1.3164    -0.0131 C.2     
   6 C6             1.1074     2.0610     0.0026 C.2     
   7 O7             1.1494    -1.8958    -0.0178 O.2     
   8 O8             3.4386     1.9089    -0.0192 O.2     
   9 C9            -1.2627    -0.7434     0.0101 C.3     
  10 C10           -1.6892    -1.0085     1.4554 C.3     
  11 C11           -2.9902    -1.7690     1.4637 C.ar    
  12 C12           -4.1714    -1.1027     1.5811 C.ar    
  13 C13           -5.3841    -1.7887     1.5907 C.ar    
  14 C14           -5.4230    -3.1452     1.4825 C.ar    
  15 C15           -4.2241    -3.8673     1.3592 C.ar    
  16 C16           -4.2240    -5.2682     1.2458 C.ar    
  17 C17           -3.0431    -5.9341     1.1282 C.ar    
  18 C18           -1.8300    -5.2479     1.1190 C.ar    
  19 C19           -1.7910    -3.8919     1.2272 C.ar    
  20 C20           -2.9906    -3.1690     1.3445 C.ar    
  21 O21            1.1051     3.4197     0.0094 O.3     
  22 H22            3.1737    -0.5362    -0.0303 H       
  23 H23           -2.0303    -0.1556    -0.4933 H       
  24 H24           -1.1322    -1.6923    -0.5101 H       
  25 H25           -0.9215    -1.5962     1.9587 H       
  26 H26           -1.8197    -0.0596     1.9756 H       
  27 H27           -4.1686    -0.0263     1.6685 H       
  28 H28           -6.3071    -1.2361     1.6858 H       
  29 H29           -6.3704    -3.6635     1.4918 H       
  30 H30           -5.1563    -5.8133     1.2522 H       
  31 H31           -3.0459    -7.0106     1.0412 H       
  32 H32           -0.9069    -5.8007     1.0248 H       
  33 H33           -0.8435    -3.3737     1.2192 H       
  34 H34            0.2211     3.8114     0.0197 H       
@<TRIPOS>BOND
   1    1    2 1
   2    1    6 2
   3    2    3 am
   4    2    9 1
   5    3    4 am
   6    3    7 2
   7    4    5 am
   8    4   22 1
   9    5    6 1
  10    5    8 2
  11    6   21 1
  12    9   10 1
  13    9   23 1
  14    9   24 1
  15   10   11 1
  16   10   25 1
  17   10   26 1
  18   11   12 ar
  19   11   20 ar
  20   12   13 ar
  21   12   27 1
  22   13   14 ar
  23   13   28 1
  24   14   15 ar
  25   14   29 1
  26   15   16 ar
  27   15   20 ar
  28   16   17 ar
  29   16   30 1
  30   17   18 ar
  31   17   31 1
  32   18   19 ar
  33   18   32 1
  34   19   20 ar
  35   19   33 1
  36   21   34 1

#	End of record

