#	Name: ASD01850126
#	Creating user name:	WinNT
#	Creation time:	15. 06. 2019 19:38

#	Modifying user name:	WinNT
#	Modification time:	15. 06. 2019 19:38

#	Program:	/corina/corina34_cracker 3.40 0067  02.08.2006

@<TRIPOS>MOLECULE
ASD01850126
  62   66    0    0    0
SMALL
NO_CHARGES


@<TRIPOS>ATOM
   1 C1             0.0157     0.9740    -0.4802 C.ar    
   2 C2             0.1346    -0.4038    -0.5174 C.ar    
   3 C3             1.3791    -0.9962    -0.4523 C.ar    
   4 C4             2.5218    -0.2038    -0.3489 C.ar    
   5 C5             2.3901     1.1894    -0.2936 C.ar    
   6 C6             1.1445     1.7682    -0.3686 C.ar    
   7 C7             3.9615    -0.5347    -0.2851 C.2     
   8 N8             4.6853     0.5819    -0.3519 N.am    
   9 C9             3.7791     1.7323    -0.1277 C.3     
  10 C10            5.9776     1.2376    -0.6265 C.3     
  11 C11            5.5665     2.4619    -1.4812 C.3     
  12 N12            4.1437     2.7094    -1.1594 N.am    
  13 C13            3.3423     3.6452    -1.7058 C.2     
  14 C14            3.8862     4.5964    -2.6947 C.ar    
  15 C15            3.0433     5.5258    -3.3098 C.ar    
  16 C16            3.5546     6.4119    -4.2316 C.ar    
  17 C17            4.9071     6.3824    -4.5506 C.ar    
  18 C18            5.7489     5.4595    -3.9409 C.ar    
  19 C19            5.2464     4.5739    -3.0139 C.ar    
  20 O20            2.1714     3.7057    -1.3841 O.2     
  21 C21            3.9678     2.3006     1.2553 C.ar    
  22 O22            4.4166    -1.6575    -0.1865 O.2     
  23 O23            5.4070     7.2568    -5.4602 O.3     
  24 C24            4.3623     1.4759     2.2923 C.ar    
  25 C25            4.5360     1.9945     3.5611 C.ar    
  26 C26            4.3141     3.3438     3.7940 C.ar    
  27 C27            3.9182     4.1694     2.7515 C.ar    
  28 C28            3.7514     3.6472     1.4837 C.ar    
  29 C29            4.4738     8.1239    -6.1076 C.3     
  30 C30            5.2049     9.3633    -6.6273 C.3     
  31 C31            3.8217     7.3876    -7.2796 C.3     
  32 C32            3.6762     5.6358     3.0010 C.3     
  33 O33            4.4838     3.8561     5.0412 O.3     
  34 C34            4.8922     2.9475     6.0658 C.3     
  35 H35           -0.9605     1.4318    -0.5430 H       
  36 H36           -0.7501    -1.0182    -0.5972 H       
  37 H37            1.4680    -2.0722    -0.4811 H       
  38 H38            1.0469     2.8434    -0.3410 H       
  39 H39            6.4536     1.5564     0.3008 H       
  40 H40            6.6342     0.5756    -1.1911 H       
  41 H41            6.1701     3.3289    -1.2128 H       
  42 H42            5.6795     2.2365    -2.5416 H       
  43 H43            1.9921     5.5488    -3.0630 H       
  44 H44            2.9037     7.1304    -4.7075 H       
  45 H45            6.7991     5.4395    -4.1918 H       
  46 H46            5.9010     3.8571    -2.5406 H       
  47 H47            4.5346     0.4253     2.1105 H       
  48 H48            4.8439     1.3497     4.3710 H       
  49 H49            3.4432     4.2894     0.6719 H       
  50 H50            3.7055     8.4269    -5.3962 H       
  51 H51            5.9732     9.0603    -7.3387 H       
  52 H52            4.4931    10.0247    -7.1211 H       
  53 H53            5.6695     9.8879    -5.7923 H       
  54 H54            4.5900     7.0846    -7.9910 H       
  55 H55            3.3008     6.5046    -6.9093 H       
  56 H56            3.1098     8.0490    -7.7734 H       
  57 H57            4.6026     6.1886     2.8449 H       
  58 H58            2.9148     6.0008     2.3117 H       
  59 H59            3.3362     5.7785     4.0267 H       
  60 H60            4.9904     3.4843     7.0094 H       
  61 H61            4.1459     2.1601     6.1717 H       
  62 H62            5.8517     2.5051     5.7978 H       
@<TRIPOS>BOND
   1    1    2 ar
   2    1    6 ar
   3    1   35 1
   4    2    3 ar
   5    2   36 1
   6    3    4 ar
   7    3   37 1
   8    4    5 ar
   9    4    7 1
  10    5    6 ar
  11    5    9 1
  12    6   38 1
  13    7    8 am
  14    7   22 2
  15    8    9 1
  16    8   10 1
  17    9   21 1
  18    9   12 1
  19   10   11 1
  20   10   39 1
  21   10   40 1
  22   11   12 1
  23   11   41 1
  24   11   42 1
  25   12   13 am
  26   13   14 1
  27   13   20 2
  28   14   15 ar
  29   14   19 ar
  30   15   16 ar
  31   15   43 1
  32   16   17 ar
  33   16   44 1
  34   17   18 ar
  35   17   23 1
  36   18   19 ar
  37   18   45 1
  38   19   46 1
  39   21   24 ar
  40   21   28 ar
  41   23   29 1
  42   24   25 ar
  43   24   47 1
  44   25   26 ar
  45   25   48 1
  46   26   27 ar
  47   26   33 1
  48   27   28 ar
  49   27   32 1
  50   28   49 1
  51   29   30 1
  52   29   31 1
  53   29   50 1
  54   30   51 1
  55   30   52 1
  56   30   53 1
  57   31   54 1
  58   31   55 1
  59   31   56 1
  60   32   57 1
  61   32   58 1
  62   32   59 1
  63   33   34 1
  64   34   60 1
  65   34   61 1
  66   34   62 1

#	End of record

