#	Name: ASD03520011
#	Creating user name:	WinNT
#	Creation time:	15. 06. 2019 20:42

#	Modifying user name:	WinNT
#	Modification time:	15. 06. 2019 20:42

#	Program:	/corina/corina34_cracker 3.40 0067  02.08.2006

@<TRIPOS>MOLECULE
ASD03520011
  55   59    0    0    0
SMALL
NO_CHARGES


@<TRIPOS>ATOM
   1 C1            -0.1474     1.6345     0.1183 C.ar    
   2 C2            -1.1029     2.1647     0.9646 C.ar    
   3 C3            -0.8029     3.2720     1.7512 C.ar    
   4 C4             0.4523     3.8571     1.6981 C.ar    
   5 C5             1.4246     3.3395     0.8555 C.ar    
   6 C6             1.1241     2.2205     0.0596 C.ar    
   7 O7             2.6512     3.8986     0.7925 O.3     
   8 C8             3.6169     3.4237    -0.0126 C.2     
   9 C9             3.4278     2.3445    -0.8227 C.2     
  10 C10            2.1701     1.6875    -0.8278 C.2     
  11 C11            4.9294     4.0957    -0.0200 C.ar    
  12 C12            5.0074     5.4878    -0.1183 C.ar    
  13 C13            6.2370     6.1134    -0.1288 C.ar    
  14 C14            7.4137     5.3612    -0.0413 C.ar    
  15 C15            7.3260     3.9780     0.0645 C.ar    
  16 C16            6.1058     3.3455     0.0772 C.ar    
  17 O17            8.7119     5.7722    -0.0523 O.3     
  18 C18            9.5419     4.7332     0.4939 C.3     
  19 C19            8.7441     3.4493     0.1651 C.3     
  20 C20            9.6946     4.8999     1.9839 C.ar    
  21 C21           10.9114     4.6375     2.5863 C.ar    
  22 C22           11.0535     4.7902     3.9557 C.ar    
  23 C23            9.9694     5.2079     4.7225 C.ar    
  24 C24            8.7533     5.4690     4.1128 C.ar    
  25 C25            8.6198     5.3200     2.7445 C.ar    
  26 O26           10.1038     5.3589     6.0673 O.3     
  27 O27           12.2493     4.5322     4.5498 O.3     
  28 C28           13.3171     4.1071     3.7007 C.3     
  29 O29            6.3059     7.4682    -0.2251 O.3     
  30 O30            1.9638     0.7181    -1.5404 O.2     
  31 O31            4.4368     1.9007    -1.6208 O.3     
  32 O32           -0.4367     0.5510    -0.6460 O.3     
  33 O33           -1.7490     3.7849     2.5787 O.3     
  34 C34            9.1995     2.8488    -1.1665 C.3     
  35 O35            8.4281     1.6798    -1.4504 O.3     
  36 H36           -2.0850     1.7183     1.0152 H       
  37 H37            0.6733     4.7170     2.3130 H       
  38 H38            4.1034     6.0748    -0.1866 H       
  39 H39            6.0555     2.2697     0.1577 H       
  40 H40           10.5155     4.7190     0.0041 H       
  41 H41            8.8316     2.7195     0.9700 H       
  42 H42           11.7508     4.3132     1.9891 H       
  43 H43            7.9107     5.7932     4.7055 H       
  44 H44            7.6724     5.5281     2.2697 H       
  45 H45           10.3832     6.2443     6.3378 H       
  46 H46           13.0348     3.1826     3.1970 H       
  47 H47           13.5196     4.8784     2.9576 H       
  48 H48           14.2116     3.9360     4.2997 H       
  49 H49            6.3008     7.9239     0.6278 H       
  50 H50            4.2042     1.1304    -2.1572 H       
  51 H51           -0.7996     0.7686    -1.5156 H       
  52 H52           -1.7470     3.3992     3.4654 H       
  53 H53            9.0574     3.5799    -1.9623 H       
  54 H54           10.2543     2.5815    -1.1027 H       
  55 H55            8.6633     1.2458    -2.2819 H       
@<TRIPOS>BOND
   1    1    2 ar
   2    1    6 ar
   3    1   32 1
   4    2    3 ar
   5    2   36 1
   6    3    4 ar
   7    3   33 1
   8    4    5 ar
   9    4   37 1
  10    5    7 1
  11    5    6 ar
  12    6   10 1
  13    7    8 1
  14    8    9 2
  15    8   11 1
  16    9   10 1
  17    9   31 1
  18   10   30 2
  19   11   12 ar
  20   11   16 ar
  21   12   13 ar
  22   12   38 1
  23   13   14 ar
  24   13   29 1
  25   14   15 ar
  26   14   17 1
  27   15   16 ar
  28   15   19 1
  29   16   39 1
  30   17   18 1
  31   18   19 1
  32   18   20 1
  33   18   40 1
  34   19   34 1
  35   19   41 1
  36   20   21 ar
  37   20   25 ar
  38   21   22 ar
  39   21   42 1
  40   22   23 ar
  41   22   27 1
  42   23   24 ar
  43   23   26 1
  44   24   25 ar
  45   24   43 1
  46   25   44 1
  47   26   45 1
  48   27   28 1
  49   28   46 1
  50   28   47 1
  51   28   48 1
  52   29   49 1
  53   31   50 1
  54   32   51 1
  55   33   52 1
  56   34   35 1
  57   34   53 1
  58   34   54 1
  59   35   55 1

#	End of record

