#	Name: ASD04500015
#	Creating user name:	WinNT
#	Creation time:	15. 06. 2019 20:49

#	Modifying user name:	WinNT
#	Modification time:	15. 06. 2019 20:49

#	Program:	/corina/corina34_cracker 3.40 0067  02.08.2006

@<TRIPOS>MOLECULE
ASD04500015
  81   87    0    0    0
SMALL
NO_CHARGES


@<TRIPOS>ATOM
   1 C1             0.9794    -0.4936     1.2197 C.ar    
   2 C2             1.2604    -1.8300     1.2657 C.ar    
   3 C3             2.5674    -2.2815     1.3956 C.ar    
   4 C4             3.6126    -1.3876     1.4812 C.ar    
   5 C5             3.3489    -0.0200     1.4358 C.ar    
   6 C6             2.0181     0.4382     1.3036 C.ar    
   7 N7             1.7809     1.7645     1.2614 N.2     
   8 C8             4.4227     0.9806     1.5220 C.2     
   9 N9             4.0661     2.2852     1.4684 N.am    
  10 C10            2.7509     2.6386     1.3393 C.2     
  11 O11            5.5880     0.6484     1.6375 O.2     
  12 C12            2.4098     4.0760     1.2856 C.ar    
  13 C13            1.3526     5.9277     0.1735 C.ar    
  14 C14            1.6688     4.5801     0.2167 C.ar    
  15 C15            2.8231     4.9327     2.3076 C.ar    
  16 C16            2.5026     6.2735     2.2546 C.ar    
  17 C17            1.7720     6.7728     1.1918 C.ar    
  18 C18            5.0948     3.3251     1.5502 C.3     
  19 N19            8.3122     6.0054    -1.0780 N.pl3   
  20 N20            8.1625     7.1755    -0.5630 N.2     
  21 N21            9.2602     7.8408    -0.6466 N.2     
  22 C22           10.1835     7.0796    -1.2445 C.2     
  23 C23            9.5847     5.8987    -1.5256 C.2     
  24 C24           11.6097     7.4618    -1.5462 C.3     
  25 N25           11.6628     8.1835    -2.8200 N.am    
  26 C26           11.4159     9.5291    -2.8499 C.2     
  27 N27           11.4467    10.2364    -3.9509 N.2     
  28 C28           11.7278     9.6762    -5.1443 C.ar    
  29 C29           11.9963     8.2896    -5.2092 C.ar    
  30 C30           11.9611     7.5163    -3.9591 C.2     
  31 C31           11.7602    10.4349    -6.3178 C.ar    
  32 C32           12.0519     9.8246    -7.5166 C.ar    
  33 C33           12.3150     8.4624    -7.5761 C.ar    
  34 C34           12.2929     7.6933    -6.4328 C.ar    
  35 C35           11.0997    10.2151    -1.5813 C.ar    
  36 C36           11.9746    10.1194    -0.4963 C.ar    
  37 C37           11.6759    10.7608     0.6856 C.ar    
  38 C38           10.5063    11.5024     0.7995 C.ar    
  39 C39            9.6335    11.6001    -0.2773 C.ar    
  40 C40            9.9277    10.9664    -1.4645 C.ar    
  41 O41           12.1882     6.3205    -3.9495 O.2     
  42 C42            5.6520     3.6023     0.1525 C.3     
  43 C43            6.7263     4.6883     0.2379 C.3     
  44 C44            7.2835     4.9655    -1.1598 C.3     
  45 S45           -0.8743     6.3949    -0.6445 S.o2    
  46 O46           -0.9147     7.2179     0.5132 O.2     
  47 O47           -1.0186     4.9914    -0.4754 O.2     
  48 O48           -1.2636     6.9646    -1.8868 O.2     
  49 O49            0.6312     6.4231    -0.8664 O.3     
  50 S50           10.7571    13.5523     2.0547 S.o2    
  51 O51           10.0692    14.0922     0.9347 O.2     
  52 O52           12.1363    13.2423     1.9095 O.2     
  53 O53           10.2725    13.8636     3.3537 O.2     
  54 O54           10.2152    12.1328     1.9662 O.3     
  55 H55           -0.0418    -0.1582     1.1143 H       
  56 H56            0.4542    -2.5457     1.2004 H       
  57 H57            2.7662    -3.3425     1.4302 H       
  58 H58            4.6271    -1.7437     1.5828 H       
  59 H59            1.3430     3.9216    -0.5749 H       
  60 H60            3.3932     4.5460     3.1394 H       
  61 H61            2.8229     6.9353     3.0457 H       
  62 H62            1.5244     7.8234     1.1554 H       
  63 H63            4.6573     4.2379     1.9545 H       
  64 H64            5.9006     2.9885     2.2024 H       
  65 H65           10.0326     5.0432    -2.0092 H       
  66 H66           11.9906     8.1014    -0.7501 H       
  67 H67           12.2207     6.5616    -1.6129 H       
  68 H68           11.5569    11.4951    -6.2841 H       
  69 H69           12.0760    10.4125    -8.4223 H       
  70 H70           12.5414     8.0020    -8.5265 H       
  71 H71           12.5060     6.6359    -6.4848 H       
  72 H72           12.8837     9.5429    -0.5839 H       
  73 H73           12.3515    10.6870     1.5249 H       
  74 H74            8.7254    12.1774    -0.1848 H       
  75 H75            9.2490    11.0431    -2.3011 H       
  76 H76            6.0895     2.6895    -0.2518 H       
  77 H77            4.8461     3.9389    -0.4997 H       
  78 H78            6.2888     5.6011     0.6423 H       
  79 H79            7.5322     4.3517     0.8902 H       
  80 H80            6.4777     5.3021    -1.8120 H       
  81 H81            7.7210     4.0527    -1.5641 H       
@<TRIPOS>BOND
   1    1    2 ar
   2    1    6 ar
   3    1   55 1
   4    2    3 ar
   5    2   56 1
   6    3    4 ar
   7    3   57 1
   8    4    5 ar
   9    4   58 1
  10    5    6 ar
  11    5    8 1
  12    6    7 1
  13    7   10 2
  14    8    9 am
  15    8   11 2
  16    9   10 1
  17    9   18 1
  18   10   12 1
  19   12   15 ar
  20   12   14 ar
  21   13   14 ar
  22   13   17 ar
  23   13   49 1
  24   14   59 1
  25   15   16 ar
  26   15   60 1
  27   16   17 ar
  28   16   61 1
  29   17   62 1
  30   18   42 1
  31   18   63 1
  32   18   64 1
  33   19   20 1
  34   19   23 1
  35   19   44 1
  36   20   21 2
  37   21   22 1
  38   22   23 2
  39   22   24 1
  40   23   65 1
  41   24   25 1
  42   24   66 1
  43   24   67 1
  44   25   26 1
  45   25   30 am
  46   26   27 2
  47   26   35 1
  48   27   28 1
  49   28   31 ar
  50   28   29 ar
  51   29   30 1
  52   29   34 ar
  53   30   41 2
  54   31   32 ar
  55   31   68 1
  56   32   33 ar
  57   32   69 1
  58   33   34 ar
  59   33   70 1
  60   34   71 1
  61   35   36 ar
  62   35   40 ar
  63   36   37 ar
  64   36   72 1
  65   37   38 ar
  66   37   73 1
  67   38   39 ar
  68   38   54 1
  69   39   40 ar
  70   39   74 1
  71   40   75 1
  72   42   43 1
  73   42   76 1
  74   42   77 1
  75   43   44 1
  76   43   78 1
  77   43   79 1
  78   44   80 1
  79   44   81 1
  80   45   46 2
  81   45   47 2
  82   45   48 2
  83   45   49 1
  84   50   51 2
  85   50   52 2
  86   50   53 2
  87   50   54 1

#	End of record

