#	Name: ASD02038364
#	Creating user name:	WinNT
#	Creation time:	15. 06. 2019 20:16

#	Modifying user name:	WinNT
#	Modification time:	15. 06. 2019 20:16

#	Program:	/corina/corina34_cracker 3.40 0067  02.08.2006

@<TRIPOS>MOLECULE
ASD02038364
  54   56    0    0    0
SMALL
NO_CHARGES


@<TRIPOS>ATOM
   1 N1            -0.0230     1.6541     0.0111 N.am    
   2 C2            14.5706     9.5475     1.5268 C.ar    
   3 C3            14.1359     8.8028     0.4441 C.ar    
   4 C4            13.9986     9.3574     2.7756 C.ar    
   5 C5            12.9924     8.4226     2.9405 C.ar    
   6 C6            12.5563     7.6755     1.8546 C.ar    
   7 C7            13.1313     7.8684     0.6051 C.ar    
   8 N8            11.5397     6.7297     2.0187 N.3     
   9 N9             9.2261     5.2224     1.8733 N.am    
  10 C10            9.2039     6.3517     2.5890 C.2     
  11 C11           10.3262     7.3505     2.5664 C.3     
  12 C12            8.0645     4.3319     1.9349 C.3     
  13 C13            7.0674     4.7176     0.8404 C.3     
  14 C14            5.8011     3.8708     0.9826 C.3     
  15 O15            7.6542     4.4853    -0.4418 O.3     
  16 O16            4.8255     4.3100     0.0353 O.3     
  17 C17            3.6327     3.6568     0.0295 C.ar    
  18 C18            2.6412     4.0323    -0.8648 C.ar    
  19 C19            1.4297     3.3692    -0.8716 C.ar    
  20 C20            1.2044     2.3262     0.0171 C.ar    
  21 C21            2.1977     1.9509     0.9120 C.ar    
  22 C22            3.4104     2.6117     0.9139 C.ar    
  23 C23           10.3562     4.8376     1.0326 C.3     
  24 C24           11.2353     6.0563     0.7460 C.3     
  25 F25           15.5571    10.4568     1.3679 F       
  26 O26            8.2374     6.5794     3.2853 O.2     
  27 F27           14.4241    10.0851     3.8313 F       
  28 S28           -1.1281     1.9376     1.2113 S.o2    
  29 O29           -2.2336     1.1117     0.8720 O.2     
  30 O30           -0.4003     1.7300     2.4140 O.2     
  31 C31           -1.5609     3.6892     1.0235 C.3     
  32 H32           -0.2280     1.0251    -0.6983 H       
  33 H33           14.5824     8.9526    -0.5278 H       
  34 H34           12.5471     8.2736     3.9131 H       
  35 H35           12.7928     7.2882    -0.2406 H       
  36 H36           10.5231     7.6965     3.5811 H       
  37 H37           10.0422     8.1998     1.9449 H       
  38 H38            8.3880     3.3018     1.7852 H       
  39 H39            7.5870     4.4245     2.9104 H       
  40 H40            6.8118     5.7727     0.9372 H       
  41 H41            6.0414     2.8238     0.7978 H       
  42 H42            5.4027     3.9796     1.9914 H       
  43 H43            7.9072     3.5651    -0.5977 H       
  44 H44            2.8165     4.8434    -1.5559 H       
  45 H45            0.6575     3.6622    -1.5675 H       
  46 H46            2.0233     1.1399     1.6035 H       
  47 H47            4.1832     2.3197     1.6096 H       
  48 H48           10.9466     4.0785     1.5457 H       
  49 H49            9.9851     4.4301     0.0922 H       
  50 H50           10.7040     6.7431     0.0870 H       
  51 H51           12.1625     5.7348     0.2716 H       
  52 H52           -1.9006     3.8723     0.0041 H       
  53 H53           -2.3571     3.9438     1.7231 H       
  54 H54           -0.6850     4.3041     1.2306 H       
@<TRIPOS>BOND
   1    1   28 am
   2    1   20 1
   3    1   32 1
   4    2    3 ar
   5    2    4 ar
   6    2   25 1
   7    3    7 ar
   8    3   33 1
   9    4    5 ar
  10    4   27 1
  11    5    6 ar
  12    5   34 1
  13    6    7 ar
  14    6    8 1
  15    7   35 1
  16    8   24 1
  17    8   11 1
  18    9   10 am
  19    9   12 1
  20    9   23 1
  21   10   11 1
  22   10   26 2
  23   11   36 1
  24   11   37 1
  25   12   13 1
  26   12   38 1
  27   12   39 1
  28   13   15 1
  29   13   14 1
  30   13   40 1
  31   14   16 1
  32   14   41 1
  33   14   42 1
  34   15   43 1
  35   16   17 1
  36   17   18 ar
  37   17   22 ar
  38   18   19 ar
  39   18   44 1
  40   19   20 ar
  41   19   45 1
  42   20   21 ar
  43   21   22 ar
  44   21   46 1
  45   22   47 1
  46   23   24 1
  47   23   48 1
  48   23   49 1
  49   24   50 1
  50   24   51 1
  51   28   29 2
  52   28   30 2
  53   28   31 1
  54   31   52 1
  55   31   53 1
  56   31   54 1

#	End of record

