#	Name: ASD09080033
#	Creating user name:	WinNT
#	Creation time:	15. 06. 2019 21:20

#	Modifying user name:	WinNT
#	Modification time:	15. 06. 2019 21:20

#	Program:	/corina/corina34_cracker 3.40 0067  02.08.2006

@<TRIPOS>MOLECULE
ASD09080033
  55   56    0    0    0
SMALL
NO_CHARGES


@<TRIPOS>ATOM
   1 C1            -0.0167     1.3772     0.0096 C.ar    
   2 C2             0.0021    -0.0041     0.0020 C.ar    
   3 C3             1.2087    -0.6820    -0.0127 C.ar    
   4 C4             2.4019     0.0195    -0.0203 C.ar    
   5 C5             2.3936     1.4009    -0.0128 C.ar    
   6 C6             1.1817     2.0879     0.0020 C.ar    
   7 Cl7           -1.4902    -0.8910     0.0115 Cl      
   8 Cl8            3.9112    -0.8380    -0.0387 Cl      
   9 C9             1.1672     3.5718     0.0096 C.ar    
  10 C10           -0.0448     4.2591     0.0244 C.ar    
  11 C11            2.3655     4.2827     0.0078 C.ar    
  12 C12           -0.0524     5.6392     0.0319 C.ar    
  13 C13            1.1401     6.3400     0.0248 C.ar    
  14 C14            2.3461     5.6628     0.0154 C.ar    
  15 C15            1.1254     7.8469     0.0325 C.3     
  16 C16            1.1333     8.3496     1.4776 C.3     
  17 N17           -0.1087     7.9465     2.1417 N.am    
  18 C18            1.2442     9.8756     1.4861 C.3     
  19 C19           -1.2965     8.3619     1.6590 C.2     
  20 C20           -2.5742     7.9472     2.3421 C.3     
  21 O21           -1.3371     9.0695     0.6748 O.2     
  22 O22           -3.6896     8.5097     1.6482 O.3     
  23 C23           -4.9569     8.1758     2.2178 C.3     
  24 C24            1.3776    10.3691     2.9282 C.3     
  25 O25            0.1778    10.0732     3.6459 O.3     
  26 C26            1.6097    11.8581     2.9300 C.2     
  27 O27            0.7833    12.5978     3.4093 O.2     
  28 O28            2.7346    12.3627     2.3992 O.3     
  29 C29            4.2237    14.1907     1.7898 C.3     
  30 C30            2.8912    13.8058     2.4357 C.3     
  31 H31           -0.9587     1.9054     0.0170 H       
  32 H32            1.2193    -1.7620    -0.0179 H       
  33 H33            3.3252     1.9474    -0.0180 H       
  34 H34           -0.9765     3.7129     0.0296 H       
  35 H35            3.3077     3.7549     0.0009 H       
  36 H36           -0.9912     6.1730     0.0430 H       
  37 H37            3.2743     6.2149     0.0099 H       
  38 H38            2.0071     8.2216    -0.4873 H       
  39 H39            0.2273     8.2041    -0.4715 H       
  40 H40            1.9841     7.9205     2.0068 H       
  41 H41           -0.0762     7.3805     2.9288 H       
  42 H42            2.1218    10.1793     0.9155 H       
  43 H43            0.3505    10.3073     1.0356 H       
  44 H44           -2.6531     6.8601     2.3360 H       
  45 H45           -2.5685     8.3053     3.3716 H       
  46 H46           -5.7514     8.6406     1.6340 H       
  47 H47           -5.0853     7.0934     2.2091 H       
  48 H48           -5.0007     8.5386     3.2447 H       
  49 H49            2.2198     9.8695     3.4068 H       
  50 H50           -0.6142    10.4859     3.2751 H       
  51 H51            5.0416    13.7225     2.3375 H       
  52 H52            4.2375    13.8498     0.7546 H       
  53 H53            4.3412    15.2740     1.8172 H       
  54 H54            2.0733    14.2739     1.8881 H       
  55 H55            2.8773    14.1466     3.4710 H       
@<TRIPOS>BOND
   1    1    2 ar
   2    1    6 ar
   3    1   31 1
   4    2    3 ar
   5    2    7 1
   6    3    4 ar
   7    3   32 1
   8    4    5 ar
   9    4    8 1
  10    5    6 ar
  11    5   33 1
  12    6    9 1
  13    9   10 ar
  14    9   11 ar
  15   10   12 ar
  16   10   34 1
  17   11   14 ar
  18   11   35 1
  19   12   13 ar
  20   12   36 1
  21   13   14 ar
  22   13   15 1
  23   14   37 1
  24   15   16 1
  25   15   38 1
  26   15   39 1
  27   16   17 1
  28   16   18 1
  29   16   40 1
  30   17   19 am
  31   17   41 1
  32   18   24 1
  33   18   42 1
  34   18   43 1
  35   19   20 1
  36   19   21 2
  37   20   22 1
  38   20   44 1
  39   20   45 1
  40   22   23 1
  41   23   46 1
  42   23   47 1
  43   23   48 1
  44   24   25 1
  45   24   26 1
  46   24   49 1
  47   25   50 1
  48   26   27 2
  49   26   28 1
  50   28   30 1
  51   29   30 1
  52   29   51 1
  53   29   52 1
  54   29   53 1
  55   30   54 1
  56   30   55 1

#	End of record

