#	Name: ASD01814805
#	Creating user name:	WinNT
#	Creation time:	15. 06. 2019 19:33

#	Modifying user name:	WinNT
#	Modification time:	15. 06. 2019 19:33

#	Program:	/corina/corina34_cracker 3.40 0067  02.08.2006

@<TRIPOS>MOLECULE
ASD01814805
  61   65    0    0    0
SMALL
NO_CHARGES


@<TRIPOS>ATOM
   1 C1            -1.4426     1.0336    -0.1685 C.3     
   2 N2            -0.6813    -0.2153    -0.0871 N.am    
   3 C3            -0.5637    -0.9195     1.1922 C.3     
   4 C4             0.1132    -0.0065     2.2165 C.3     
   5 C5             0.2359    -0.7419     3.5526 C.3     
   6 C6            -1.1579    -1.1253     4.0536 C.3     
   7 C7            -1.8348    -2.0383     3.0293 C.3     
   8 C8            -1.9576    -1.3029     1.6933 C.3     
   9 C9            -0.0890    -0.7166    -1.1891 C.2     
  10 O10            0.6242    -1.6985    -1.1031 O.2     
  11 C11           -0.3046    -0.0772    -2.4943 C.2     
  12 C12           -0.5267     1.2492    -2.7266 C.2     
  13 N13           -0.6791     1.4625    -4.0545 N.pl3   
  14 C14           -0.9318     2.7685    -4.6685 C.3     
  15 C15           -2.4145     2.9525    -4.8653 C.ar    
  16 C16           -3.0104     2.5356    -6.0419 C.ar    
  17 C17           -4.3681     2.7014    -6.2272 C.ar    
  18 C18           -5.1384     3.2897    -5.2267 C.ar    
  19 C19           -4.5332     3.7077    -4.0437 C.ar    
  20 C20           -3.1756     3.5324    -3.8666 C.ar    
  21 C21           -6.5992     3.4710    -5.4207 C.2     
  22 C22           -7.3412     3.0928    -6.5565 C.2     
  23 N23           -8.5906     3.4157    -6.3511 N.2     
  24 N24           -8.6950     4.0078    -5.0867 N.pl3   
  25 C25           -9.9263     4.5118    -4.4733 C.3     
  26 C26           -7.4678     4.0289    -4.5287 C.2     
  27 C27           -0.5618     0.2764    -4.7473 C.ar    
  28 C28           -0.6338    -0.0556    -6.0970 C.ar    
  29 C29           -0.4656    -1.3813    -6.4563 C.ar    
  30 C30           -0.2328    -2.3327    -5.4763 C.ar    
  31 N31           -0.1684    -1.9998    -4.2042 N.ar    
  32 C32           -0.3171    -0.7417    -3.8101 C.ar    
  33 H33           -0.7639     1.8803    -0.0652 H       
  34 H34           -1.9482     1.0888    -1.1326 H       
  35 H35           -2.1823     1.0611     0.6316 H       
  36 H36            0.0345    -1.8206     1.0573 H       
  37 H37            1.1062     0.2667     1.8596 H       
  38 H38           -0.4851     0.8946     2.3514 H       
  39 H39            0.8341    -1.6430     3.4177 H       
  40 H40            0.7181    -0.0915     4.2823 H       
  41 H41           -1.0705    -1.6492     5.0055 H       
  42 H42           -1.7562    -0.2242     4.1885 H       
  43 H43           -1.2366    -2.9394     2.8945 H       
  44 H44           -2.8278    -2.3114     3.3863 H       
  45 H45           -2.5558    -0.4018     1.8281 H       
  46 H46           -2.4398    -1.9533     0.9635 H       
  47 H47           -0.5742     2.0137    -1.9652 H       
  48 H48           -0.5512     3.5557    -4.0176 H       
  49 H49           -0.4280     2.8198    -5.6337 H       
  50 H50           -2.4122     2.0799    -6.8171 H       
  51 H51           -4.8324     2.3758    -7.1464 H       
  52 H52           -5.1258     4.1648    -3.2650 H       
  53 H53           -2.7060     3.8525    -2.9481 H       
  54 H54           -6.9463     2.6188    -7.4429 H       
  55 H55          -10.4013     3.7135    -3.9031 H       
  56 H56           -9.6874     5.3412    -3.8075 H       
  57 H57          -10.6061     4.8557    -5.2527 H       
  58 H58           -7.2173     4.4191    -3.5533 H       
  59 H59           -0.8165     0.7020    -6.8447 H       
  60 H60           -0.5159    -1.6728    -7.4950 H       
  61 H61           -0.1021    -3.3662    -5.7612 H       
@<TRIPOS>BOND
   1    1    2 1
   2    1   33 1
   3    1   34 1
   4    1   35 1
   5    2    3 1
   6    2    9 am
   7    3    8 1
   8    3    4 1
   9    3   36 1
  10    4    5 1
  11    4   37 1
  12    4   38 1
  13    5    6 1
  14    5   39 1
  15    5   40 1
  16    6    7 1
  17    6   41 1
  18    6   42 1
  19    7    8 1
  20    7   43 1
  21    7   44 1
  22    8   45 1
  23    8   46 1
  24    9   10 2
  25    9   11 1
  26   11   32 1
  27   11   12 2
  28   12   13 1
  29   12   47 1
  30   13   14 1
  31   13   27 1
  32   14   15 1
  33   14   48 1
  34   14   49 1
  35   15   20 ar
  36   15   16 ar
  37   16   17 ar
  38   16   50 1
  39   17   18 ar
  40   17   51 1
  41   18   19 ar
  42   18   21 1
  43   19   20 ar
  44   19   52 1
  45   20   53 1
  46   21   26 2
  47   21   22 1
  48   22   23 2
  49   22   54 1
  50   23   24 1
  51   24   25 1
  52   24   26 1
  53   25   55 1
  54   25   56 1
  55   25   57 1
  56   26   58 1
  57   27   32 ar
  58   27   28 ar
  59   28   29 ar
  60   28   59 1
  61   29   30 ar
  62   29   60 1
  63   30   31 ar
  64   30   61 1
  65   31   32 ar

#	End of record

