#	Name: ASD03490100
#	Creating user name:	WinNT
#	Creation time:	15. 06. 2019 20:42

#	Modifying user name:	WinNT
#	Modification time:	15. 06. 2019 20:42

#	Program:	/corina/corina34_cracker 3.40 0067  02.08.2006

@<TRIPOS>MOLECULE
ASD03490100
  60   63    0    0    0
SMALL
NO_CHARGES


@<TRIPOS>ATOM
   1 C1            -0.0988     1.6029    -0.4758 C.ar    
   2 C2            -0.1455     0.3668    -1.1393 C.ar    
   3 C3             0.9805    -0.1272    -1.7240 C.ar    
   4 C4             2.1822     0.5765    -1.6738 C.ar    
   5 C5             2.2644     1.7775    -1.0388 C.ar    
   6 C6             1.1221     2.3193    -0.4245 C.ar    
   7 C7             1.1701     3.5577     0.2385 C.ar    
   8 C8             0.0483     4.0587     0.8248 C.ar    
   9 C9            -1.1570     3.3637     0.7810 C.ar    
  10 C10           -1.2470     2.1490     0.1369 C.ar    
  11 N11           -2.4620     1.4627     0.0941 N.am    
  12 C12           -3.6227     2.1407     0.1919 C.2     
  13 N13           -4.7962     1.4881     0.0750 N.am    
  14 O14           -3.6112     3.3409     0.3856 O.2     
  15 C15           -5.9902     2.1855     0.1756 C.2     
  16 C16           -7.2346     1.6189     0.0774 C.2     
  17 S17           -6.1125     3.8640     0.4457 S.3     
  18 C18           -7.8664     3.8190     0.4206 C.2     
  19 C19           -8.3029     2.5838     0.2209 C.2     
  20 C20           -7.4589     0.1881    -0.1494 C.2     
  21 C21           -8.7558     5.0212     0.6064 C.3     
  22 C22           -9.6511     4.8092     1.8288 C.3     
  23 C23           -7.8924     6.2668     0.8164 C.3     
  24 C24           -9.6269     5.2083    -0.6375 C.3     
  25 N25           -8.2326    -0.2184    -1.1754 N.am    
  26 O26           -6.9464    -0.6327     0.5888 O.2     
  27 C27           -8.7393     0.7639    -2.1352 C.3     
  28 C28           -8.5537    -1.6389    -1.3231 C.3     
  29 C29          -10.0623    -1.8429    -1.1528 C.3     
  30 S30          -10.9365    -0.8415    -2.3910 S.o2    
  31 C31          -10.2679     0.8188    -2.0524 C.3     
  32 O32          -10.5081    -1.2431    -3.6850 O.2     
  33 O33          -12.3238    -0.8477    -2.0834 O.2     
  34 H34           -1.0698    -0.1898    -1.1854 H       
  35 H35            0.9418    -1.0785    -2.2339 H       
  36 H36            3.0613     0.1626    -2.1453 H       
  37 H37            3.2026     2.3116    -1.0072 H       
  38 H38            2.0965     4.1112     0.2832 H       
  39 H39            0.0944     5.0108     1.3325 H       
  40 H40           -2.0326     3.7832     1.2542 H       
  41 H41           -2.4708     0.4979    -0.0059 H       
  42 H42           -4.8054     0.5306    -0.0795 H       
  43 H43           -9.3500     2.3236     0.1722 H       
  44 H44           -9.0305     4.6760     2.7150 H       
  45 H45          -10.2944     5.6788     1.9632 H       
  46 H46          -10.2662     3.9219     1.6792 H       
  47 H47           -7.2546     6.4178    -0.0545 H       
  48 H48           -8.5358     7.1364     0.9507 H       
  49 H49           -7.2719     6.1335     1.7025 H       
  50 H50          -10.2420     4.3209    -0.7871 H       
  51 H51          -10.2702     6.0778    -0.5031 H       
  52 H52           -8.9891     5.3593    -1.5084 H       
  53 H53           -8.3274     1.7457    -1.9019 H       
  54 H54           -8.4403     0.4748    -3.1428 H       
  55 H55           -8.2508    -1.9787    -2.3136 H       
  56 H56           -8.0216    -2.2124    -0.5641 H       
  57 H57          -10.3067    -2.8954    -1.2961 H       
  58 H58          -10.3621    -1.5299    -0.1526 H       
  59 H59          -10.5680     1.1352    -1.0534 H       
  60 H60          -10.6482     1.5253    -2.7902 H       
@<TRIPOS>BOND
   1    1    2 ar
   2    1    6 ar
   3    1   10 ar
   4    2    3 ar
   5    2   34 1
   6    3    4 ar
   7    3   35 1
   8    4    5 ar
   9    4   36 1
  10    5    6 ar
  11    5   37 1
  12    6    7 ar
  13    7    8 ar
  14    7   38 1
  15    8    9 ar
  16    8   39 1
  17    9   10 ar
  18    9   40 1
  19   10   11 1
  20   11   12 am
  21   11   41 1
  22   12   13 am
  23   12   14 2
  24   13   15 1
  25   13   42 1
  26   15   17 1
  27   15   16 2
  28   16   19 1
  29   16   20 1
  30   17   18 1
  31   18   19 2
  32   18   21 1
  33   19   43 1
  34   20   25 am
  35   20   26 2
  36   21   22 1
  37   21   23 1
  38   21   24 1
  39   22   44 1
  40   22   45 1
  41   22   46 1
  42   23   47 1
  43   23   48 1
  44   23   49 1
  45   24   50 1
  46   24   51 1
  47   24   52 1
  48   25   28 1
  49   25   27 1
  50   27   31 1
  51   27   53 1
  52   27   54 1
  53   28   29 1
  54   28   55 1
  55   28   56 1
  56   29   30 1
  57   29   57 1
  58   29   58 1
  59   30   31 1
  60   30   32 2
  61   30   33 2
  62   31   59 1
  63   31   60 1

#	End of record

