#	Name: ASD01000069
#	Creating user name:	WinNT
#	Creation time:	15. 06. 2019 18:54

#	Modifying user name:	WinNT
#	Modification time:	15. 06. 2019 18:54

#	Program:	/corina/corina34_cracker 3.40 0067  02.08.2006

@<TRIPOS>MOLECULE
ASD01000069
  41   43    0    0    0
SMALL
NO_CHARGES


@<TRIPOS>ATOM
   1 C1            -0.0187     1.5258     0.0104 C.3     
   2 C2             0.7414    -0.5150     1.2403 C.3     
   3 C3            -3.5892    -5.1015    -2.5227 C.ar    
   4 C4            -4.3683    -5.5381    -1.4690 C.ar    
   5 C5            -2.2944    -4.6725    -2.2954 C.ar    
   6 C6            -2.5515    -5.1154     0.0436 C.ar    
   7 C7            -1.4341    -0.5386     0.0026 C.3     
   8 C8             0.7042    -0.5019    -1.2633 C.3     
   9 C9            -1.3970    -2.0396    -0.0904 C.2     
  10 C10            1.8438    -4.1113    -1.7329 C.3     
  11 C11            0.6729    -2.0093    -1.3011 C.2     
  12 C12           -0.3399    -2.7019    -0.7347 C.2     
  13 C13           -3.8506    -5.5463    -0.1817 C.ar    
  14 C14           -1.7764    -4.6792    -1.0137 C.ar    
  15 C15           -0.3649    -4.2109    -0.7697 C.3     
  16 C16            0.0021    -0.0041     0.0020 C.3     
  17 N17            1.6963    -2.6639    -1.9303 N.pl3   
  18 N18            0.5039    -4.7155    -1.8383 N.3     
  19 O19           -2.2980    -2.6905     0.4012 O.2     
  20 O20           -4.6153    -5.9749     0.8568 O.3     
  21 S21            2.9311    -4.7989    -3.0119 S.3     
  22 H22            1.0039     1.9031     0.0027 H       
  23 H23           -0.5459     1.8868    -0.8726 H       
  24 H24           -0.5289     1.8773     0.9072 H       
  25 H25            0.2317    -0.1650     2.1379 H       
  26 H26            0.7546    -1.6049     1.2316 H       
  27 H27            1.7645    -0.1392     1.2334 H       
  28 H28           -3.9903    -5.0992    -3.5255 H       
  29 H29           -5.3796    -5.8728    -1.6469 H       
  30 H30           -1.6867    -4.3318    -3.1207 H       
  31 H31           -2.1462    -5.1208     1.0447 H       
  32 H32           -1.9746    -0.1332    -0.8527 H       
  33 H33           -1.9332    -0.2424     0.9253 H       
  34 H34            1.7393    -0.1604    -1.2621 H       
  35 H35            0.1932    -0.1063    -2.1411 H       
  36 H36            2.2619    -4.3091    -0.7459 H       
  37 H37           -0.0181    -4.5986     0.1882 H       
  38 H38            2.3154    -2.1789    -2.4981 H       
  39 H39            0.0991    -4.5413    -2.7460 H       
  40 H40           -4.5425    -6.9228     1.0338 H       
  41 H41            4.0840    -4.1338    -2.8185 H       
@<TRIPOS>BOND
   1    1   16 1
   2    1   22 1
   3    1   23 1
   4    1   24 1
   5    2   16 1
   6    2   25 1
   7    2   26 1
   8    2   27 1
   9    3    4 ar
  10    3    5 ar
  11    3   28 1
  12    4   13 ar
  13    4   29 1
  14    5   14 ar
  15    5   30 1
  16    6   13 ar
  17    6   14 ar
  18    6   31 1
  19    7    9 1
  20    7   16 1
  21    7   32 1
  22    7   33 1
  23    8   11 1
  24    8   16 1
  25    8   34 1
  26    8   35 1
  27    9   12 1
  28    9   19 2
  29   10   17 1
  30   10   18 1
  31   10   21 1
  32   10   36 1
  33   11   12 2
  34   11   17 1
  35   12   15 1
  36   13   20 1
  37   14   15 1
  38   15   18 1
  39   15   37 1
  40   17   38 1
  41   18   39 1
  42   20   40 1
  43   21   41 1

#	End of record

