#	Name: ASD03910118
#	Creating user name:	WinNT
#	Creation time:	15. 06. 2019 20:47

#	Modifying user name:	WinNT
#	Modification time:	15. 06. 2019 20:47

#	Program:	/corina/corina34_cracker 3.40 0067  02.08.2006

@<TRIPOS>MOLECULE
ASD03910118
  38   39    0    0    0
SMALL
NO_CHARGES


@<TRIPOS>ATOM
   1 O1            -0.4794     1.5051    -0.1594 O.3     
   2 C2            -0.5457     0.1562    -0.0505 C.ar    
   3 C3            -0.5542    -0.4459     1.2185 C.ar    
   4 C4            -0.6225    -1.8324     1.3256 C.ar    
   5 C5            -0.6821    -2.6139     0.1703 C.ar    
   6 C6            -0.6730    -2.0011    -1.0907 C.ar    
   7 C7            -0.6112    -0.6303    -1.1942 C.ar    
   8 C8            -0.7538    -4.0780     0.2758 C.2     
   9 O9            -0.8056    -4.7565    -0.7281 O.2     
  10 C10           -0.4904     0.3878     2.4336 C.2     
  11 O11           -0.4304     1.5975     2.3379 O.2     
  12 O12           -0.4986    -0.1922     3.6497 O.3     
  13 O13            2.1314     4.0781    -0.4093 O.3     
  14 C14            2.1976     5.4276    -0.5109 C.ar    
  15 C15            2.3282     6.0243    -1.7590 C.ar    
  16 C16            2.3964     7.3943    -1.8691 C.ar    
  17 C17            2.3347     8.1984    -0.7223 C.ar    
  18 C18            2.2031     7.6087     0.5362 C.ar    
  19 C19            2.1284     6.2227     0.6450 C.ar    
  20 C20            0.7482     2.0576    -0.1725 C.2     
  21 C21            0.9039     3.5257    -0.3962 C.2     
  22 C22            2.4089     9.6610    -0.8449 C.2     
  23 O23            2.5236    10.1728    -1.9384 O.2     
  24 O24           -0.0755     4.2203    -0.5660 O.2     
  25 O25            1.7275     1.3629    -0.0027 O.2     
  26 C26            1.9833     5.5911     1.9699 C.2     
  27 O27            1.9233     4.3812     2.0629 O.2     
  28 O28            1.9171     6.3560     3.0772 O.3     
  29 H29           -0.6289    -2.3014     2.2984 H       
  30 H30           -0.7191    -2.6067    -1.9837 H       
  31 H31           -0.6093    -0.1641    -2.1683 H       
  32 H32           -0.7605    -4.5497     1.2473 H       
  33 H33           -0.4552     0.3953     4.4166 H       
  34 H34            2.3767     5.4104    -2.6462 H       
  35 H35            2.4982     7.8516    -2.8422 H       
  36 H36            2.1552     8.2254     1.4216 H       
  37 H37            2.3613    10.2801     0.0388 H       
  38 H38            1.8221     5.8968     3.9229 H       
@<TRIPOS>BOND
   1    1    2 1
   2    1   20 1
   3    2    3 ar
   4    2    7 ar
   5    3    4 ar
   6    3   10 1
   7    4    5 ar
   8    4   29 1
   9    5    6 ar
  10    5    8 1
  11    6    7 ar
  12    6   30 1
  13    7   31 1
  14    8    9 2
  15    8   32 1
  16   10   11 2
  17   10   12 1
  18   12   33 1
  19   13   14 1
  20   13   21 1
  21   14   15 ar
  22   14   19 ar
  23   15   16 ar
  24   15   34 1
  25   16   17 ar
  26   16   35 1
  27   17   18 ar
  28   17   22 1
  29   18   19 ar
  30   18   36 1
  31   19   26 1
  32   20   25 2
  33   20   21 1
  34   21   24 2
  35   22   23 2
  36   22   37 1
  37   26   27 2
  38   26   28 1
  39   28   38 1

#	End of record

