#	Name: ASD03330826
#	Creating user name:	WinNT
#	Creation time:	15. 06. 2019 20:38

#	Modifying user name:	WinNT
#	Modification time:	15. 06. 2019 20:38

#	Program:	/corina/corina34_cracker 3.40 0067  02.08.2006

@<TRIPOS>MOLECULE
ASD03330826
  60   62    0    0    0
SMALL
NO_CHARGES


@<TRIPOS>ATOM
   1 C1            -0.0186     2.1279     2.0163 C.2     
   2 N2            -0.1424     0.8430     2.4441 N.pl3   
   3 C3             1.2570     2.2781     1.5642 C.2     
   4 N4             1.8865     1.0904     1.7033 N.2     
   5 C5             1.0524     0.2217     2.2253 C.2     
   6 C6             1.3569    -1.1937     2.5264 C.ar    
   7 C7             1.8456     3.5145     1.0200 C.2     
   8 O8             1.1741     4.5258     0.9446 O.2     
   9 N9             3.1281     3.5248     0.6059 N.am    
  10 C10           -1.3461     0.2586     3.0417 C.3     
  11 C11           -2.5626     0.6330     2.1893 C.3     
  12 C12           -3.1226     1.9746     2.6508 C.3     
  13 N13           -2.0531     2.8608     3.1141 N.3     
  14 C14           -1.1076     3.1691     2.0310 C.3     
  15 C15            0.9985    -1.7400     3.7592 C.ar    
  16 C16            1.2838    -3.0608     4.0362 C.ar    
  17 C17            1.9262    -3.8474     3.0936 C.ar    
  18 C18            2.2864    -3.3122     1.8656 C.ar    
  19 C19            1.9995    -1.9904     1.5750 C.ar    
  20 C20            3.7133     4.7541     0.0649 C.3     
  21 C21            5.2087     4.7217     0.2486 C.2     
  22 C22            3.3848     4.8624    -1.4255 C.3     
  23 C23            1.8684     4.7995    -1.6193 C.3     
  24 C24            3.9137     6.1912    -1.9691 C.3     
  25 C25            4.0436     3.7049    -2.1784 C.3     
  26 O26            5.7628     3.6799     0.5287 O.2     
  27 N27            5.9304     5.8504     0.1014 N.am    
  28 C28            7.3909     5.8050     0.2068 C.3     
  29 C29           -2.6046     4.0910     3.6976 C.3     
  30 F30            2.3496    -1.4683     0.3792 F       
  31 F31            2.2030    -5.1401     3.3716 F       
  32 F32            2.9130    -4.0838     0.9506 F       
  33 H33            3.6637     2.7183     0.6660 H       
  34 H34           -1.2457    -0.8262     3.0767 H       
  35 H35           -1.4761     0.6462     4.0522 H       
  36 H36           -2.2640     0.7053     1.1435 H       
  37 H37           -3.3289    -0.1351     2.2943 H       
  38 H38           -3.6453     2.4488     1.8201 H       
  39 H39           -3.8265     1.8070     3.4660 H       
  40 H40           -0.6691     4.1528     2.1988 H       
  41 H41           -1.6325     3.1609     1.0757 H       
  42 H42            0.4983    -1.1292     4.4961 H       
  43 H43            1.0060    -3.4830     4.9906 H       
  44 H44            3.3012     5.6150     0.5913 H       
  45 H45            1.3990     5.6242    -1.0829 H       
  46 H46            1.6343     4.8767    -2.6811 H       
  47 H47            1.4916     3.8529    -1.2320 H       
  48 H48            4.9659     6.2985    -1.7055 H       
  49 H49            3.8073     6.2081    -3.0537 H       
  50 H50            3.3447     7.0135    -1.5353 H       
  51 H51            3.6668     2.7582    -1.7911 H       
  52 H52            3.8095     3.7820    -3.2402 H       
  53 H53            5.1239     3.7497    -2.0403 H       
  54 H54            5.4827     6.6928    -0.0742 H       
  55 H55            7.7970     6.8060     0.0607 H       
  56 H56            7.6728     5.4391     1.1941 H       
  57 H57            7.7896     5.1363    -0.5561 H       
  58 H58           -3.2405     3.8376     4.5458 H       
  59 H59           -1.7888     4.7312     4.0335 H       
  60 H60           -3.1935     4.6172     2.9463 H       
@<TRIPOS>BOND
   1    1    2 1
   2    1    3 2
   3    1   14 1
   4    2   10 1
   5    2    5 1
   6    3    4 1
   7    3    7 1
   8    4    5 2
   9    5    6 1
  10    6   15 ar
  11    6   19 ar
  12    7    8 2
  13    7    9 am
  14    9   20 1
  15    9   33 1
  16   10   11 1
  17   10   34 1
  18   10   35 1
  19   11   12 1
  20   11   36 1
  21   11   37 1
  22   12   13 1
  23   12   38 1
  24   12   39 1
  25   13   14 1
  26   13   29 1
  27   14   40 1
  28   14   41 1
  29   15   16 ar
  30   15   42 1
  31   16   17 ar
  32   16   43 1
  33   17   18 ar
  34   17   31 1
  35   18   19 ar
  36   18   32 1
  37   19   30 1
  38   20   21 1
  39   20   22 1
  40   20   44 1
  41   21   26 2
  42   21   27 am
  43   22   23 1
  44   22   24 1
  45   22   25 1
  46   23   45 1
  47   23   46 1
  48   23   47 1
  49   24   48 1
  50   24   49 1
  51   24   50 1
  52   25   51 1
  53   25   52 1
  54   25   53 1
  55   27   28 1
  56   27   54 1
  57   28   55 1
  58   28   56 1
  59   28   57 1
  60   29   58 1
  61   29   59 1
  62   29   60 1

#	End of record

