#	Name: ASD01917040
#	Creating user name:	WinNT
#	Creation time:	15. 06. 2019 20:08

#	Modifying user name:	WinNT
#	Modification time:	15. 06. 2019 20:08

#	Program:	/corina/corina34_cracker 3.40 0067  02.08.2006

@<TRIPOS>MOLECULE
ASD01917040
  41   43    0    0    0
SMALL
NO_CHARGES


@<TRIPOS>ATOM
   1 C1            -0.0119     1.4252    -0.4307 C.ar    
   2 C2            -0.0209     0.0470    -0.2853 C.ar    
   3 C3             1.1640    -0.6399    -0.0738 C.ar    
   4 C4             2.3588     0.0457    -0.0064 C.ar    
   5 C5             2.3732     1.4333    -0.1522 C.ar    
   6 C6             1.1776     2.1201    -0.3654 C.ar    
   7 C7             3.6520     2.1738    -0.0803 C.2     
   8 N8             4.8526     1.6633    -0.2552 N.2     
   9 C9             5.7748     2.6224    -0.1180 C.2     
  10 N10            5.1713     3.7609     0.1472 N.2     
  11 N11            3.7924     3.4964     0.1711 N.pl3   
  12 C12            2.7186     4.4596     0.4271 C.3     
  13 C13            2.3020     5.1039    -0.8699 C.2     
  14 O14            1.3263     6.0257    -0.8783 O.3     
  15 O15            2.8461     4.7907    -1.9023 O.2     
  16 C16            0.9770     6.6042    -2.1635 C.3     
  17 C17            7.2415     2.4327    -0.2437 C.ar    
  18 C18            8.1027     3.5153    -0.0775 C.ar    
  19 C19            7.7610     1.1710    -0.5224 C.ar    
  20 C20            9.1306     1.0004    -0.6386 C.ar    
  21 C21            9.9817     2.0852    -0.4767 C.ar    
  22 C22            9.4667     3.3364    -0.1949 C.ar    
  23 F23           -1.1888    -0.6291    -0.3496 F       
  24 O24            9.6415    -0.2293    -0.9105 O.3     
  25 C25           11.0628    -0.3324    -1.0165 C.3     
  26 H26           -0.9374     1.9555    -0.5998 H       
  27 H27            1.1517    -1.7140     0.0389 H       
  28 H28            3.2815    -0.4904     0.1591 H       
  29 H29            1.1836     3.1941    -0.4792 H       
  30 H30            1.8652     3.9438     0.8672 H       
  31 H31            3.0746     5.2260     1.1156 H       
  32 H32            0.1773     7.3324    -2.0289 H       
  33 H33            1.8505     7.0982    -2.5890 H       
  34 H34            0.6411     5.8161    -2.8374 H       
  35 H35            7.7033     4.4942     0.1428 H       
  36 H36            7.0978     0.3279    -0.6473 H       
  37 H37           11.0494     1.9502    -0.5673 H       
  38 H38           10.1328     4.1774    -0.0702 H       
  39 H39           11.5205    -0.0267    -0.0757 H       
  40 H40           11.3369    -1.3644    -1.2354 H       
  41 H41           11.4152     0.3152    -1.8193 H       
@<TRIPOS>BOND
   1    1    2 ar
   2    1    6 ar
   3    1   26 1
   4    2    3 ar
   5    2   23 1
   6    3    4 ar
   7    3   27 1
   8    4    5 ar
   9    4   28 1
  10    5    6 ar
  11    5    7 1
  12    6   29 1
  13    7    8 2
  14    7   11 1
  15    8    9 1
  16    9   10 2
  17    9   17 1
  18   10   11 1
  19   11   12 1
  20   12   13 1
  21   12   30 1
  22   12   31 1
  23   13   14 1
  24   13   15 2
  25   14   16 1
  26   16   32 1
  27   16   33 1
  28   16   34 1
  29   17   18 ar
  30   17   19 ar
  31   18   22 ar
  32   18   35 1
  33   19   20 ar
  34   19   36 1
  35   20   21 ar
  36   20   24 1
  37   21   22 ar
  38   21   37 1
  39   22   38 1
  40   24   25 1
  41   25   39 1
  42   25   40 1
  43   25   41 1

#	End of record

