#	Name: ASD02039037
#	Creating user name:	WinNT
#	Creation time:	15. 06. 2019 20:17

#	Modifying user name:	WinNT
#	Modification time:	15. 06. 2019 20:17

#	Program:	/corina/corina34_cracker 3.40 0067  02.08.2006

@<TRIPOS>MOLECULE
ASD02039037
  39   42    0    0    0
SMALL
NO_CHARGES


@<TRIPOS>ATOM
   1 N1             0.0234     1.2846    -0.3605 N.2     
   2 N2             0.0398    -0.0019    -0.3617 N.2     
   3 C3             1.2243     1.7332    -0.0875 C.2     
   4 O4             2.0203     0.6621     0.0884 O.3     
   5 C5             1.2410    -0.4221    -0.0918 C.2     
   6 N6             1.6033     3.0608     0.0028 N.pl3   
   7 C7             0.6407     4.0701    -0.0881 C.ar    
   8 C8             1.6809    -1.8603     0.0027 C.3     
   9 O9             2.1173    -2.3103    -1.2815 O.3     
  10 C10            2.5501    -3.5961    -1.3708 C.ar    
  11 C11            2.9850    -4.0919    -2.5837 C.ar    
  12 C12            2.5579    -4.4048    -0.2370 C.ar    
  13 C13            2.9938    -5.7097    -0.3085 C.ar    
  14 C14            3.4310    -6.2306    -1.5215 C.ar    
  15 C15            3.4293    -5.4151    -2.6690 C.ar    
  16 C16           -0.6616     3.8292     0.3295 C.ar    
  17 C17            0.9863     5.3184    -0.5911 C.ar    
  18 C18            0.0333     6.3138    -0.6798 C.ar    
  19 C19           -1.2642     6.0700    -0.2683 C.ar    
  20 C20           -1.6111     4.8297     0.2382 C.ar    
  21 N21            3.8711    -7.5355    -1.6139 N.am    
  22 C22            4.2939    -8.0416    -2.7855 C.2     
  23 C23            4.3074    -7.2671    -3.9651 C.2     
  24 C24            3.8919    -5.9766    -3.9397 C.2     
  25 O25            4.6756    -9.1983    -2.8298 O.2     
  26 Cl26          -3.2412     4.5283     0.7536 Cl      
  27 H27            2.5371     3.2910     0.1291 H       
  28 H28            2.5018    -1.9432     0.7150 H       
  29 H29            0.8453    -2.4746     0.3382 H       
  30 H30            2.9817    -3.4620    -3.4610 H       
  31 H31            2.2193    -4.0051     0.7074 H       
  32 H32            2.9962    -6.3277     0.5772 H       
  33 H33           -0.9324     2.8613     0.7248 H       
  34 H34            1.9995     5.5101    -0.9121 H       
  35 H35            0.3018     7.2841    -1.0708 H       
  36 H36           -2.0074     6.8505    -0.3384 H       
  37 H37            3.8756    -8.0956    -0.8219 H       
  38 H38            4.6533    -7.7027    -4.8908 H       
  39 H39            3.8987    -5.3770    -4.8379 H       
@<TRIPOS>BOND
   1    1    2 1
   2    1    3 2
   3    2    5 2
   4    3    4 1
   5    3    6 1
   6    4    5 1
   7    5    8 1
   8    6    7 1
   9    6   27 1
  10    7   16 ar
  11    7   17 ar
  12    8    9 1
  13    8   28 1
  14    8   29 1
  15    9   10 1
  16   10   11 ar
  17   10   12 ar
  18   11   15 ar
  19   11   30 1
  20   12   13 ar
  21   12   31 1
  22   13   14 ar
  23   13   32 1
  24   14   15 ar
  25   14   21 1
  26   15   24 1
  27   16   20 ar
  28   16   33 1
  29   17   18 ar
  30   17   34 1
  31   18   19 ar
  32   18   35 1
  33   19   20 ar
  34   19   36 1
  35   20   26 1
  36   21   22 am
  37   21   37 1
  38   22   23 1
  39   22   25 2
  40   23   24 2
  41   23   38 1
  42   24   39 1

#	End of record

