#	Name: ASD08710129
#	Creating user name:	WinNT
#	Creation time:	15. 06. 2019 21:19

#	Modifying user name:	WinNT
#	Modification time:	15. 06. 2019 21:19

#	Program:	/corina/corina34_cracker 3.40 0067  02.08.2006

@<TRIPOS>MOLECULE
ASD08710129
  36   37    0    0    0
SMALL
NO_CHARGES


@<TRIPOS>ATOM
   1 C1             1.8283    11.2665    -3.0456 C.1     
   2 C2             1.2889    10.1205    -2.3774 C.ar    
   3 C3             0.5207    10.2793    -1.2220 C.ar    
   4 C4             0.0043     9.1713    -0.5834 C.ar    
   5 C5             0.2457     7.9044    -1.0851 C.ar    
   6 C6             1.0062     7.7398    -2.2290 C.ar    
   7 C7             1.5237     8.8399    -2.8813 C.ar    
   8 N8             2.2562    12.1755    -3.5757 N.1     
   9 S9            -0.4180     6.4944    -0.2629 S.o2    
  10 O10           -1.7709     6.8062     0.0397 O.2     
  11 O11           -0.0346     5.3634    -1.0330 O.2     
  12 N12            0.3667     6.3591     1.1891 N.am    
  13 C13            1.7555     5.8792     1.2549 C.3     
  14 C14            2.5763     6.8755     2.0805 C.3     
  15 N15            1.9273     7.0795     3.3825 N.3     
  16 C16            0.5955     7.6792     3.2259 C.3     
  17 C17           -0.3045     6.7216     2.4466 C.3     
  18 C18            2.3337     5.7835    -0.1584 C.3     
  19 C19           -0.8245     9.3405     0.6638 C.3     
  20 H20            0.3318    11.2675    -0.8292 H       
  21 H21            1.1914     6.7482    -2.6148 H       
  22 H22            2.1131     8.7103    -3.7770 H       
  23 H23            1.7820     4.8992     1.7315 H       
  24 H24            3.5810     6.4811     2.2327 H       
  25 H25            2.6347     7.8261     1.5503 H       
  26 H26            1.8760     6.2151     3.9003 H       
  27 H27            0.1636     7.8677     4.2087 H       
  28 H28            0.6815     8.6186     2.6797 H       
  29 H29           -1.2539     7.2102     2.2273 H       
  30 H30           -0.4798     5.8242     3.0400 H       
  31 H31            2.1791     6.7286    -0.6790 H       
  32 H32            3.4012     5.5709    -0.1007 H       
  33 H33            1.8327     4.9829    -0.7026 H       
  34 H34           -1.8817     9.3533     0.3987 H       
  35 H35           -0.6306     8.5114     1.3442 H       
  36 H36           -0.5606    10.2794     1.1507 H       
@<TRIPOS>BOND
   1    1    2 1
   2    1    8 3
   3    2    3 ar
   4    2    7 ar
   5    3    4 ar
   6    3   20 1
   7    4    5 ar
   8    4   19 1
   9    5    6 ar
  10    5    9 1
  11    6    7 ar
  12    6   21 1
  13    7   22 1
  14    9   10 2
  15    9   11 2
  16    9   12 am
  17   12   13 1
  18   12   17 1
  19   13   14 1
  20   13   18 1
  21   13   23 1
  22   14   15 1
  23   14   24 1
  24   14   25 1
  25   15   16 1
  26   15   26 1
  27   16   17 1
  28   16   27 1
  29   16   28 1
  30   17   29 1
  31   17   30 1
  32   18   31 1
  33   18   32 1
  34   18   33 1
  35   19   34 1
  36   19   35 1
  37   19   36 1

#	End of record

