#	Name: ASD04590311
#	Creating user name:	WinNT
#	Creation time:	15. 06. 2019 20:50

#	Modifying user name:	WinNT
#	Modification time:	15. 06. 2019 20:50

#	Program:	/corina/corina34_cracker 3.40 0067  02.08.2006

@<TRIPOS>MOLECULE
ASD04590311
  35   38    0    0    0
SMALL
NO_CHARGES


@<TRIPOS>ATOM
   1 C1            -0.0167     1.3812     0.0096 C.ar    
   2 C2             0.0021    -0.0041     0.0020 C.ar    
   3 N3             1.1338    -0.6747    -0.0119 N.ar    
   4 C4             2.3120    -0.0532    -0.0198 C.ar    
   5 C5             2.3630     1.3533    -0.0132 C.ar    
   6 C6             1.1800     2.0790     0.0020 C.ar    
   7 N7             3.5865    -0.4952    -0.0340 N.2     
   8 C8             4.4118     0.5250    -0.0366 C.2     
   9 N9             3.7014     1.6941    -0.0240 N.pl3   
  10 C10            5.8855     0.4260    -0.0508 C.2     
  11 C11            6.6383    -0.7712    -0.0644 C.2     
  12 C12            7.9511    -0.4337    -0.0756 C.2     
  13 N13            8.0327     0.9228    -0.0695 N.pl3   
  14 N14            6.7306     1.4385    -0.0590 N.2     
  15 N15            6.1190    -2.0757    -0.0653 N.am    
  16 C16            6.9540    -3.1335    -0.0790 C.2     
  17 C17            6.4083    -4.5041    -0.0799 C.ar    
  18 O18            8.1574    -2.9581    -0.0907 O.2     
  19 C19            5.6191    -6.4340    -1.2811 C.ar    
  20 C20            5.3826    -7.0806    -0.0816 C.ar    
  21 C21            5.6493    -6.4476     1.1188 C.ar    
  22 C22            6.1607    -5.1635     1.1289 C.ar    
  23 C23            6.1301    -5.1498    -1.2895 C.ar    
  24 F24            6.3600    -4.5197    -2.4623 F       
  25 F25            6.4209    -4.5471     2.3026 F       
  26 H26           -0.9568     1.9128     0.0170 H       
  27 H27           -0.9326    -0.5451     0.0080 H       
  28 H28            1.1921     3.1589     0.0069 H       
  29 H29            4.0681     2.5921    -0.0229 H       
  30 H30            8.7842    -1.1208    -0.0871 H       
  31 H31            8.8510     1.4437    -0.0744 H       
  32 H32            5.1591    -2.2156    -0.0560 H       
  33 H33            5.4080    -6.9356    -2.2140 H       
  34 H34            4.9831    -8.0840    -0.0823 H       
  35 H35            5.4614    -6.9597     2.0510 H       
@<TRIPOS>BOND
   1    1    2 ar
   2    1    6 ar
   3    1   26 1
   4    2    3 ar
   5    2   27 1
   6    3    4 ar
   7    4    5 ar
   8    4    7 1
   9    5    6 ar
  10    5    9 1
  11    6   28 1
  12    7    8 2
  13    8    9 1
  14    8   10 1
  15    9   29 1
  16   10   11 1
  17   10   14 2
  18   11   12 2
  19   11   15 1
  20   12   13 1
  21   12   30 1
  22   13   14 1
  23   13   31 1
  24   15   16 am
  25   15   32 1
  26   16   17 1
  27   16   18 2
  28   17   22 ar
  29   17   23 ar
  30   19   20 ar
  31   19   23 ar
  32   19   33 1
  33   20   21 ar
  34   20   34 1
  35   21   22 ar
  36   21   35 1
  37   22   25 1
  38   23   24 1

#	End of record

