#	Name: ASD01001085
#	Creating user name:	WinNT
#	Creation time:	15. 06. 2019 18:55

#	Modifying user name:	WinNT
#	Modification time:	15. 06. 2019 18:55

#	Program:	/corina/corina34_cracker 3.40 0067  02.08.2006

@<TRIPOS>MOLECULE
ASD01001085
  44   47    0    0    0
SMALL
NO_CHARGES


@<TRIPOS>ATOM
   1 C1             0.0307     1.3664    -0.2838 C.ar    
   2 C2             0.0617    -0.0091    -0.3778 C.ar    
   3 C3             1.2257     2.0900    -0.2754 C.ar    
   4 C4             1.2728    -0.6736    -0.4639 C.ar    
   5 C5             2.4455     1.4127    -0.3626 C.ar    
   6 C6             1.2006     3.5609    -0.1756 C.2     
   7 C7             2.4606     0.0351    -0.4563 C.ar    
   8 N8             2.2373     4.3153    -0.0489 N.2     
   9 N9             1.9457     5.6759     0.0233 N.am    
  10 C10            0.4882     5.8559    -0.0696 C.3     
  11 C11           -0.0454     4.4167    -0.2126 C.3     
  12 C12            2.8508     6.6656     0.1573 C.2     
  13 C13           -0.0472     6.5030     1.1816 C.ar    
  14 C14            0.4710     6.1549     2.4151 C.ar    
  15 C15           -0.0184     6.7466     3.5652 C.ar    
  16 C16           -1.0266     7.6872     3.4841 C.ar    
  17 C17           -1.5480     8.0387     2.2472 C.ar    
  18 C18           -1.0515     7.4478     1.0946 C.ar    
  19 C19            4.2750     6.3393     0.3794 C.ar    
  20 O20            2.4956     7.8268     0.0953 O.2     
  21 Cl21           3.9370     2.3009    -0.3526 Cl      
  22 O22           -2.5403     8.9636     2.1648 O.3     
  23 C23            5.2378     7.3500     0.3559 C.ar    
  24 C24            6.5654     7.0387     0.5644 C.ar    
  25 C25            6.9436     5.7281     0.7966 C.ar    
  26 C26            5.9946     4.7215     0.8207 C.ar    
  27 C27            4.6629     5.0199     0.6194 C.ar    
  28 H28           -0.9155     1.8834    -0.2212 H       
  29 H29           -0.8616    -0.5694    -0.3840 H       
  30 H30            1.2904    -1.7510    -0.5370 H       
  31 H31            3.4018    -0.4901    -0.5238 H       
  32 H32            0.2299     6.4463    -0.9487 H       
  33 H33           -0.5702     4.2959    -1.1603 H       
  34 H34           -0.6998     4.1668     0.6225 H       
  35 H35            1.2590     5.4193     2.4807 H       
  36 H36            0.3877     6.4727     4.5277 H       
  37 H37           -1.4090     8.1485     4.3826 H       
  38 H38           -1.4556     7.7197     0.1307 H       
  39 H39           -2.2239     9.8723     2.0686 H       
  40 H40            4.9439     8.3733     0.1744 H       
  41 H41            7.3112     7.8195     0.5462 H       
  42 H42            7.9844     5.4897     0.9593 H       
  43 H43            6.2966     3.7005     1.0018 H       
  44 H44            3.9231     4.2333     0.6385 H       
@<TRIPOS>BOND
   1    1    2 ar
   2    1    3 ar
   3    1   28 1
   4    2    4 ar
   5    2   29 1
   6    3    6 1
   7    3    5 ar
   8    4    7 ar
   9    4   30 1
  10    5   21 1
  11    5    7 ar
  12    6    8 2
  13    6   11 1
  14    7   31 1
  15    8    9 1
  16    9   10 1
  17    9   12 am
  18   10   11 1
  19   10   13 1
  20   10   32 1
  21   11   33 1
  22   11   34 1
  23   12   19 1
  24   12   20 2
  25   13   14 ar
  26   13   18 ar
  27   14   15 ar
  28   14   35 1
  29   15   16 ar
  30   15   36 1
  31   16   17 ar
  32   16   37 1
  33   17   18 ar
  34   17   22 1
  35   18   38 1
  36   19   23 ar
  37   19   27 ar
  38   22   39 1
  39   23   24 ar
  40   23   40 1
  41   24   25 ar
  42   24   41 1
  43   25   26 ar
  44   25   42 1
  45   26   27 ar
  46   26   43 1
  47   27   44 1

#	End of record

