#	Name: ASD01884243
#	Creating user name:	WinNT
#	Creation time:	15. 06. 2019 19:47

#	Modifying user name:	WinNT
#	Modification time:	15. 06. 2019 19:47

#	Program:	/corina/corina34_cracker 3.40 0067  02.08.2006

@<TRIPOS>MOLECULE
ASD01884243
  39   42    0    0    0
SMALL
NO_CHARGES


@<TRIPOS>ATOM
   1 C1            -0.0169     1.3920     0.0097 C.ar    
   2 C2             0.0021    -0.0041     0.0020 C.ar    
   3 C3            -1.1683    -0.7205     0.0094 C.ar    
   4 C4            -2.4132    -0.0698     0.0252 C.ar    
   5 C5            -2.4165     1.3273     0.0332 C.ar    
   6 C6            -1.2432     2.0548     0.0308 C.ar    
   7 N7            -3.6703    -0.6444     0.0347 N.am    
   8 C8            -4.7412     0.1548     0.0501 C.2     
   9 S9            -4.1177     1.8129     0.0532 S.3     
  10 C10            1.2502     2.1592     0.0017 C.ar    
  11 O11           -5.9092    -0.1874     0.0596 O.2     
  12 C12           -3.8257    -2.1011     0.0275 C.3     
  13 C13           -3.8650    -2.6170     1.4674 C.3     
  14 C14            2.2694     1.8523     0.9219 C.ar    
  15 C15            3.4579     2.5841     0.9024 C.ar    
  16 C16            3.6264     3.5999    -0.0149 C.ar    
  17 C17            2.6220     3.9011    -0.9204 C.ar    
  18 C18            1.4423     3.1849    -0.9202 C.ar    
  19 C19            2.0885     0.7966     1.8723 C.1     
  20 N20            1.9449    -0.0409     2.6263 N.1     
  21 C21           -3.9038    -4.1508     1.5714 C.3     
  22 C22           -4.9089    -3.9688     2.7210 C.3     
  23 C23           -5.2741    -2.6180     2.0831 C.3     
  24 H24            0.9477    -0.5256    -0.0102 H       
  25 H25           -1.1319    -1.7999     0.0025 H       
  26 H26           -1.2753     3.1343     0.0372 H       
  27 H27           -4.7544    -2.3650    -0.4785 H       
  28 H28           -2.9846    -2.5536    -0.4978 H       
  29 H29           -3.1095    -2.1552     2.1031 H       
  30 H30            4.2450     2.3550     1.6055 H       
  31 H31            4.5470     4.1645    -0.0273 H       
  32 H32            2.7649     4.6990    -1.6341 H       
  33 H33            0.6644     3.4258    -1.6296 H       
  34 H34           -4.3283    -4.6373     0.6932 H       
  35 H35           -2.9573    -4.5913     1.8846 H       
  36 H36           -5.7238    -4.6927     2.7072 H       
  37 H37           -4.4399    -3.8765     3.7005 H       
  38 H38           -5.4338    -1.8211     2.8095 H       
  39 H39           -6.0732    -2.6856     1.3448 H       
@<TRIPOS>BOND
   1    1    2 ar
   2    1   10 1
   3    1    6 ar
   4    2    3 ar
   5    2   24 1
   6    3    4 ar
   7    3   25 1
   8    4    5 ar
   9    4    7 1
  10    5    6 ar
  11    5    9 1
  12    6   26 1
  13    7    8 am
  14    7   12 1
  15    8    9 1
  16    8   11 2
  17   10   14 ar
  18   10   18 ar
  19   12   13 1
  20   12   27 1
  21   12   28 1
  22   13   21 1
  23   13   23 1
  24   13   29 1
  25   14   15 ar
  26   14   19 1
  27   15   16 ar
  28   15   30 1
  29   16   17 ar
  30   16   31 1
  31   17   18 ar
  32   17   32 1
  33   18   33 1
  34   19   20 3
  35   21   22 1
  36   21   34 1
  37   21   35 1
  38   22   23 1
  39   22   36 1
  40   22   37 1
  41   23   38 1
  42   23   39 1

#	End of record

