#	Name: ASD05313154
#	Creating user name:	WinNT
#	Creation time:	15. 06. 2019 20:58

#	Modifying user name:	WinNT
#	Modification time:	15. 06. 2019 20:58

#	Program:	/corina/corina34_cracker 3.40 0067  02.08.2006

@<TRIPOS>MOLECULE
ASD05313154
  35   38    0    0    0
SMALL
NO_CHARGES


@<TRIPOS>ATOM
   1 C1            -0.0734     0.8210     1.0164 C.2     
   2 C2             0.1124    -0.6160     0.5915 C.3     
   3 N3             0.9378     1.7382     1.0423 N.pl3   
   4 N4             1.4565    -0.7158    -0.0083 N.am    
   5 C5             2.5713    -0.0366     0.6690 C.3     
   6 C6             2.3237     1.4767     0.6588 C.3     
   7 N7            -0.8982     2.6484     1.6948 N.2     
   8 N8            -1.1543     1.4164     1.4161 N.2     
   9 C9             0.3788     2.8983     1.4834 C.2     
  10 S10            1.6325     6.5930     2.2275 S.3     
  11 C11            2.8509     5.5319     1.6705 C.2     
  12 N12            2.3651     4.3597     1.4539 N.2     
  13 C13            1.0706     4.1885     1.6885 C.2     
  14 C14            0.4411     5.2989     2.1308 C.2     
  15 C15            1.6574    -1.4108    -1.1455 C.2     
  16 O16            2.7497    -1.4008    -1.6790 O.2     
  17 C17            0.5504    -2.1846    -1.7435 C.ar    
  18 C18            0.3191    -2.1286    -3.1205 C.ar    
  19 C19           -0.7187    -2.8560    -3.6732 C.ar    
  20 C20           -1.5275    -3.6382    -2.8630 C.ar    
  21 C21           -1.3013    -3.6956    -1.4979 C.ar    
  22 C22           -0.2655    -2.9795    -0.9359 C.ar    
  23 F23           -0.9452    -2.8043    -5.0041 F       
  24 Cl24          -2.8295    -4.5490    -3.5624 Cl      
  25 Cl25           1.3314    -1.1482    -4.1342 Cl      
  26 H26            0.0421    -1.2725     1.4587 H       
  27 H27           -0.6446    -0.8873    -0.1444 H       
  28 H28            2.6393    -0.3872     1.6988 H       
  29 H29            3.5025    -0.2566     0.1469 H       
  30 H30            2.5049     1.8685    -0.3421 H       
  31 H31            2.9955     1.9607     1.3677 H       
  32 H32            3.8846     5.8066     1.5208 H       
  33 H33           -0.6064     5.3788     2.3813 H       
  34 H34           -1.9353    -4.3062    -0.8722 H       
  35 H35           -0.0885    -3.0295     0.1283 H       
@<TRIPOS>BOND
   1    1    2 1
   2    1    3 1
   3    1    8 2
   4    2    4 1
   5    2   26 1
   6    2   27 1
   7    3    6 1
   8    3    9 1
   9    4    5 1
  10    4   15 am
  11    5    6 1
  12    5   28 1
  13    5   29 1
  14    6   30 1
  15    6   31 1
  16    7    8 1
  17    7    9 2
  18    9   13 1
  19   10   11 1
  20   10   14 1
  21   11   12 2
  22   11   32 1
  23   12   13 1
  24   13   14 2
  25   14   33 1
  26   15   16 2
  27   15   17 1
  28   17   18 ar
  29   17   22 ar
  30   18   19 ar
  31   18   25 1
  32   19   20 ar
  33   19   23 1
  34   20   21 ar
  35   20   24 1
  36   21   22 ar
  37   21   34 1
  38   22   35 1

#	End of record

