#	Name: ASD01730034
#	Creating user name:	WinNT
#	Creation time:	15. 06. 2019 19:23

#	Modifying user name:	WinNT
#	Modification time:	15. 06. 2019 19:23

#	Program:	/corina/corina34_cracker 3.40 0067  02.08.2006

@<TRIPOS>MOLECULE
ASD01730034
  31   32    0    0    0
SMALL
NO_CHARGES


@<TRIPOS>ATOM
   1 C1            -0.2128     1.9771     0.2579 C.2     
   2 C2             0.1816     0.6225     0.7875 C.3     
   3 N3             0.6281     2.9788     0.3302 N.2     
   4 N4            -1.4403     2.1582    -0.3004 N.pl3   
   5 C5            -1.8720     3.4996    -0.7012 C.3     
   6 C6            -2.3302     1.0119    -0.5009 C.3     
   7 S7             3.8522     3.7019     2.3834 S.3     
   8 C8             2.7739     3.9734     0.9444 C.3     
   9 C9             1.8805     2.7748     0.7770 C.2     
  10 N10            2.2402     1.5651     1.0354 N.2     
  11 C11            3.4501     1.1469     1.4886 C.ar    
  12 C12            4.3305     2.0191     2.1489 C.ar    
  13 C13            3.8369    -0.1839     1.2991 C.ar    
  14 C14            5.0606    -0.6215     1.7608 C.ar    
  15 C15            5.9180     0.2460     2.4145 C.ar    
  16 C16            5.5540     1.5671     2.6079 C.ar    
  17 H17            0.4747     0.7125     1.8335 H       
  18 H18           -0.6640    -0.0604     0.7046 H       
  19 H19            1.0193     0.2354     0.2074 H       
  20 H20           -1.1825     3.8955    -1.4468 H       
  21 H21           -2.8747     3.4470    -1.1252 H       
  22 H22           -1.8799     4.1542     0.1703 H       
  23 H23           -2.8762     0.8103     0.4207 H       
  24 H24           -3.0367     1.2358    -1.3002 H       
  25 H25           -1.7399     0.1367    -0.7723 H       
  26 H26            2.1656     4.8633     1.1062 H       
  27 H27            3.3834     4.1022     0.0500 H       
  28 H28            3.1759    -0.8702     0.7906 H       
  29 H29            5.3522    -1.6506     1.6111 H       
  30 H30            6.8728    -0.1084     2.7738 H       
  31 H31            6.2243     2.2438     3.1171 H       
@<TRIPOS>BOND
   1    1    2 1
   2    1    3 2
   3    1    4 1
   4    2   17 1
   5    2   18 1
   6    2   19 1
   7    3    9 1
   8    4    5 1
   9    4    6 1
  10    5   20 1
  11    5   21 1
  12    5   22 1
  13    6   23 1
  14    6   24 1
  15    6   25 1
  16    7    8 1
  17    7   12 1
  18    8    9 1
  19    8   26 1
  20    8   27 1
  21    9   10 2
  22   10   11 1
  23   11   12 ar
  24   11   13 ar
  25   12   16 ar
  26   13   14 ar
  27   13   28 1
  28   14   15 ar
  29   14   29 1
  30   15   16 ar
  31   15   30 1
  32   16   31 1

#	End of record

