#	Name: ASD00688001
#	Creating user name:	WinNT
#	Creation time:	15. 06. 2019 18:37

#	Modifying user name:	WinNT
#	Modification time:	15. 06. 2019 18:37

#	Program:	/corina/corina34_cracker 3.40 0067  02.08.2006

@<TRIPOS>MOLECULE
ASD00688001
  34   36    0    0    0
SMALL
NO_CHARGES


@<TRIPOS>ATOM
   1 C1             0.0811     1.5850     0.1304 C.ar    
   2 C2             0.2107     0.1992     0.0453 C.ar    
   3 C3             1.4620    -0.3786     0.0883 C.ar    
   4 C4             2.5920     0.4178     0.2167 C.ar    
   5 C5             2.4664     1.7978     0.3022 C.ar    
   6 C6             1.2181     2.3820     0.2589 C.ar    
   7 C7            -1.2619     2.2099     0.0783 C.ar    
   8 C8            -2.1635     2.0211     1.1236 C.ar    
   9 C9            -3.4136     2.6059     1.0706 C.ar    
  10 C10           -3.7783     3.3807    -0.0172 C.ar    
  11 C11           -2.8968     3.5775    -1.0611 C.ar    
  12 C12           -1.6306     3.0000    -1.0218 C.ar    
  13 O13            3.8236    -0.1547     0.2593 O.3     
  14 C14           -5.1457     4.0125    -0.0623 C.3     
  15 O15           -5.0924     5.3070     0.5405 O.3     
  16 O16            0.6060     4.1623    -3.6374 O.3     
  17 C17           -0.2474     4.4040    -2.6318 C.2     
  18 C18           -0.6788     3.2137    -2.1385 C.2     
  19 C19           -0.0073     2.1835    -2.9392 C.2     
  20 C20            0.7551     2.8426    -3.8277 C.2     
  21 Br21          -1.6761     0.9642     2.6140 Br      
  22 H22           -0.6679    -0.4209    -0.0539 H       
  23 H23            1.5632    -1.4518     0.0224 H       
  24 H24            3.3473     2.4144     0.4028 H       
  25 H25            1.1211     3.4557     0.3247 H       
  26 H26           -4.1107     2.4577     1.8821 H       
  27 H27           -3.1879     4.1832    -1.9066 H       
  28 H28            4.2381    -0.2610    -0.6079 H       
  29 H29           -5.4681     4.1075    -1.0992 H       
  30 H30           -5.8530     3.3870     0.4823 H       
  31 H31           -5.9396     5.7732     0.5467 H       
  32 H32           -0.5419     5.3796    -2.2742 H       
  33 H33           -0.1062     1.1130    -2.8357 H       
  34 H34            1.3860     2.3841    -4.5747 H       
@<TRIPOS>BOND
   1    1    2 ar
   2    1    6 ar
   3    1    7 1
   4    2    3 ar
   5    2   22 1
   6    3    4 ar
   7    3   23 1
   8    4    5 ar
   9    4   13 1
  10    5    6 ar
  11    5   24 1
  12    6   25 1
  13    7    8 ar
  14    7   12 ar
  15    8    9 ar
  16    8   21 1
  17    9   10 ar
  18    9   26 1
  19   10   11 ar
  20   10   14 1
  21   11   12 ar
  22   11   27 1
  23   12   18 1
  24   13   28 1
  25   14   15 1
  26   14   29 1
  27   14   30 1
  28   15   31 1
  29   16   17 1
  30   16   20 1
  31   17   18 2
  32   17   32 1
  33   18   19 1
  34   19   20 2
  35   19   33 1
  36   20   34 1

#	End of record

