#	Name: ASD01940285
#	Creating user name:	WinNT
#	Creation time:	15. 06. 2019 20:12

#	Modifying user name:	WinNT
#	Modification time:	15. 06. 2019 20:12

#	Program:	/corina/corina34_cracker 3.40 0067  02.08.2006

@<TRIPOS>MOLECULE
ASD01940285
  38   39    0    0    0
SMALL
NO_CHARGES


@<TRIPOS>ATOM
   1 C1            -3.3170    -3.4153    -0.8406 C.ar    
   2 C2            -4.3279    -2.5615    -0.4394 C.ar    
   3 C3            -4.8644    -1.6497    -1.3324 C.ar    
   4 C4            -4.3906    -1.5890    -2.6332 C.ar    
   5 C5            -3.3755    -2.4439    -3.0418 C.ar    
   6 C6            -2.8329    -3.3568    -2.1389 C.ar    
   7 N7            -1.8080    -4.2217    -2.5456 N.am    
   8 S8            -0.3747    -3.6043    -3.0995 S.o2    
   9 O9             0.4686    -4.7404    -3.2313 O.2     
  10 O10           -0.7417    -2.8290    -4.2324 O.2     
  11 F11           -5.8519    -0.8178    -0.9351 F       
  12 F12           -4.9161    -0.6990    -3.5033 F       
  13 N13           -2.8940    -2.3852    -4.3568 N.pl3   
  14 C14           -3.1097    -3.4566    -5.2288 C.ar    
  15 C15           -2.7337    -3.3552    -6.5647 C.ar    
  16 C16           -3.6943    -4.6263    -4.7627 C.ar    
  17 C17           -3.9062    -5.6834    -5.6270 C.ar    
  18 C18           -3.5367    -5.5785    -6.9549 C.ar    
  19 C19           -2.9489    -4.4170    -7.4232 C.ar    
  20 F20           -2.1597    -2.2209    -7.0220 F       
  21 C21           -3.7694    -6.7343    -7.8934 C.3     
  22 C22            0.2061    -2.5329    -1.7559 C.3     
  23 C23           -2.7365    -4.4059     0.1354 C.3     
  24 F24           -3.4855    -4.3900     1.3170 F       
  25 F25           -2.7742    -5.6880    -0.4233 F       
  26 F26           -1.4110    -4.0595     0.4188 F       
  27 H27           -4.7003    -2.6062     0.5734 H       
  28 H28           -1.9382    -5.1819    -2.5026 H       
  29 H29           -2.4111    -1.6012    -4.6619 H       
  30 H30           -3.9830    -4.7100    -3.7254 H       
  31 H31           -4.3611    -6.5933    -5.2643 H       
  32 H32           -2.6614    -4.3384    -8.4613 H       
  33 H33           -4.7552    -6.6397    -8.3489 H       
  34 H34           -3.0071    -6.7290    -8.6725 H       
  35 H35           -3.7143    -7.6704    -7.3377 H       
  36 H36            0.4772    -3.1442    -0.8951 H       
  37 H37            1.0774    -1.9702    -2.0908 H       
  38 H38           -0.5874    -1.8406    -1.4744 H       
@<TRIPOS>BOND
   1    1    2 ar
   2    1   23 1
   3    1    6 ar
   4    2    3 ar
   5    2   27 1
   6    3    4 ar
   7    3   11 1
   8    4    5 ar
   9    4   12 1
  10    5    6 ar
  11    5   13 1
  12    6    7 1
  13    7    8 am
  14    7   28 1
  15    8    9 2
  16    8   10 2
  17    8   22 1
  18   13   14 1
  19   13   29 1
  20   14   15 ar
  21   14   16 ar
  22   15   20 1
  23   15   19 ar
  24   16   17 ar
  25   16   30 1
  26   17   18 ar
  27   17   31 1
  28   18   19 ar
  29   18   21 1
  30   19   32 1
  31   21   33 1
  32   21   34 1
  33   21   35 1
  34   22   36 1
  35   22   37 1
  36   22   38 1
  37   23   24 1
  38   23   25 1
  39   23   26 1

#	End of record

