#	Name: ASD09116354
#	Creating user name:	WinNT
#	Creation time:	15. 06. 2019 21:21

#	Modifying user name:	WinNT
#	Modification time:	15. 06. 2019 21:21

#	Program:	/corina/corina34_cracker 3.40 0067  02.08.2006

@<TRIPOS>MOLECULE
ASD09116354
  77   83    0    0    0
SMALL
NO_CHARGES


@<TRIPOS>ATOM
   1 N1            -0.0620     1.5270    -0.5060 N.2     
   2 N2            -0.0847     0.2296    -1.0427 N.pl3   
   3 C3             1.1939     1.9030    -0.4664 C.2     
   4 N4             1.9598     0.9165    -0.9472 N.2     
   5 C5             1.2028    -0.1006    -1.2993 C.2     
   6 N6             1.6443    -1.2952    -1.8357 N.pl3   
   7 C7            -1.2119    -0.5628    -1.2673 C.ar    
   8 N8             1.6567     3.1328     0.0015 N.pl3   
   9 C9             3.0329     3.3781     0.0827 C.ar    
  10 C10            3.5204     4.6665    -0.0963 C.ar    
  11 C11            3.9094     2.3346     0.3477 C.ar    
  12 C12            5.2675     2.5758     0.4284 C.ar    
  13 C13            5.7565     3.8611     0.2443 C.ar    
  14 C14            4.8787     4.9082    -0.0161 C.ar    
  15 N15            7.1339     4.1054     0.3268 N.3     
  16 F16            5.3543     6.1599    -0.1959 F       
  17 N17           -1.1810    -1.5120    -2.1908 N.ar    
  18 N18           -2.1937    -2.2624    -2.4433 N.ar    
  19 C19           -3.3368    -2.1280    -1.7901 C.ar    
  20 C20           -3.4556    -1.1663    -0.7827 C.ar    
  21 C21           -2.3708    -0.3586    -0.5140 C.ar    
  22 C22           -4.5220    -2.9546    -2.1160 C.ar    
  23 C23           -5.7504    -2.3230    -2.3167 C.ar    
  24 C24           -5.8275    -0.8222    -2.2525 C.3     
  25 C25           -5.8021    -0.3246    -0.8098 C.3     
  26 C26           -4.7338    -1.0582    -0.0033 C.3     
  27 C27           -4.4260    -4.3379    -2.2190 C.ar    
  28 C28           -5.5548    -5.0825    -2.5017 C.ar    
  29 C29           -6.7742    -4.4545    -2.6792 C.ar    
  30 C30           -6.8724    -3.0770    -2.5859 C.ar    
  31 C31            7.4732     4.8071     1.5826 C.3     
  32 C32            8.8434     4.5613     2.0183 C.3     
  33 C33            9.8694     5.0596     0.9760 C.3     
  34 C34            9.9305     4.0715    -0.1570 C.3     
  35 C35            8.9634     4.4139    -1.3095 C.3     
  36 C36            7.5889     4.8860    -0.7980 C.3     
  37 N37           11.3014     4.0405    -0.6838 N.3     
  38 C38           12.2438     3.5239     0.3256 C.3     
  39 C39           12.9608     2.3081    -0.2983 C.3     
  40 C40           12.7974     2.5500    -1.8220 C.3     
  41 C41           11.3871     3.1873    -1.8882 C.3     
  42 H42            2.5920    -1.4396    -1.9835 H       
  43 H43            1.0065    -1.9892    -2.0645 H       
  44 H44            1.0252     3.8181     0.2706 H       
  45 H45            2.8381     5.4790    -0.2984 H       
  46 H46            3.5295     1.3338     0.4911 H       
  47 H47            5.9486     1.7636     0.6353 H       
  48 H48           -2.4176     0.4082     0.2451 H       
  49 H49           -4.9798    -0.3982    -2.7909 H       
  50 H50           -6.7514    -0.4920    -2.7273 H       
  51 H51           -5.5865     0.7439    -0.8025 H       
  52 H52           -6.7771    -0.4963    -0.3538 H       
  53 H53           -5.0917    -2.0589     0.2387 H       
  54 H54           -4.5449    -0.5126     0.9212 H       
  55 H55           -3.4738    -4.8279    -2.0784 H       
  56 H56           -5.4849    -6.1570    -2.5845 H       
  57 H57           -7.6549    -5.0423    -2.8919 H       
  58 H58           -7.8279    -2.5930    -2.7245 H       
  59 H59            7.3389     5.8784     1.4335 H       
  60 H60            6.7910     4.4755     2.3654 H       
  61 H61            9.0149     5.0788     2.9621 H       
  62 H62            8.9819     3.4909     2.1704 H       
  63 H63            9.5600     6.0330     0.5954 H       
  64 H64           10.8516     5.1428     1.4413 H       
  65 H65            9.6823     3.0819     0.2268 H       
  66 H66            9.4043     5.2035    -1.9180 H       
  67 H67            8.8246     3.5281    -1.9294 H       
  68 H68            6.8618     4.8010    -1.6057 H       
  69 H69            7.6622     5.9312    -0.4977 H       
  70 H70           12.9725     4.2933     0.5807 H       
  71 H71           11.6991     3.2155     1.2179 H       
  72 H72           14.0147     2.2979    -0.0205 H       
  73 H73           12.4738     1.3793    -0.0011 H       
  74 H74           13.5557     3.2405    -2.1912 H       
  75 H75           12.8271     1.6094    -2.3720 H       
  76 H76           10.6195     2.4138    -1.8606 H       
  77 H77           11.2858     3.7918    -2.7895 H       
@<TRIPOS>BOND
   1    1    2 1
   2    1    3 2
   3    2    7 1
   4    2    5 1
   5    3    4 1
   6    3    8 1
   7    4    5 2
   8    5    6 1
   9    6   42 1
  10    6   43 1
  11    7   17 ar
  12    7   21 ar
  13    8    9 1
  14    8   44 1
  15    9   10 ar
  16    9   11 ar
  17   10   14 ar
  18   10   45 1
  19   11   12 ar
  20   11   46 1
  21   12   13 ar
  22   12   47 1
  23   13   14 ar
  24   13   15 1
  25   14   16 1
  26   15   31 1
  27   15   36 1
  28   17   18 ar
  29   18   19 ar
  30   19   20 ar
  31   19   22 1
  32   20   21 ar
  33   20   26 1
  34   21   48 1
  35   22   23 ar
  36   22   27 ar
  37   23   24 1
  38   23   30 ar
  39   24   25 1
  40   24   49 1
  41   24   50 1
  42   25   26 1
  43   25   51 1
  44   25   52 1
  45   26   53 1
  46   26   54 1
  47   27   28 ar
  48   27   55 1
  49   28   29 ar
  50   28   56 1
  51   29   30 ar
  52   29   57 1
  53   30   58 1
  54   31   32 1
  55   31   59 1
  56   31   60 1
  57   32   33 1
  58   32   61 1
  59   32   62 1
  60   33   34 1
  61   33   63 1
  62   33   64 1
  63   34   35 1
  64   34   37 1
  65   34   65 1
  66   35   36 1
  67   35   66 1
  68   35   67 1
  69   36   68 1
  70   36   69 1
  71   37   38 1
  72   37   41 1
  73   38   39 1
  74   38   70 1
  75   38   71 1
  76   39   40 1
  77   39   72 1
  78   39   73 1
  79   40   41 1
  80   40   74 1
  81   40   75 1
  82   41   76 1
  83   41   77 1

#	End of record

