#	Name: ASD08150666
#	Creating user name:	WinNT
#	Creation time:	15. 06. 2019 21:16

#	Modifying user name:	WinNT
#	Modification time:	15. 06. 2019 21:16

#	Program:	/corina/corina34_cracker 3.40 0067  02.08.2006

@<TRIPOS>MOLECULE
ASD08150666
  63   69    0    0    0
SMALL
NO_CHARGES


@<TRIPOS>ATOM
   1 N1             0.2320     1.6925    -0.0783 N.am    
   2 C2             0.2346     0.3998    -0.4575 C.2     
   3 C3             1.4180    -0.3646    -0.4141 C.2     
   4 C4             2.5781     0.1959     0.0137 C.2     
   5 C5             2.5790     1.5555     0.4133 C.ar    
   6 C6             3.7547     2.1855     0.8646 C.ar    
   7 N7             3.7527     3.4401     1.2322 N.ar    
   8 C8             2.6439     4.1950     1.2024 C.ar    
   9 C9             1.4152     3.6438     0.7623 C.ar    
  10 C10            1.3835     2.2886     0.3576 C.ar    
  11 C11            0.2653     4.4387     0.7350 C.ar    
  12 C12            0.3408     5.7623     1.1404 C.ar    
  13 C13            1.5611     6.3007     1.5744 C.ar    
  14 C14            2.6873     5.5394     1.6072 C.ar    
  15 O15           -0.8008    -0.1160    -0.8430 O.2     
  16 C16           -0.8727     6.6119     1.1148 C.2     
  17 C17           -0.9563     2.4327    -0.1362 C.ar    
  18 C18           -1.3146     3.0801    -1.3119 C.ar    
  19 C19           -2.4852     3.8087    -1.3692 C.ar    
  20 C20           -3.3053     3.8948    -0.2510 C.ar    
  21 C21           -2.9469     3.2474     0.9245 C.ar    
  22 C22           -1.7785     2.5142     0.9799 C.ar    
  23 N23           -4.4909     4.6333    -0.3088 N.3     
  24 C24           -1.5885     6.8128     0.0100 C.2     
  25 C25           -5.6564     3.7485    -0.4445 C.3     
  26 C26           -6.9360     4.5880    -0.4242 C.3     
  27 N27           -6.8927     5.5688    -1.5177 N.3     
  28 C28           -5.7272     6.4536    -1.3819 C.3     
  29 C29           -4.4477     5.6141    -1.4023 C.3     
  30 S30           -2.9569     7.8630     0.3200 S.3     
  31 C31           -2.5352     8.0329     2.0190 C.ar    
  32 C32           -1.3860     7.2933     2.3007 C.ar    
  33 C33           -3.1616     8.7563     3.0399 C.ar    
  34 C34           -2.6452     8.7434     4.3138 C.ar    
  35 C35           -1.4988     8.0127     4.5941 C.ar    
  36 C36           -0.8786     7.2967     3.6161 C.ar    
  37 C37           -3.8360     3.3411     2.1376 C.3     
  38 F38           -3.1820     2.7797     3.2396 F       
  39 F39           -4.1250     4.6843     2.4014 F       
  40 F40           -5.0264     2.6463     1.8981 F       
  41 H41            1.4018    -1.3997    -0.7218 H       
  42 H42            3.4871    -0.3861     0.0493 H       
  43 H43            4.6749     1.6218     0.9081 H       
  44 H44           -0.6744     4.0248     0.4002 H       
  45 H45            1.6068     7.3335     1.8870 H       
  46 H46            3.6184     5.9700     1.9449 H       
  47 H47           -0.6769     3.0134    -2.1810 H       
  48 H48           -2.7635     4.3124    -2.2832 H       
  49 H49           -1.5020     2.0071     1.8925 H       
  50 H50           -1.3557     6.3837    -0.9534 H       
  51 H51           -5.5928     3.2054    -1.3874 H       
  52 H52           -5.6733     3.0397     0.3834 H       
  53 H53           -7.8003     3.9367    -0.5538 H       
  54 H54           -7.0133     5.1100     0.5296 H       
  55 H55           -6.8951     5.1092    -2.4160 H       
  56 H56           -5.7103     7.1624    -2.2098 H       
  57 H57           -5.7908     6.9968    -0.4390 H       
  58 H58           -3.5833     6.2654    -1.2727 H       
  59 H59           -4.3703     5.0922    -2.3561 H       
  60 H60           -4.0534     9.3268     2.8263 H       
  61 H61           -3.1324     9.3034     5.0983 H       
  62 H62           -1.0987     8.0077     5.5972 H       
  63 H63            0.0125     6.7323     3.8482 H       
@<TRIPOS>BOND
   1    1    2 am
   2    1   10 1
   3    1   17 1
   4    2    3 1
   5    2   15 2
   6    3    4 2
   7    3   41 1
   8    4    5 1
   9    4   42 1
  10    5    6 ar
  11    5   10 ar
  12    6    7 ar
  13    6   43 1
  14    7    8 ar
  15    8    9 ar
  16    8   14 ar
  17    9   10 ar
  18    9   11 ar
  19   11   12 ar
  20   11   44 1
  21   12   13 ar
  22   12   16 1
  23   13   14 ar
  24   13   45 1
  25   14   46 1
  26   16   24 2
  27   16   32 1
  28   17   18 ar
  29   17   22 ar
  30   18   19 ar
  31   18   47 1
  32   19   20 ar
  33   19   48 1
  34   20   21 ar
  35   20   23 1
  36   21   22 ar
  37   21   37 1
  38   22   49 1
  39   23   25 1
  40   23   29 1
  41   24   30 1
  42   24   50 1
  43   25   26 1
  44   25   51 1
  45   25   52 1
  46   26   27 1
  47   26   53 1
  48   26   54 1
  49   27   28 1
  50   27   55 1
  51   28   29 1
  52   28   56 1
  53   28   57 1
  54   29   58 1
  55   29   59 1
  56   30   31 1
  57   31   32 ar
  58   31   33 ar
  59   32   36 ar
  60   33   34 ar
  61   33   60 1
  62   34   35 ar
  63   34   61 1
  64   35   36 ar
  65   35   62 1
  66   36   63 1
  67   37   38 1
  68   37   39 1
  69   37   40 1

#	End of record

