#	Name: ASD00190028
#	Creating user name:	WinNT
#	Creation time:	15. 06. 2019 18:33

#	Modifying user name:	WinNT
#	Modification time:	15. 06. 2019 18:33

#	Program:	/corina/corina34_cracker 3.40 0067  02.08.2006

@<TRIPOS>MOLECULE
ASD00190028
  49   53    0    0    0
SMALL
NO_CHARGES


@<TRIPOS>ATOM
   1 C1            -0.0142     1.3575     0.0069 C.ar    
   2 C2             0.0050    -0.0052    -0.0081 C.ar    
   3 C3             1.2069    -0.7047    -0.0376 C.ar    
   4 C4             2.3991    -0.0413    -0.0520 C.ar    
   5 C5             2.4138     1.3571    -0.0372 C.ar    
   6 C6             1.1926     2.0734    -0.0075 C.ar    
   7 C7             3.6589     2.1125    -0.0520 C.ar    
   8 C8             3.5789     3.5086    -0.0360 C.ar    
   9 C9             2.3057     4.1210    -0.0062 C.ar    
  10 N10            1.1984     3.4146     0.0072 N.ar    
  11 N11            4.9900     1.8002    -0.0802 N.pl3   
  12 C12            5.6815     2.9727    -0.0810 C.2     
  13 N13            4.8504     3.9750    -0.0550 N.2     
  14 N14            2.2231     5.5041     0.0102 N.pl3   
  15 C15            0.9773     6.1309    -0.0801 C.ar    
  16 C16            7.1835     3.0928    -0.1071 C.3     
  17 C17            7.7450     2.9948     1.3221 C.3     
  18 C18            8.6769     1.7656     1.3461 C.3     
  19 C19            9.0940     1.5762    -0.1335 C.3     
  20 C20            7.7937     1.9198    -0.9018 C.3     
  21 C21            0.7428     7.3158     0.6057 C.ar    
  22 C22           -0.4894     7.9329     0.5138 C.ar    
  23 C23           -1.4891     7.3725    -0.2598 C.ar    
  24 C24           -1.2592     6.1924    -0.9436 C.ar    
  25 C25           -0.0277     5.5733    -0.8608 C.ar    
  26 C26           -0.7449     9.2182     1.2580 C.3     
  27 O27           -0.3943    10.3271     0.4276 O.3     
  28 H28           -0.9562     1.8853     0.0254 H       
  29 H29           -0.9273    -0.5502     0.0035 H       
  30 H30            1.1963    -1.7846    -0.0490 H       
  31 H31            3.3270    -0.5934    -0.0742 H       
  32 H32            5.3709     0.9083    -0.0963 H       
  33 H33            3.0301     6.0373     0.0844 H       
  34 H34            7.4741     4.0416    -0.5582 H       
  35 H35            8.3089     3.8956     1.5644 H       
  36 H36            6.9312     2.8603     2.0347 H       
  37 H37            9.5512     1.9618     1.9668 H       
  38 H38            8.1411     0.8876     1.7068 H       
  39 H39            9.8943     2.2663    -0.4006 H       
  40 H40            9.3928     0.5450    -0.3217 H       
  41 H41            7.1152     1.0668    -0.9041 H       
  42 H42            8.0234     2.2286    -1.9216 H       
  43 H43            1.5231     7.7539     1.2104 H       
  44 H44           -2.4517     7.8570    -0.3299 H       
  45 H45           -2.0422     5.7571    -1.5467 H       
  46 H46            0.1512     4.6519    -1.3950 H       
  47 H47           -1.8005     9.2815     1.5221 H       
  48 H48           -0.1414     9.2388     2.1654 H       
  49 H49           -0.5332    11.1891     0.8432 H       
@<TRIPOS>BOND
   1    1    2 ar
   2    1    6 ar
   3    1   28 1
   4    2    3 ar
   5    2   29 1
   6    3    4 ar
   7    3   30 1
   8    4    5 ar
   9    4   31 1
  10    5    6 ar
  11    5    7 ar
  12    6   10 ar
  13    7    8 ar
  14    7   11 1
  15    8    9 ar
  16    8   13 1
  17    9   10 ar
  18    9   14 1
  19   11   12 1
  20   11   32 1
  21   12   13 2
  22   12   16 1
  23   14   15 1
  24   14   33 1
  25   15   21 ar
  26   15   25 ar
  27   16   17 1
  28   16   20 1
  29   16   34 1
  30   17   18 1
  31   17   35 1
  32   17   36 1
  33   18   19 1
  34   18   37 1
  35   18   38 1
  36   19   20 1
  37   19   39 1
  38   19   40 1
  39   20   41 1
  40   20   42 1
  41   21   22 ar
  42   21   43 1
  43   22   23 ar
  44   22   26 1
  45   23   24 ar
  46   23   44 1
  47   24   25 ar
  48   24   45 1
  49   25   46 1
  50   26   27 1
  51   26   47 1
  52   26   48 1
  53   27   49 1

#	End of record

