#	Name: ASD07330022
#	Creating user name:	WinNT
#	Creation time:	15. 06. 2019 21:11

#	Modifying user name:	WinNT
#	Modification time:	15. 06. 2019 21:11

#	Program:	/corina/corina34_cracker 3.40 0067  02.08.2006

@<TRIPOS>MOLECULE
ASD07330022
  64   66    0    0    0
SMALL
NO_CHARGES


@<TRIPOS>ATOM
   1 C1            -0.0319     0.9318     0.3077 C.ar    
   2 C2             0.3825     0.3423     1.4928 C.ar    
   3 N3             1.6503     0.0776     1.7282 N.ar    
   4 C4             2.5954     0.3634     0.8382 C.ar    
   5 C5             2.2431     0.9648    -0.3915 C.ar    
   6 C6             0.9048     1.2533    -0.6588 C.ar    
   7 N7             3.9014     0.0916     1.0798 N.2     
   8 C8             4.8284     0.3695     0.2132 C.2     
   9 N9             4.5792     0.9466    -0.9913 N.am    
  10 C10            3.3137     1.2667    -1.3505 C.2     
  11 O11            3.0728     1.7839    -2.4259 O.2     
  12 C12            5.6401     1.2130    -1.8681 C.ar    
  13 C13            6.0916     0.2245    -2.7325 C.ar    
  14 C14            7.1361     0.4876    -3.5962 C.ar    
  15 C15            7.7346     1.7393    -3.6006 C.ar    
  16 C16            7.2838     2.7274    -2.7371 C.ar    
  17 C17            6.2359     2.4671    -1.8767 C.ar    
  18 C18            6.2556     0.0344     0.5626 C.3     
  19 C19            6.8548     1.1660     1.3999 C.3     
  20 N20            6.2905    -1.2161     1.3328 N.3     
  21 C21            7.5907    -1.8851     1.1917 C.3     
  22 C22            7.5887    -3.1804     2.0060 C.3     
  23 O23            8.7633     1.9976    -4.4509 O.3     
  24 C24           10.4679     3.4089    -5.4222 C.3     
  25 C25            9.3323     3.3075    -4.4018 C.3     
  26 P26            9.2022    -4.0106     1.8309 P.3     
  27 O27           10.2828    -3.0746     2.2137 O.2     
  28 O28            9.2474    -5.3033     2.7895 O.3     
  29 C29           10.1159    -7.2482     3.9313 C.3     
  30 C30           10.4168    -6.1074     2.9573 C.3     
  31 O31            9.4065    -4.4695     0.3012 O.3     
  32 C32           10.4740    -5.3709    -1.6707 C.3     
  33 C33           10.6174    -5.0559    -0.1803 C.3     
  34 H34           -1.0791     1.1344     0.1386 H       
  35 H35           -0.3543     0.0942     2.2425 H       
  36 H36            0.6090     1.7123    -1.5906 H       
  37 H37            5.6261    -0.7500    -2.7289 H       
  38 H38            7.4877    -0.2813    -4.2683 H       
  39 H39            7.7503     3.7014    -2.7407 H       
  40 H40            5.8849     3.2365    -1.2049 H       
  41 H41            6.8349    -0.0864    -0.3528 H       
  42 H42            6.2467     1.3198     2.2913 H       
  43 H43            7.8705     0.9016     1.6942 H       
  44 H44            6.8743     2.0829     0.8108 H       
  45 H45            6.0734    -1.0488     2.3038 H       
  46 H46            7.7682    -2.1164     0.1414 H       
  47 H47            8.3793    -1.2273     1.5571 H       
  48 H48            7.4112    -2.9490     3.0562 H       
  49 H49            6.8001    -3.8381     1.6405 H       
  50 H50           11.2346     2.6706    -5.1871 H       
  51 H51           10.0761     3.2202    -6.4217 H       
  52 H52           10.9019     4.4080    -5.3847 H       
  53 H53            8.5656     4.0457    -4.6368 H       
  54 H54            9.7241     3.4962    -3.4023 H       
  55 H55           11.0078    -7.8615     4.0593 H       
  56 H56            9.8182    -6.8344     4.8948 H       
  57 H57            9.3072    -7.8616     3.5338 H       
  58 H58           10.7145    -6.5212     1.9939 H       
  59 H59           11.2255    -5.4940     3.3548 H       
  60 H60            9.6493    -6.0684    -1.8169 H       
  61 H61           10.2729    -4.4505    -2.2189 H       
  62 H62           11.3976    -5.8182    -2.0380 H       
  63 H63           11.4421    -4.3583    -0.0341 H       
  64 H64           10.8185    -5.9763     0.3679 H       
@<TRIPOS>BOND
   1    1    2 ar
   2    1    6 ar
   3    1   34 1
   4    2    3 ar
   5    2   35 1
   6    3    4 ar
   7    4    5 ar
   8    4    7 1
   9    5    6 ar
  10    5   10 1
  11    6   36 1
  12    7    8 2
  13    8    9 1
  14    8   18 1
  15    9   10 am
  16    9   12 1
  17   10   11 2
  18   12   13 ar
  19   12   17 ar
  20   13   14 ar
  21   13   37 1
  22   14   15 ar
  23   14   38 1
  24   15   16 ar
  25   15   23 1
  26   16   17 ar
  27   16   39 1
  28   17   40 1
  29   18   19 1
  30   18   20 1
  31   18   41 1
  32   19   42 1
  33   19   43 1
  34   19   44 1
  35   20   21 1
  36   20   45 1
  37   21   22 1
  38   21   46 1
  39   21   47 1
  40   22   26 1
  41   22   48 1
  42   22   49 1
  43   23   25 1
  44   24   25 1
  45   24   50 1
  46   24   51 1
  47   24   52 1
  48   25   53 1
  49   25   54 1
  50   26   27 2
  51   26   28 1
  52   26   31 1
  53   28   30 1
  54   29   30 1
  55   29   55 1
  56   29   56 1
  57   29   57 1
  58   30   58 1
  59   30   59 1
  60   31   33 1
  61   32   33 1
  62   32   60 1
  63   32   61 1
  64   32   62 1
  65   33   63 1
  66   33   64 1

#	End of record

