#	Name: ASD03331694
#	Creating user name:	WinNT
#	Creation time:	15. 06. 2019 20:39

#	Modifying user name:	WinNT
#	Modification time:	15. 06. 2019 20:39

#	Program:	/corina/corina34_cracker 3.40 0067  02.08.2006

@<TRIPOS>MOLECULE
ASD03331694
  54   56    0    0    0
SMALL
NO_CHARGES


@<TRIPOS>ATOM
   1 C1             0.2792     1.4937     0.1341 C.3     
   2 N2             0.2011     0.0272     0.0801 N.3     
   3 C3             0.5968    -0.4793    -1.2465 C.3     
   4 C4             1.9123     0.1575    -1.6138 C.2     
   5 N5             2.4252     1.2538    -0.9804 N.pl3   
   6 C6             1.7478     1.9374     0.1251 C.3     
   7 C7             2.7954    -0.1985    -2.5778 C.2     
   8 N8             3.8362     0.6751    -2.5249 N.2     
   9 C9             3.6154     1.5466    -1.5659 C.2     
  10 C10            4.5130     2.6601    -1.1875 C.2     
  11 C11            2.6538    -1.3274    -3.5137 C.2     
  12 O12            1.6704    -2.0413    -3.4611 O.2     
  13 N13            3.6139    -1.5692    -4.4281 N.am    
  14 C14            3.4730    -2.6918    -5.3588 C.3     
  15 C15            2.6400    -2.2531    -6.5648 C.3     
  16 C16            4.8369    -3.1328    -5.8241 C.2     
  17 N17            5.0382    -4.4092    -6.2069 N.am    
  18 O18            5.7534    -2.3390    -5.8540 O.2     
  19 C19            6.3856    -4.8649    -6.5578 C.3     
  20 C20            3.2730    -1.0123    -7.1977 C.3     
  21 C21            2.5967    -3.3847    -7.5936 C.3     
  22 C22            1.2171    -1.9236    -6.1090 C.3     
  23 C23            4.4540     3.4109     0.0050 C.2     
  24 C24            5.5550     3.1456    -1.9270 C.2     
  25 N25            6.1134     4.1541    -1.2304 N.pl3   
  26 N26            5.4096     4.3006    -0.0291 N.2     
  27 C27            7.2629     4.9569    -1.6549 C.3     
  28 H28           -0.2320     1.9158    -0.7312 H       
  29 H29           -0.2009     1.8487     1.0459 H       
  30 H30            0.7597    -0.3917     0.8085 H       
  31 H31            0.7096    -1.5628    -1.2087 H       
  32 H32           -0.1604    -0.2125    -1.9838 H       
  33 H33            1.8052     3.0163    -0.0192 H       
  34 H34            2.2197     1.6664     1.0696 H       
  35 H35            4.3981    -0.9999    -4.4701 H       
  36 H36            2.9753    -3.5207    -4.8555 H       
  37 H37            4.2910    -5.0262    -6.2500 H       
  38 H38            6.3513    -5.9173    -6.8398 H       
  39 H39            6.7616    -4.2766    -7.3948 H       
  40 H40            7.0464    -4.7399    -5.7000 H       
  41 H41            4.2867    -1.2471    -7.5224 H       
  42 H42            2.6795    -0.6997    -8.0569 H       
  43 H43            3.3038    -0.2061    -6.4647 H       
  44 H44            2.2418    -4.2975    -7.1151 H       
  45 H45            1.9207    -3.1130    -8.4044 H       
  46 H46            3.5968    -3.5498    -7.9944 H       
  47 H47            1.2479    -1.1174    -5.3761 H       
  48 H48            0.6236    -1.6110    -6.9682 H       
  49 H49            0.7661    -2.8075    -5.6581 H       
  50 H50            3.7426     3.2745     0.8060 H       
  51 H51            5.8733     2.7855    -2.8941 H       
  52 H52            6.9135     5.8230    -2.2170 H       
  53 H53            7.8158     5.2923    -0.7774 H       
  54 H54            7.9147     4.3529    -2.2860 H       
@<TRIPOS>BOND
   1    1    2 1
   2    1    6 1
   3    1   28 1
   4    1   29 1
   5    2    3 1
   6    2   30 1
   7    3    4 1
   8    3   31 1
   9    3   32 1
  10    4    5 1
  11    4    7 2
  12    5    6 1
  13    5    9 1
  14    6   33 1
  15    6   34 1
  16    7    8 1
  17    7   11 1
  18    8    9 2
  19    9   10 1
  20   10   24 2
  21   10   23 1
  22   11   12 2
  23   11   13 am
  24   13   14 1
  25   13   35 1
  26   14   15 1
  27   14   16 1
  28   14   36 1
  29   15   20 1
  30   15   21 1
  31   15   22 1
  32   16   17 am
  33   16   18 2
  34   17   19 1
  35   17   37 1
  36   19   38 1
  37   19   39 1
  38   19   40 1
  39   20   41 1
  40   20   42 1
  41   20   43 1
  42   21   44 1
  43   21   45 1
  44   21   46 1
  45   22   47 1
  46   22   48 1
  47   22   49 1
  48   23   26 2
  49   23   50 1
  50   24   25 1
  51   24   51 1
  52   25   26 1
  53   25   27 1
  54   27   52 1
  55   27   53 1
  56   27   54 1

#	End of record

