#	Name: ASD01916347
#	Creating user name:	WinNT
#	Creation time:	15. 06. 2019 20:07

#	Modifying user name:	WinNT
#	Modification time:	15. 06. 2019 20:07

#	Program:	/corina/corina34_cracker 3.40 0067  02.08.2006

@<TRIPOS>MOLECULE
ASD01916347
  37   39    0    0    0
SMALL
NO_CHARGES


@<TRIPOS>ATOM
   1 C1            -0.0308     1.5479    -0.0191 C.3     
   2 C2            -0.0182     0.0138    -0.0314 C.3     
   3 C3             0.6143    -0.4800    -1.3305 C.3     
   4 C4             1.9756     0.1224    -1.5341 C.ar    
   5 C5             2.3507     1.3160    -0.9073 C.ar    
   6 C6             1.4113     2.0143    -0.0188 C.2     
   7 N7             2.8505    -0.4783    -2.3220 N.ar    
   8 C8             4.0569     0.0384    -2.5171 C.ar    
   9 N9             4.4454     1.1694    -1.9411 N.ar    
  10 C10            3.6327     1.8320    -1.1386 C.ar    
  11 N11            4.9382    -0.6230    -3.3469 N.pl3   
  12 C12            6.1703    -0.0428    -3.6629 C.ar    
  13 O13            1.7765     2.9291     0.6890 O.2     
  14 C14            7.2929    -0.8427    -3.8338 C.ar    
  15 C15            8.5084    -0.2664    -4.1463 C.ar    
  16 C16            8.6086     1.1054    -4.2891 C.ar    
  17 C17            7.4929     1.9047    -4.1197 C.ar    
  18 C18            6.2732     1.3343    -3.8122 C.ar    
  19 C19            9.7271    -1.1334    -4.3314 C.3     
  20 C20            7.6069     3.3992    -4.2758 C.3     
  21 H21           -0.5406     1.9212    -0.9072 H       
  22 H22           -0.5363     1.9069     0.8775 H       
  23 H23            0.5612    -0.3516     0.8165 H       
  24 H24           -1.0402    -0.3586     0.0396 H       
  25 H25            0.7057    -1.5655    -1.2935 H       
  26 H26           -0.0273    -0.2046    -2.1675 H       
  27 H27            3.9493     2.7524    -0.6706 H       
  28 H28            4.7030    -1.4907    -3.7113 H       
  29 H29            7.2154    -1.9141    -3.7220 H       
  30 H30            9.5604     1.5537    -4.5332 H       
  31 H31            5.4022     1.9590    -3.6804 H       
  32 H32            9.8057    -1.4312    -5.3769 H       
  33 H33           10.6178    -0.5741    -4.0450 H       
  34 H34            9.6393    -2.0218    -3.7061 H       
  35 H35            7.4192     3.6714    -5.3145 H       
  36 H36            6.8743     3.8885    -3.6339 H       
  37 H37            8.6096     3.7187    -3.9920 H       
@<TRIPOS>BOND
   1    1    2 1
   2    1    6 1
   3    1   21 1
   4    1   22 1
   5    2    3 1
   6    2   23 1
   7    2   24 1
   8    3    4 1
   9    3   25 1
  10    3   26 1
  11    4    5 ar
  12    4    7 ar
  13    5    6 1
  14    5   10 ar
  15    6   13 2
  16    7    8 ar
  17    8    9 ar
  18    8   11 1
  19    9   10 ar
  20   10   27 1
  21   11   12 1
  22   11   28 1
  23   12   14 ar
  24   12   18 ar
  25   14   15 ar
  26   14   29 1
  27   15   16 ar
  28   15   19 1
  29   16   17 ar
  30   16   30 1
  31   17   18 ar
  32   17   20 1
  33   18   31 1
  34   19   32 1
  35   19   33 1
  36   19   34 1
  37   20   35 1
  38   20   36 1
  39   20   37 1

#	End of record

