#	Name: ASD03331565
#	Creating user name:	WinNT
#	Creation time:	15. 06. 2019 20:39

#	Modifying user name:	WinNT
#	Modification time:	15. 06. 2019 20:39

#	Program:	/corina/corina34_cracker 3.40 0067  02.08.2006

@<TRIPOS>MOLECULE
ASD03331565
  60   63    0    0    0
SMALL
NO_CHARGES


@<TRIPOS>ATOM
   1 C1             0.2227     1.3549    -0.8188 C.ar    
   2 C2             0.2820    -0.0370    -0.8926 C.ar    
   3 C3             1.4605     2.1410    -0.6236 C.2     
   4 N4             1.6125     3.4678    -0.9032 N.pl3   
   5 C5             2.9003     3.7979    -0.6068 C.2     
   6 C6             3.5030     2.6780    -0.1257 C.2     
   7 N7             2.5928     1.6793    -0.1473 N.2     
   8 C8             0.5890     4.3874    -1.4061 C.3     
   9 C9             1.2636     5.5203    -2.1836 C.3     
  10 O10            1.6170     6.5791    -1.2918 O.3     
  11 C11            2.5430     6.2180    -0.2708 C.3     
  12 C12            3.5101     5.1595    -0.8113 C.3     
  13 C13            4.8968     2.5735     0.3410 C.2     
  14 O14            5.6214     3.5500     0.3156 O.2     
  15 N15            5.3687     1.3959     0.7959 N.am    
  16 C16            6.7544     1.2920     1.2598 C.3     
  17 C17            7.2221    -0.1346     1.1295 C.2     
  18 C18            6.8352     1.7234     2.7255 C.3     
  19 C19            5.8447     0.9027     3.5540 C.3     
  20 C20            8.2540     1.4898     3.2484 C.3     
  21 C21            6.4877     3.2090     2.8398 C.3     
  22 C22           -0.8769    -0.7660    -1.0755 C.ar    
  23 C23           -2.0976    -0.1152    -1.1856 C.ar    
  24 C24           -2.1597     1.2669    -1.1133 C.ar    
  25 C25           -1.0073     2.0036    -0.9356 C.ar    
  26 F26           -3.2290    -0.8317    -1.3645 F       
  27 F27           -0.8219    -2.1140    -1.1476 F       
  28 N28            8.5124    -0.3971     0.8421 N.am    
  29 O29            6.4374    -1.0465     1.2833 O.2     
  30 C30            9.3099    -1.5989     0.5544 C.3     
  31 C31           10.5335    -0.8523     1.1035 C.3     
  32 C32            9.7413     0.3927     0.6717 C.3     
  33 H33            1.2321    -0.5434    -0.8072 H       
  34 H34           -0.0916     3.8487    -2.0655 H       
  35 H35            0.0305     4.8037    -0.5678 H       
  36 H36            2.1626     5.1409    -2.6694 H       
  37 H37            0.5769     5.8988    -2.9408 H       
  38 H38            3.1047     7.0994     0.0388 H       
  39 H39            2.0016     5.8130     0.5842 H       
  40 H40            4.4565     5.2207    -0.2740 H       
  41 H41            3.6795     5.3282    -1.8748 H       
  42 H42            4.7907     0.6171     0.8162 H       
  43 H43            7.3895     1.9393     0.6550 H       
  44 H44            6.0923    -0.1557     3.4726 H       
  45 H45            5.9023     1.2100     4.5982 H       
  46 H46            4.8340     1.0691     3.1815 H       
  47 H47            8.9519     2.1233     2.7009 H       
  48 H48            8.2953     1.7361     4.3094 H       
  49 H49            8.5255     0.4436     3.1075 H       
  50 H50            5.4769     3.3754     2.4673 H       
  51 H51            6.5452     3.5163     3.8840 H       
  52 H52            7.1933     3.7937     2.2496 H       
  53 H53           -3.1121     1.7688    -1.2003 H       
  54 H54           -1.0577     3.0809    -0.8791 H       
  55 H55            9.0240    -2.4633     1.1537 H       
  56 H56            9.3821    -1.8276    -0.5088 H       
  57 H57           10.6693    -0.9482     2.1808 H       
  58 H58           11.4492    -1.0161     0.5353 H       
  59 H59            9.9300     0.6912    -0.3595 H       
  60 H60            9.8218     1.2233     1.3729 H       
@<TRIPOS>BOND
   1    1    2 ar
   2    1    3 1
   3    1   25 ar
   4    2   22 ar
   5    2   33 1
   6    3    4 1
   7    3    7 2
   8    4    5 1
   9    4    8 1
  10    5    6 2
  11    5   12 1
  12    6    7 1
  13    6   13 1
  14    8    9 1
  15    8   34 1
  16    8   35 1
  17    9   10 1
  18    9   36 1
  19    9   37 1
  20   10   11 1
  21   11   12 1
  22   11   38 1
  23   11   39 1
  24   12   40 1
  25   12   41 1
  26   13   14 2
  27   13   15 am
  28   15   16 1
  29   15   42 1
  30   16   18 1
  31   16   17 1
  32   16   43 1
  33   17   28 am
  34   17   29 2
  35   18   19 1
  36   18   20 1
  37   18   21 1
  38   19   44 1
  39   19   45 1
  40   19   46 1
  41   20   47 1
  42   20   48 1
  43   20   49 1
  44   21   50 1
  45   21   51 1
  46   21   52 1
  47   22   23 ar
  48   22   27 1
  49   23   24 ar
  50   23   26 1
  51   24   25 ar
  52   24   53 1
  53   25   54 1
  54   28   30 1
  55   28   32 1
  56   30   31 1
  57   30   55 1
  58   30   56 1
  59   31   32 1
  60   31   57 1
  61   31   58 1
  62   32   59 1
  63   32   60 1

#	End of record

