#	Name: ASD01883519
#	Creating user name:	WinNT
#	Creation time:	15. 06. 2019 19:46

#	Modifying user name:	WinNT
#	Modification time:	15. 06. 2019 19:46

#	Program:	/corina/corina34_cracker 3.40 0067  02.08.2006

@<TRIPOS>MOLECULE
ASD01883519
  45   47    0    0    0
SMALL
NO_CHARGES


@<TRIPOS>ATOM
   1 N1            -0.0161     1.3416     0.0074 N.am    
   2 C2             0.0014    -0.0018     0.0881 C.2     
   3 C3            -1.2154    -0.7238     0.0994 C.2     
   4 C4            -2.4242    -0.0106     0.0251 C.2     
   5 C5            -2.3771     1.3936    -0.0575 C.2     
   6 C6            -1.1857     2.0301    -0.0587 C.2     
   7 O7             1.0644    -0.5959     0.1510 O.2     
   8 C8            -1.2153    -2.1533     0.1843 C.1     
   9 N9            -1.2151    -3.2873     0.2517 N.1     
  10 C10            1.2511     2.0767    -0.0033 C.3     
  11 C11            1.7299     2.2466    -1.4465 C.3     
  12 C12            3.0534     3.0142    -1.4577 C.3     
  13 C13            3.5950     3.0759    -2.8873 C.3     
  14 C14            2.8235     4.4346    -0.9377 C.3     
  15 N15           -3.6315    -0.6730     0.0327 N.pl3   
  16 C16           -4.0066    -1.5859    -1.0608 C.3     
  17 C17           -5.4841    -1.3310    -1.3913 C.3     
  18 O18           -6.2640    -1.5494    -0.2132 O.3     
  19 C19           -5.8589    -0.9456     0.9350 C.ar    
  20 C20           -4.5450    -0.5061     1.0857 C.ar    
  21 C21           -6.7615    -0.7697     1.9732 C.ar    
  22 C22           -6.3578    -0.1583     3.1453 C.ar    
  23 C23           -5.0544     0.2802     3.2904 C.ar    
  24 C24           -4.1456     0.1048     2.2641 C.ar    
  25 H25           -3.2934     1.9623    -0.1155 H       
  26 H26           -1.1620     3.1080    -0.1225 H       
  27 H27            1.1060     3.0576     0.4492 H       
  28 H28            1.9979     1.5215     0.5643 H       
  29 H29            1.8750     1.2656    -1.8991 H       
  30 H30            0.9831     2.8017    -2.0141 H       
  31 H31            3.7741     2.5051    -0.8178 H       
  32 H32            2.8743     3.5850    -3.5273 H       
  33 H33            4.5379     3.6228    -2.8953 H       
  34 H34            3.7588     2.0640    -3.2578 H       
  35 H35            3.7664     4.9815    -0.9457 H       
  36 H36            2.1028     4.9436    -1.5776 H       
  37 H37            2.4376     4.3906     0.0808 H       
  38 H38           -3.3914    -1.3850    -1.9378 H       
  39 H39           -3.8718    -2.6196    -0.7423 H       
  40 H40           -5.6110    -0.3021    -1.7278 H       
  41 H41           -5.8066    -2.0163    -2.1752 H       
  42 H42           -7.7807    -1.1103     1.8657 H       
  43 H43           -7.0636    -0.0222     3.9513 H       
  44 H44           -4.7445     0.7564     4.2089 H       
  45 H45           -3.1278     0.4475     2.3782 H       
@<TRIPOS>BOND
   1    1    2 am
   2    1   10 1
   3    1    6 1
   4    2    3 1
   5    2    7 2
   6    3    4 2
   7    3    8 1
   8    4    5 1
   9    4   15 1
  10    5    6 2
  11    5   25 1
  12    6   26 1
  13    8    9 3
  14   10   11 1
  15   10   27 1
  16   10   28 1
  17   11   12 1
  18   11   29 1
  19   11   30 1
  20   12   13 1
  21   12   14 1
  22   12   31 1
  23   13   32 1
  24   13   33 1
  25   13   34 1
  26   14   35 1
  27   14   36 1
  28   14   37 1
  29   15   16 1
  30   15   20 1
  31   16   17 1
  32   16   38 1
  33   16   39 1
  34   17   18 1
  35   17   40 1
  36   17   41 1
  37   18   19 1
  38   19   20 ar
  39   19   21 ar
  40   20   24 ar
  41   21   22 ar
  42   21   42 1
  43   22   23 ar
  44   22   43 1
  45   23   24 ar
  46   23   44 1
  47   24   45 1

#	End of record

