#	Name: ASD01810702
#	Creating user name:	WinNT
#	Creation time:	15. 06. 2019 19:25

#	Modifying user name:	WinNT
#	Modification time:	15. 06. 2019 19:25

#	Program:	/corina/corina34_cracker 3.40 0067  02.08.2006

@<TRIPOS>MOLECULE
ASD01810702
  46   49    0    0    0
SMALL
NO_CHARGES


@<TRIPOS>ATOM
   1 C1            -0.0340     1.5772    -0.1151 C.3     
   2 C2            -0.0477     0.0390    -0.2453 C.3     
   3 N3            -0.0424    -0.4554     1.1556 N.3     
   4 C4             0.8858     0.4636     1.8634 C.3     
   5 C5             0.5801     1.8565     1.2722 C.3     
   6 C6             1.3205     2.2792     0.0017 C.3     
   7 C7             2.5464     1.4914    -0.3824 C.ar    
   8 C8             2.5807     0.8113    -1.5857 C.ar    
   9 C9             3.7033     0.0884    -1.9401 C.ar    
  10 C10            4.7969     0.0452    -1.0875 C.ar    
  11 C11            4.7599     0.7285     0.1193 C.ar    
  12 C12            3.6371     1.4545     0.4666 C.ar    
  13 O13            5.9022    -0.6656    -1.4337 O.3     
  14 C14            6.9901    -0.6654    -0.5072 C.3     
  15 C15            0.4370    -1.8423     1.2225 C.3     
  16 C16            0.6623    -2.2270     2.6621 C.ar    
  17 C17           -0.3658    -2.7907     3.3949 C.ar    
  18 C18           -0.1618    -3.1441     4.7147 C.ar    
  19 C19            1.0759    -2.9331     5.3047 C.ar    
  20 C20            2.1059    -2.3673     4.5673 C.ar    
  21 C21            1.8985    -2.0208     3.2462 C.ar    
  22 O22            1.2789    -3.2795     6.6030 O.3     
  23 C23            2.5782    -3.0333     7.1446 C.3     
  24 H24           -0.8908     2.1250    -0.5073 H       
  25 H25           -0.9494    -0.2907    -0.7614 H       
  26 H26            0.8412    -0.3057    -0.7735 H       
  27 H27            0.6870     0.4535     2.9351 H       
  28 H28            1.9208     0.1853     1.6652 H       
  29 H29            0.1660     2.6098     1.9423 H       
  30 H30            1.3559     3.3440    -0.2284 H       
  31 H31            1.7290     0.8449    -2.2490 H       
  32 H32            3.7295    -0.4430    -2.8800 H       
  33 H33            5.6099     0.6964     0.7848 H       
  34 H34            3.6097     1.9905     1.4038 H       
  35 H35            7.8062    -1.2686    -0.9049 H       
  36 H36            7.3357     0.3568    -0.3528 H       
  37 H37            6.6584    -1.0841     0.4429 H       
  38 H38           -0.3069    -2.5056     0.7814 H       
  39 H39            1.3738    -1.9299     0.6722 H       
  40 H40           -1.3293    -2.9544     2.9352 H       
  41 H41           -0.9653    -3.5841     5.2867 H       
  42 H42            3.0703    -2.2020     5.0244 H       
  43 H43            2.7013    -1.5847     2.6704 H       
  44 H44            3.3214    -3.5896     6.5734 H       
  45 H45            2.7995    -1.9675     7.0879 H       
  46 H46            2.6048    -3.3550     8.1858 H       
@<TRIPOS>BOND
   1    1    2 1
   2    1    6 1
   3    1    5 1
   4    1   24 1
   5    2    3 1
   6    2   25 1
   7    2   26 1
   8    3    4 1
   9    3   15 1
  10    4    5 1
  11    4   27 1
  12    4   28 1
  13    5    6 1
  14    5   29 1
  15    6    7 1
  16    6   30 1
  17    7    8 ar
  18    7   12 ar
  19    8    9 ar
  20    8   31 1
  21    9   10 ar
  22    9   32 1
  23   10   11 ar
  24   10   13 1
  25   11   12 ar
  26   11   33 1
  27   12   34 1
  28   13   14 1
  29   14   35 1
  30   14   36 1
  31   14   37 1
  32   15   16 1
  33   15   38 1
  34   15   39 1
  35   16   17 ar
  36   16   21 ar
  37   17   18 ar
  38   17   40 1
  39   18   19 ar
  40   18   41 1
  41   19   20 ar
  42   19   22 1
  43   20   21 ar
  44   20   42 1
  45   21   43 1
  46   22   23 1
  47   23   44 1
  48   23   45 1
  49   23   46 1

#	End of record

