#	Name: ASD01882447
#	Creating user name:	WinNT
#	Creation time:	15. 06. 2019 19:44

#	Modifying user name:	WinNT
#	Modification time:	15. 06. 2019 19:44

#	Program:	/corina/corina34_cracker 3.40 0067  02.08.2006

@<TRIPOS>MOLECULE
ASD01882447
  51   55    0    0    0
SMALL
NO_CHARGES


@<TRIPOS>ATOM
   1 C1             0.2897     1.3244     1.1967 C.2     
   2 C2             0.4793    -0.0687     1.1921 C.2     
   3 C3             0.8767    -0.6837     0.0354 C.2     
   4 C4             1.0883     0.0886    -1.1271 C.2     
   5 C5             0.9006     1.4227    -1.1000 C.2     
   6 N6             0.5045     2.0457     0.0476 N.pl3   
   7 N7            -0.1078     3.3747     1.6286 N.2     
   8 N8            -0.0856     2.1888     2.1273 N.2     
   9 C9             0.2411     3.3447     0.3693 C.2     
  10 N10            1.0715    -2.0626     0.0059 N.pl3   
  11 C11            2.4042    -2.6250    -0.2517 C.3     
  12 C12            2.3045    -3.6164    -1.4153 C.3     
  13 C13            1.2317    -4.6611    -1.0996 C.3     
  14 C14           -0.1238    -3.9697    -0.9366 C.3     
  15 C15           -0.0505    -2.9823     0.2380 C.3     
  16 N16            1.1564    -5.6329    -2.1987 N.3     
  17 C17            2.4215    -6.3783    -2.3325 C.3     
  18 C18            2.0831    -7.8789    -2.2102 C.3     
  19 C19            0.5778    -7.9292    -2.5823 C.3     
  20 C20            0.0611    -6.6006    -1.9762 C.3     
  21 F21            2.8413    -8.6322    -3.1129 F       
  22 F22            2.2839    -8.3260    -0.8998 F       
  23 C23            0.3330     4.5288    -0.5584 C.3     
  24 C24           -1.0161     4.7426    -1.2477 C.3     
  25 C25           -1.1637     5.9727    -2.1454 C.3     
  26 C26           -1.0664     4.5786    -2.7681 C.3     
  27 Cl27           0.2132    -0.9969     2.6348 Cl      
  28 H28            1.4022    -0.3918    -2.0420 H       
  29 H29            1.0656     2.0043    -1.9949 H       
  30 H30            3.0949    -1.8232    -0.5129 H       
  31 H31            2.7612    -3.1418     0.6391 H       
  32 H32            2.0350    -3.0821    -2.3264 H       
  33 H33            3.2653    -4.1120    -1.5543 H       
  34 H34            1.4892    -5.1781    -0.1751 H       
  35 H35           -0.3704    -3.4321    -1.8522 H       
  36 H36           -0.8914    -4.7169    -0.7349 H       
  37 H37            0.1104    -3.5277     1.1679 H       
  38 H38           -0.9800    -2.4164     0.3000 H       
  39 H39            2.8691    -6.1773    -3.3058 H       
  40 H40            3.1092    -6.0873    -1.5385 H       
  41 H41            0.4433    -7.9434    -3.6639 H       
  42 H42            0.0893    -8.7861    -2.1184 H       
  43 H43           -0.1298    -6.7191    -0.9096 H       
  44 H44           -0.8431    -6.2752    -2.4906 H       
  45 H45            0.5938     5.4192     0.0137 H       
  46 H46            1.0998     4.3426    -1.3104 H       
  47 H47           -1.8903     4.4275    -0.6780 H       
  48 H48           -2.1351     6.4667    -2.1665 H       
  49 H49           -0.2996     6.6298    -2.2449 H       
  50 H50           -0.1384     4.3184    -3.2772 H       
  51 H51           -1.9738     4.1553    -3.1989 H       
@<TRIPOS>BOND
   1    1    2 1
   2    1    6 1
   3    1    8 2
   4    2    3 2
   5    2   27 1
   6    3    4 1
   7    3   10 1
   8    4    5 2
   9    4   28 1
  10    5    6 1
  11    5   29 1
  12    6    9 1
  13    7    8 1
  14    7    9 2
  15    9   23 1
  16   10   11 1
  17   10   15 1
  18   11   12 1
  19   11   30 1
  20   11   31 1
  21   12   13 1
  22   12   32 1
  23   12   33 1
  24   13   14 1
  25   13   16 1
  26   13   34 1
  27   14   15 1
  28   14   35 1
  29   14   36 1
  30   15   37 1
  31   15   38 1
  32   16   17 1
  33   16   20 1
  34   17   18 1
  35   17   39 1
  36   17   40 1
  37   18   19 1
  38   18   21 1
  39   18   22 1
  40   19   20 1
  41   19   41 1
  42   19   42 1
  43   20   43 1
  44   20   44 1
  45   23   24 1
  46   23   45 1
  47   23   46 1
  48   24   25 1
  49   24   26 1
  50   24   47 1
  51   25   26 1
  52   25   48 1
  53   25   49 1
  54   26   50 1
  55   26   51 1

#	End of record

