#	Name: ASD04590694
#	Creating user name:	WinNT
#	Creation time:	15. 06. 2019 20:51

#	Modifying user name:	WinNT
#	Modification time:	15. 06. 2019 20:51

#	Program:	/corina/corina34_cracker 3.40 0067  02.08.2006

@<TRIPOS>MOLECULE
ASD04590694
  83   88    0    0    0
SMALL
NO_CHARGES


@<TRIPOS>ATOM
   1 N1            -2.3783    -2.7059     0.0202 N.ar    
   2 C2            -1.2117    -2.0738     0.0039 C.ar    
   3 N3            -0.0574    -2.7202    -0.0183 N.ar    
   4 C4            -0.0260    -4.0496    -0.0246 C.ar    
   5 C5            -1.2488    -4.7506    -0.0072 C.ar    
   6 C6            -2.4371    -4.0274     0.0154 C.ar    
   7 N7             0.9973    -4.9640    -0.0458 N.pl3   
   8 C8             0.4930    -6.2538    -0.0430 C.ar    
   9 C9            -0.9096    -6.1793    -0.0192 C.ar    
  10 N10           -1.2020    -0.6888     0.0098 N.pl3   
  11 C11           -2.4014     0.0175    -0.0802 C.ar    
  12 C12            2.4221    -4.6237    -0.0689 C.3     
  13 C13            2.7452    -3.7927    -1.3231 C.3     
  14 C14            1.0885    -7.5120    -0.0585 C.ar    
  15 N15            0.3453    -8.6019    -0.0508 N.ar    
  16 C16           -0.9759    -8.5583    -0.0285 C.ar    
  17 C17           -1.6449    -7.3655    -0.0125 C.ar    
  18 C18            3.2827    -2.4350    -0.8257 C.3     
  19 C19            3.8159    -2.7357     0.5971 C.3     
  20 C20            2.7745    -3.7419     1.1468 C.3     
  21 N21           -3.5341    -0.6390    -0.2721 N.ar    
  22 C22           -4.6919    -0.0125    -0.3630 C.ar    
  23 C23           -4.7607     1.3687    -0.2594 C.ar    
  24 C24           -3.5876     2.0943    -0.0570 C.ar    
  25 C25           -2.3938     1.4030     0.0385 C.ar    
  26 N26           -5.9927     2.0262    -0.3574 N.3     
  27 F27            2.4352    -7.6176    -0.0820 F       
  28 C28           -7.0852     1.0680    -0.5693 C.3     
  29 C29           -8.3907     1.8274    -0.8163 C.3     
  30 C30           -8.6945     2.7172     0.3922 C.3     
  31 C31           -7.5201     3.6728     0.6204 C.3     
  32 C32           -6.2398     2.8600     0.8258 C.3     
  33 C33           -9.9664     3.5247     0.1257 C.3     
  34 O34          -10.3138     4.2664     1.2967 O.3     
  35 Si35         -11.6608     5.1714     1.1334 Si      
  36 C36          -11.9952     6.0800     2.7251 C.3     
  37 C37          -11.4194     6.4013    -0.2449 C.3     
  38 C38          -13.1066     4.0665     0.7336 C.3     
  39 C39          -10.8079     6.9874     3.0534 C.3     
  40 C40          -13.2588     6.9290     2.5719 C.3     
  41 C41          -12.1935     5.0699     3.8570 C.3     
  42 H42           -3.3900    -4.5355     0.0295 H       
  43 H43           -0.3610    -0.2099     0.0766 H       
  44 H44            3.0231    -5.5329    -0.0584 H       
  45 H45            3.5037    -4.2983    -1.9208 H       
  46 H46            1.8420    -3.6427    -1.9145 H       
  47 H47           -1.5369    -9.4811    -0.0232 H       
  48 H48           -2.7245    -7.3419     0.0057 H       
  49 H49            4.0897    -2.0852    -1.4695 H       
  50 H50            2.4800    -1.6988    -0.7845 H       
  51 H51            4.8054    -3.1906     0.5506 H       
  52 H52            3.8343    -1.8294     1.2023 H       
  53 H53            1.8897    -3.2167     1.5065 H       
  54 H54            3.2107    -4.3458     1.9425 H       
  55 H55           -5.5961    -0.5817    -0.5202 H       
  56 H56           -3.6112     3.1708     0.0271 H       
  57 H57           -1.4660     1.9332     0.1956 H       
  58 H58           -6.8586     0.4443    -1.4340 H       
  59 H59           -7.1927     0.4387     0.3141 H       
  60 H60           -8.2885     2.4465    -1.7076 H       
  61 H61           -9.2043     1.1159    -0.9581 H       
  62 H62           -8.8352     2.0953     1.2762 H       
  63 H63           -7.4042     4.3210    -0.2482 H       
  64 H64           -7.7116     4.2799     1.5052 H       
  65 H65           -6.3513     2.2223     1.7027 H       
  66 H66           -5.3992     3.5378     0.9744 H       
  67 H67           -9.7934     4.2125    -0.7020 H       
  68 H68          -10.7806     2.8464    -0.1295 H       
  69 H69          -11.2237     5.8697    -1.1761 H       
  70 H70          -12.3196     7.0061    -0.3540 H       
  71 H71          -10.5735     7.0478    -0.0109 H       
  72 H72          -13.2478     3.3469     1.5400 H       
  73 H73          -14.0068     4.6713     0.6245 H       
  74 H74          -12.9109     3.5349    -0.1977 H       
  75 H75          -10.6666     7.7070     2.2470 H       
  76 H76          -11.0035     7.5190     3.9847 H       
  77 H77           -9.9077     6.3826     3.1626 H       
  78 H78          -14.1047     6.2825     2.3380 H       
  79 H79          -13.4545     7.4606     3.5031 H       
  80 H80          -13.1176     7.6486     1.7655 H       
  81 H81          -11.2933     4.4651     3.9661 H       
  82 H82          -12.3892     5.6016     4.7882 H       
  83 H83          -13.0394     4.4235     3.6231 H       
@<TRIPOS>BOND
   1    1    2 ar
   2    1    6 ar
   3    2    3 ar
   4    2   10 1
   5    3    4 ar
   6    4    5 ar
   7    4    7 1
   8    5    6 ar
   9    5    9 1
  10    6   42 1
  11    7    8 1
  12    7   12 1
  13    8    9 ar
  14    8   14 ar
  15    9   17 ar
  16   10   11 1
  17   10   43 1
  18   11   21 ar
  19   11   25 ar
  20   12   13 1
  21   12   20 1
  22   12   44 1
  23   13   18 1
  24   13   45 1
  25   13   46 1
  26   14   15 ar
  27   14   27 1
  28   15   16 ar
  29   16   17 ar
  30   16   47 1
  31   17   48 1
  32   18   19 1
  33   18   49 1
  34   18   50 1
  35   19   20 1
  36   19   51 1
  37   19   52 1
  38   20   53 1
  39   20   54 1
  40   21   22 ar
  41   22   23 ar
  42   22   55 1
  43   23   24 ar
  44   23   26 1
  45   24   25 ar
  46   24   56 1
  47   25   57 1
  48   26   28 1
  49   26   32 1
  50   28   29 1
  51   28   58 1
  52   28   59 1
  53   29   30 1
  54   29   60 1
  55   29   61 1
  56   30   31 1
  57   30   33 1
  58   30   62 1
  59   31   32 1
  60   31   63 1
  61   31   64 1
  62   32   65 1
  63   32   66 1
  64   33   34 1
  65   33   67 1
  66   33   68 1
  67   34   35 1
  68   35   36 1
  69   35   37 1
  70   35   38 1
  71   36   39 1
  72   36   40 1
  73   36   41 1
  74   37   69 1
  75   37   70 1
  76   37   71 1
  77   38   72 1
  78   38   73 1
  79   38   74 1
  80   39   75 1
  81   39   76 1
  82   39   77 1
  83   40   78 1
  84   40   79 1
  85   40   80 1
  86   41   81 1
  87   41   82 1
  88   41   83 1

#	End of record

