#	Name: ASD01890001
#	Creating user name:	WinNT
#	Creation time:	15. 06. 2019 19:50

#	Modifying user name:	WinNT
#	Modification time:	15. 06. 2019 19:50

#	Program:	/corina/corina34_cracker 3.40 0067  02.08.2006

@<TRIPOS>MOLECULE
ASD01890001
  37   39    0    0    0
SMALL
NO_CHARGES


@<TRIPOS>ATOM
   1 C1            -0.8634    -0.2180    -1.0815 C.2     
   2 C2            -0.0695     0.1286     0.1516 C.3     
   3 C3             1.2898    -0.5715     0.0965 C.3     
   4 C4             2.1534    -0.1015     1.2687 C.3     
   5 O5            -0.3535    -0.8630    -1.9669 O.2     
   6 O6            -2.1388     0.1850    -1.1939 O.3     
   7 C7             1.0908    -2.0627     0.1853 C.ar    
   8 C8             1.5228    -2.8798    -0.8427 C.ar    
   9 C9             1.3406    -4.2475    -0.7618 C.ar    
  10 C10            0.7256    -4.7987     0.3482 C.ar    
  11 C11            0.2935    -3.9804     1.3767 C.ar    
  12 C12            0.4814    -2.6134     1.2972 C.ar    
  13 Cl13           0.4959    -6.5164     0.4503 Cl      
  14 C14            2.4657     1.3639     1.1068 C.2     
  15 N15            3.0289     1.8948     0.0610 N.2     
  16 C16            3.1629     3.2335     0.2448 C.ar    
  17 C17            2.6326     3.5275     1.5127 C.ar    
  18 N18            2.1944     2.3250     2.0305 N.pl3   
  19 C19            3.6866     4.2658    -0.5373 C.ar    
  20 C20            3.6795     5.5481    -0.0656 C.ar    
  21 C21            3.1562     5.8389     1.1859 C.ar    
  22 C22            2.6339     4.8360     1.9752 C.ar    
  23 H23            0.0791     1.2075     0.1967 H       
  24 H24           -0.6122    -0.2008     1.0376 H       
  25 H25            1.7869    -0.3266    -0.8422 H       
  26 H26            1.6138    -0.2570     2.2029 H       
  27 H27            3.0826    -0.6712     1.2868 H       
  28 H28           -2.6075    -0.0614    -2.0030 H       
  29 H29            2.0025    -2.4494    -1.7093 H       
  30 H30            1.6778    -4.8858    -1.5651 H       
  31 H31           -0.1866    -4.4101     2.2435 H       
  32 H32            0.1481    -1.9749     2.1020 H       
  33 H33            1.7731     2.1902     2.8938 H       
  34 H34            4.0968     4.0506    -1.5129 H       
  35 H35            4.0856     6.3434    -0.6730 H       
  36 H36            3.1578     6.8577     1.5445 H       
  37 H37            2.2274     5.0678     2.9486 H       
@<TRIPOS>BOND
   1    1    2 1
   2    1    5 2
   3    1    6 1
   4    2    3 1
   5    2   23 1
   6    2   24 1
   7    3    4 1
   8    3    7 1
   9    3   25 1
  10    4   14 1
  11    4   26 1
  12    4   27 1
  13    6   28 1
  14    7    8 ar
  15    7   12 ar
  16    8    9 ar
  17    8   29 1
  18    9   10 ar
  19    9   30 1
  20   10   11 ar
  21   10   13 1
  22   11   12 ar
  23   11   31 1
  24   12   32 1
  25   14   15 2
  26   14   18 1
  27   15   16 1
  28   16   17 ar
  29   16   19 ar
  30   17   18 1
  31   17   22 ar
  32   18   33 1
  33   19   20 ar
  34   19   34 1
  35   20   21 ar
  36   20   35 1
  37   21   22 ar
  38   21   36 1
  39   22   37 1

#	End of record

