#	Name: ASD05430012
#	Creating user name:	WinNT
#	Creation time:	15. 06. 2019 20:59

#	Modifying user name:	WinNT
#	Modification time:	15. 06. 2019 20:59

#	Program:	/corina/corina34_cracker 3.40 0067  02.08.2006

@<TRIPOS>MOLECULE
ASD05430012
  59   64    0    0    0
SMALL
NO_CHARGES


@<TRIPOS>ATOM
   1 C1            -0.1048     1.1341    -0.5375 C.ar    
   2 C2            -0.0422    -0.0928     0.1102 C.ar    
   3 C3            -1.1996    -0.6166     0.6976 C.ar    
   4 C4            -2.3862     0.0726     0.6355 C.ar    
   5 C5            -2.4457     1.3084    -0.0178 C.ar    
   6 C6            -1.2889     1.8352    -0.6007 C.ar    
   7 C7            -4.9466    -0.1281    -0.2916 C.3     
   8 C8            -4.8829     1.3829    -0.1344 C.2     
   9 C9            -3.7147     2.0503    -0.0869 C.2     
  10 C10           -6.0873    -0.4554    -1.2642 C.3     
  11 C11           -7.4749     0.0502    -0.8489 C.3     
  12 N12           -7.3667     1.4557    -0.4637 N.pl3   
  13 C13           -6.1883     2.0717    -0.0375 C.2     
  14 C14           -8.4005     2.4932    -0.4518 C.3     
  15 O15           -7.8338     3.5122     0.3981 O.3     
  16 N16           -6.4381     3.2484     0.4355 N.2     
  17 C17           -5.7596    -0.4763    -2.7567 C.3     
  18 C18           -6.0165    -1.7875    -2.0108 C.3     
  19 C19           -8.6336     3.0281    -1.8412 C.ar    
  20 C20           -8.3200     2.2523    -2.9416 C.ar    
  21 C21           -9.7011     1.9529     0.1460 C.3     
  22 C22           -9.1663     4.2920    -2.0144 C.ar    
  23 C23           -9.3813     4.7832    -3.2881 C.ar    
  24 C24           -9.0627     4.0092    -4.3910 C.ar    
  25 C25           -8.5338     2.7416    -4.2163 C.ar    
  26 F26           -9.2725     4.4884    -5.6366 F       
  27 C27            1.2698     1.4632    -1.0759 C.3     
  28 C28            2.1428     0.2687    -0.6581 C.3     
  29 N29            1.2417    -0.6317     0.0654 N.am    
  30 S30            1.6853    -2.0801     0.7344 S.o2    
  31 O31            0.4846    -2.8397     0.7537 O.2     
  32 O32            2.8028    -2.4957    -0.0388 O.2     
  33 C33            2.2001    -1.6603     2.4224 C.3     
  34 H34           -1.1595    -1.5701     1.2032 H       
  35 H35           -3.2742    -0.3400     1.0912 H       
  36 H36           -1.3255     2.7884    -1.1070 H       
  37 H37           -4.0028    -0.4969    -0.6930 H       
  38 H38           -5.1426    -0.5912     0.6755 H       
  39 H39           -3.7088     3.1302    -0.0995 H       
  40 H40           -8.1651    -0.0469    -1.6869 H       
  41 H41           -7.8387    -0.5335    -0.0034 H       
  42 H42           -6.5297    -0.1301    -3.4460 H       
  43 H43           -4.7329    -0.2567    -3.0497 H       
  44 H44           -5.1588    -2.4305    -1.8130 H       
  45 H45           -6.9557    -2.3039    -2.2093 H       
  46 H46           -7.9074     1.2636    -2.8051 H       
  47 H47           -9.5212     1.6229     1.1692 H       
  48 H48          -10.4556     2.7397     0.1454 H       
  49 H49          -10.0532     1.1114    -0.4506 H       
  50 H50           -9.4147     4.8956    -1.1539 H       
  51 H51           -9.7981     5.7704    -3.4231 H       
  52 H52           -8.2846     2.1370    -5.0758 H       
  53 H53            1.2417     1.5526    -2.1619 H       
  54 H54            1.6440     2.3834    -0.6271 H       
  55 H55            2.5482    -0.2296    -1.5387 H       
  56 H56            2.9502     0.6005    -0.0053 H       
  57 H57            1.3647    -1.2052     2.9545 H       
  58 H58            2.5124    -2.5657     2.9429 H       
  59 H59            3.0326    -0.9577     2.3843 H       
@<TRIPOS>BOND
   1    1    2 ar
   2    1   27 1
   3    1    6 ar
   4    2    3 ar
   5    2   29 1
   6    3    4 ar
   7    3   34 1
   8    4    5 ar
   9    4   35 1
  10    5    6 ar
  11    5    9 1
  12    6   36 1
  13    7    8 1
  14    7   10 1
  15    7   37 1
  16    7   38 1
  17    8    9 2
  18    8   13 1
  19    9   39 1
  20   10   11 1
  21   10   17 1
  22   10   18 1
  23   11   12 1
  24   11   40 1
  25   11   41 1
  26   12   13 1
  27   12   14 1
  28   13   16 2
  29   14   15 1
  30   14   19 1
  31   14   21 1
  32   15   16 1
  33   17   18 1
  34   17   42 1
  35   17   43 1
  36   18   44 1
  37   18   45 1
  38   19   20 ar
  39   19   22 ar
  40   20   25 ar
  41   20   46 1
  42   21   47 1
  43   21   48 1
  44   21   49 1
  45   22   23 ar
  46   22   50 1
  47   23   24 ar
  48   23   51 1
  49   24   25 ar
  50   24   26 1
  51   25   52 1
  52   27   28 1
  53   27   53 1
  54   27   54 1
  55   28   29 1
  56   28   55 1
  57   28   56 1
  58   29   30 am
  59   30   31 2
  60   30   32 2
  61   30   33 1
  62   33   57 1
  63   33   58 1
  64   33   59 1

#	End of record

