#	Name: ASD01140606
#	Creating user name:	WinNT
#	Creation time:	15. 06. 2019 19:01

#	Modifying user name:	WinNT
#	Modification time:	15. 06. 2019 19:01

#	Program:	/corina/corina34_cracker 3.40 0067  02.08.2006

@<TRIPOS>MOLECULE
ASD01140606
  38   40    0    0    0
SMALL
NO_CHARGES


@<TRIPOS>ATOM
   1 C1             0.1032     1.4766     0.6975 C.ar    
   2 C2             0.8410     0.9281     1.7607 C.ar    
   3 C3             1.9807     0.2321     1.5024 C.ar    
   4 C4             2.4318     0.0529     0.1913 C.ar    
   5 C5             1.7393     0.5724    -0.8653 C.ar    
   6 C6             0.5586     1.2961    -0.6329 C.ar    
   7 C7            -0.1811     1.8451    -1.6949 C.ar    
   8 C8            -1.3211     2.5404    -1.4328 C.ar    
   9 C9            -1.7685     2.7182    -0.1248 C.ar    
  10 C10           -1.0817     2.1963     0.9280 C.ar    
  11 O11            3.5747    -0.6471    -0.0349 O.3     
  12 C12            3.5002    -1.9840     0.0634 C.2     
  13 C13            4.7486    -2.8193    -0.0587 C.3     
  14 O14            2.4322    -2.5175     0.2496 O.2     
  15 C15            3.5711    -4.6945    -1.0394 C.3     
  16 N16            4.3767    -6.9797    -0.6900 N.3     
  17 C17            5.2088    -6.5252     0.4329 C.3     
  18 C18            5.6121    -5.0661     0.2075 C.3     
  19 N19            4.4031    -4.2400     0.0835 N.3     
  20 C20            3.1677    -6.1536    -0.8140 C.3     
  21 H21            0.5045     1.0590     2.7785 H       
  22 H22            2.5453    -0.1877     2.3218 H       
  23 H23            2.0979     0.4277    -1.8737 H       
  24 H24            0.1539     1.7159    -2.7135 H       
  25 H25           -1.8875     2.9611    -2.2505 H       
  26 H26           -2.6761     3.2749     0.0558 H       
  27 H27           -1.4432     2.3381     1.9357 H       
  28 H28            5.2037    -2.6519    -1.0349 H       
  29 H29            5.4528    -2.5365     0.7238 H       
  30 H30            2.6762    -4.0755    -1.1028 H       
  31 H31            4.1367    -4.6127    -1.9675 H       
  32 H32            4.9023    -6.9832    -1.5513 H       
  33 H33            4.6432    -6.6070     1.3610 H       
  34 H34            6.1037    -7.1442     0.4963 H       
  35 H35            6.2052    -4.7180     1.0532 H       
  36 H36            6.2009    -4.9886    -0.7065 H       
  37 H37            2.5789    -6.2311     0.1000 H       
  38 H38            2.5746    -6.5017    -1.6597 H       
@<TRIPOS>BOND
   1    1    2 ar
   2    1    6 ar
   3    1   10 ar
   4    2    3 ar
   5    2   21 1
   6    3    4 ar
   7    3   22 1
   8    4    5 ar
   9    4   11 1
  10    5    6 ar
  11    5   23 1
  12    6    7 ar
  13    7    8 ar
  14    7   24 1
  15    8    9 ar
  16    8   25 1
  17    9   10 ar
  18    9   26 1
  19   10   27 1
  20   11   12 1
  21   12   13 1
  22   12   14 2
  23   13   19 1
  24   13   28 1
  25   13   29 1
  26   15   20 1
  27   15   19 1
  28   15   30 1
  29   15   31 1
  30   16   17 1
  31   16   20 1
  32   16   32 1
  33   17   18 1
  34   17   33 1
  35   17   34 1
  36   18   19 1
  37   18   35 1
  38   18   36 1
  39   20   37 1
  40   20   38 1

#	End of record

