#	Name: ASD01908158
#	Creating user name:	WinNT
#	Creation time:	15. 06. 2019 19:54

#	Modifying user name:	WinNT
#	Modification time:	15. 06. 2019 19:54

#	Program:	/corina/corina34_cracker 3.40 0067  02.08.2006

@<TRIPOS>MOLECULE
ASD01908158
  32   34    0    0    0
SMALL
NO_CHARGES


@<TRIPOS>ATOM
   1 S1            -0.0242     1.7576    -0.0304 S.3     
   2 C2             0.0013    -0.0032    -0.0100 C.2     
   3 N3             1.2320    -0.4152    -0.0147 N.2     
   4 C4             2.1768     0.5142    -0.0329 C.2     
   5 C5             1.7377     1.7833    -0.0444 C.2     
   6 N6            -1.1185    -0.8216     0.0090 N.pl3   
   7 C7            -2.3869    -0.2623     0.1294 C.ar    
   8 C8            -3.5112    -1.0759     0.0312 C.ar    
   9 C9            -4.7659    -0.5069     0.1532 C.ar    
  10 C10           -4.8546     0.8620     0.3703 C.ar    
  11 C11           -3.6971     1.6092     0.4573 C.ar    
  12 N12           -2.5130     1.0385     0.3420 N.ar    
  13 N13            5.8058     0.3513    -0.0571 N.pl3   
  14 N14            5.4760    -1.0094    -0.0392 N.2     
  15 C15            4.1738    -1.1207    -0.0288 C.2     
  16 C16            3.6232     0.1752    -0.0397 C.2     
  17 C17            4.6585     1.0626    -0.0572 C.2     
  18 C18            3.3966    -2.4117    -0.0089 C.3     
  19 C19            3.1433    -2.8323     1.4401 C.3     
  20 H20            2.3577     2.6675    -0.0599 H       
  21 H21           -1.0174    -1.7837    -0.0616 H       
  22 H22           -3.4057    -2.1372    -0.1385 H       
  23 H23           -5.6566    -1.1133     0.0810 H       
  24 H24           -5.8194     1.3372     0.4697 H       
  25 H25           -3.7615     2.6740     0.6257 H       
  26 H26            6.7033     0.7191    -0.0641 H       
  27 H27            4.5756     2.1394    -0.0686 H       
  28 H28            2.4433    -2.2697    -0.5180 H       
  29 H29            3.9682    -3.1878    -0.5179 H       
  30 H30            4.0966    -2.9742     1.9492 H       
  31 H31            2.5716    -2.0562     1.9491 H       
  32 H32            2.5811    -3.7660     1.4545 H       
@<TRIPOS>BOND
   1    1    2 1
   2    1    5 1
   3    2    3 2
   4    2    6 1
   5    3    4 1
   6    4    5 2
   7    4   16 1
   8    5   20 1
   9    6    7 1
  10    6   21 1
  11    7    8 ar
  12    7   12 ar
  13    8    9 ar
  14    8   22 1
  15    9   10 ar
  16    9   23 1
  17   10   11 ar
  18   10   24 1
  19   11   12 ar
  20   11   25 1
  21   13   14 1
  22   13   17 1
  23   13   26 1
  24   14   15 2
  25   15   16 1
  26   15   18 1
  27   16   17 2
  28   17   27 1
  29   18   19 1
  30   18   28 1
  31   18   29 1
  32   19   30 1
  33   19   31 1
  34   19   32 1

#	End of record

