#	Name: ASD05740216
#	Creating user name:	WinNT
#	Creation time:	15. 06. 2019 21:03

#	Modifying user name:	WinNT
#	Modification time:	15. 06. 2019 21:03

#	Program:	/corina/corina34_cracker 3.40 0067  02.08.2006

@<TRIPOS>MOLECULE
ASD05740216
  71   76    0    0    0
SMALL
NO_CHARGES


@<TRIPOS>ATOM
   1 C1             0.8817    -1.4395    -0.5550 C.3     
   2 N2            -0.0020    -0.6445     0.3091 N.3     
   3 C3            -1.3196    -1.1113     0.2440 C.ar    
   4 C4            -2.3134    -0.4921     0.9907 C.ar    
   5 C5            -3.6134    -0.9527     0.9264 C.ar    
   6 C6            -3.9271    -2.0355     0.1155 C.ar    
   7 C7            -2.9333    -2.6551    -0.6308 C.ar    
   8 C8            -1.6345    -2.1903    -0.5717 C.ar    
   9 N9            -5.2459    -2.5031     0.0508 N.pl3   
  10 C10           -6.2990    -1.6130     0.1311 C.ar    
  11 N11           -6.0348    -0.3112     0.1576 N.ar    
  12 N12           -7.5345    -2.0896     0.1735 N.ar    
  13 C13           -8.5699    -1.2637     0.2508 C.ar    
  14 C14           -8.3271     0.1272     0.2868 C.ar    
  15 C15           -7.0048     0.5823     0.2339 C.ar    
  16 N16           -9.8597    -1.7265     0.2957 N.am    
  17 C17          -10.8976    -0.8748     0.3736 C.2     
  18 C18          -10.7116     0.5218     0.4120 C.2     
  19 C19           -9.4584     1.0456     0.3718 C.2     
  20 C20          -10.1108    -3.1693     0.2579 C.3     
  21 O21          -12.0304    -1.3231     0.4117 O.2     
  22 C22           -9.9541    -3.7429     1.6426 C.ar    
  23 C23          -11.0138    -3.6939     2.5397 C.ar    
  24 C24            0.4870    -0.6391     1.6949 C.3     
  25 C25            1.8987    -0.0491     1.7327 C.3     
  26 N26            2.7823    -0.8441     0.8686 N.3     
  27 C27            2.2934    -0.8494    -0.5173 C.3     
  28 C28            4.1655    -0.3540     0.9369 C.3     
  29 C29          -10.8652    -4.2237     3.8149 C.ar    
  30 C30           -9.6650    -4.7974     4.1872 C.ar    
  31 C31           -8.6124    -4.8445     3.2919 C.ar    
  32 C32           -8.7590    -4.3229     2.0193 C.ar    
  33 N33          -12.2259    -3.1127     2.1601 N.3     
  34 C34          -12.5365    -1.9463     2.9994 C.3     
  35 C35          -13.8391    -1.3062     2.5121 C.3     
  36 O36          -14.8828    -2.2836     2.5358 O.3     
  37 C37          -14.6136    -3.4330     1.7285 C.3     
  38 C38          -13.3189    -4.0948     2.2079 C.3     
  39 H39            0.9083    -2.4693    -0.1988 H       
  40 H40            0.5058    -1.4178    -1.5779 H       
  41 H41           -2.0693     0.3496     1.6219 H       
  42 H42           -4.3863    -0.4711     1.5071 H       
  43 H43           -3.1772    -3.4977    -1.2608 H       
  44 H44           -0.8616    -2.6722    -1.1521 H       
  45 H45           -5.4196    -3.4521    -0.0505 H       
  46 H46           -6.7823     1.6388     0.2596 H       
  47 H47          -11.5675     1.1776     0.4739 H       
  48 H48           -9.3035     2.1140     0.4009 H       
  49 H49          -11.1244    -3.3524    -0.0987 H       
  50 H50           -9.3974    -3.6447    -0.4152 H       
  51 H51           -0.1768    -0.0339     2.3124 H       
  52 H52            0.5091    -1.6598     2.0767 H       
  53 H53            1.8720     0.9807     1.3765 H       
  54 H54            2.2746    -0.0708     2.7556 H       
  55 H55            2.9571    -1.4547    -1.1347 H       
  56 H56            2.2713     0.1713    -0.8990 H       
  57 H57            4.5254    -0.4237     1.9634 H       
  58 H58            4.7981    -0.9599     0.2882 H       
  59 H59            4.1994     0.6852     0.6098 H       
  60 H60          -11.6869    -4.1870     4.5148 H       
  61 H61           -9.5486    -5.2092     5.1787 H       
  62 H62           -7.6751    -5.2935     3.5855 H       
  63 H63           -7.9348    -4.3613     1.3224 H       
  64 H64          -12.6525    -2.2640     4.0356 H       
  65 H65          -11.7259    -1.2210     2.9290 H       
  66 H66          -14.1034    -0.4755     3.1664 H       
  67 H67          -13.7061    -0.9403     1.4939 H       
  68 H68          -15.4381    -4.1406     1.8162 H       
  69 H69          -14.5032    -3.1290     0.6876 H       
  70 H70          -13.0794    -4.9378     1.5598 H       
  71 H71          -13.4474    -4.4468     3.2315 H       
@<TRIPOS>BOND
   1    1    2 1
   2    1   27 1
   3    1   39 1
   4    1   40 1
   5    2    3 1
   6    2   24 1
   7    3    4 ar
   8    3    8 ar
   9    4    5 ar
  10    4   41 1
  11    5    6 ar
  12    5   42 1
  13    6    7 ar
  14    6    9 1
  15    7    8 ar
  16    7   43 1
  17    8   44 1
  18    9   10 1
  19    9   45 1
  20   10   11 ar
  21   10   12 ar
  22   11   15 ar
  23   12   13 ar
  24   13   14 ar
  25   13   16 1
  26   14   15 ar
  27   14   19 1
  28   15   46 1
  29   16   17 am
  30   16   20 1
  31   17   18 1
  32   17   21 2
  33   18   19 2
  34   18   47 1
  35   19   48 1
  36   20   22 1
  37   20   49 1
  38   20   50 1
  39   22   23 ar
  40   22   32 ar
  41   23   29 ar
  42   23   33 1
  43   24   25 1
  44   24   51 1
  45   24   52 1
  46   25   26 1
  47   25   53 1
  48   25   54 1
  49   26   27 1
  50   26   28 1
  51   27   55 1
  52   27   56 1
  53   28   57 1
  54   28   58 1
  55   28   59 1
  56   29   30 ar
  57   29   60 1
  58   30   31 ar
  59   30   61 1
  60   31   32 ar
  61   31   62 1
  62   32   63 1
  63   33   34 1
  64   33   38 1
  65   34   35 1
  66   34   64 1
  67   34   65 1
  68   35   36 1
  69   35   66 1
  70   35   67 1
  71   36   37 1
  72   37   38 1
  73   37   68 1
  74   37   69 1
  75   38   70 1
  76   38   71 1

#	End of record

