#	Name: ASD09530015
#	Creating user name:	WinNT
#	Creation time:	15. 06. 2019 21:22

#	Modifying user name:	WinNT
#	Modification time:	15. 06. 2019 21:22

#	Program:	/corina/corina34_cracker 3.40 0067  02.08.2006

@<TRIPOS>MOLECULE
ASD09530015
  30   32    0    0    0
SMALL
NO_CHARGES


@<TRIPOS>ATOM
   1 C1            -0.0168     1.3905     0.0097 C.ar    
   2 C2             0.0021    -0.0041     0.0020 C.ar    
   3 C3             1.2224    -0.6792    -0.0133 C.ar    
   4 C4             2.4028     0.0352    -0.0207 C.ar    
   5 C5             2.3776     1.4184    -0.0130 C.ar    
   6 C6             1.1703     2.0938     0.0021 C.ar    
   7 C7            -1.2688    -0.7651     0.0106 C.2     
   8 C8            -2.3422    -0.5757     0.8824 C.2     
   9 N9            -3.2902    -1.4360     0.5847 N.2     
  10 N10           -2.8768    -2.2245    -0.4945 N.pl3   
  11 C11           -1.6210    -1.8061    -0.8591 C.2     
  12 N12           -3.4884    -3.2699    -1.1961 N.2     
  13 C13           -2.8729    -3.8548    -2.1908 C.2     
  14 C14           -1.5909    -3.4550    -2.5808 C.2     
  15 C15           -0.9652    -2.4341    -1.9261 C.2     
  16 C16            3.6705     2.1926    -0.0207 C.3     
  17 C17            4.0884     2.4583    -1.4440 C.2     
  18 O18            5.2184     3.1376    -1.6960 O.3     
  19 O19            3.4064     2.0599    -2.3583 O.2     
  20 H20           -0.9587     1.9189     0.0170 H       
  21 H21            1.2434    -1.7590    -0.0189 H       
  22 H22            3.3484    -0.4865    -0.0322 H       
  23 H23            1.1569     3.1737     0.0081 H       
  24 H24           -2.3864     0.1582     1.6735 H       
  25 H25           -3.3623    -4.6595    -2.7191 H       
  26 H26           -1.0983    -3.9502    -3.4045 H       
  27 H27            0.0248    -2.1194    -2.2218 H       
  28 H28            3.5298     3.1400     0.4995 H       
  29 H29            4.4441     1.6130     0.4829 H       
  30 H30            5.4451     3.2834    -2.6247 H       
@<TRIPOS>BOND
   1    1    2 ar
   2    1    6 ar
   3    1   20 1
   4    2    3 ar
   5    2    7 1
   6    3    4 ar
   7    3   21 1
   8    4    5 ar
   9    4   22 1
  10    5    6 ar
  11    5   16 1
  12    6   23 1
  13    7    8 1
  14    7   11 2
  15    8    9 2
  16    8   24 1
  17    9   10 1
  18   10   11 1
  19   10   12 1
  20   11   15 1
  21   12   13 2
  22   13   14 1
  23   13   25 1
  24   14   15 2
  25   14   26 1
  26   15   27 1
  27   16   17 1
  28   16   28 1
  29   16   29 1
  30   17   18 1
  31   17   19 2
  32   18   30 1

#	End of record

