#	Name: ASD04500019
#	Creating user name:	WinNT
#	Creation time:	15. 06. 2019 20:49

#	Modifying user name:	WinNT
#	Modification time:	15. 06. 2019 20:49

#	Program:	/corina/corina34_cracker 3.40 0067  02.08.2006

@<TRIPOS>MOLECULE
ASD04500019
  85   91    0    0    0
SMALL
NO_CHARGES


@<TRIPOS>ATOM
   1 C1             0.3745     1.2008    -0.8431 C.ar    
   2 C2             0.3028    -0.1343    -0.5617 C.ar    
   3 C3             1.3822    -0.8059    -0.0022 C.ar    
   4 C4             2.5530    -0.1370     0.2820 C.ar    
   5 C5             2.6482     1.2250     0.0026 C.ar    
   6 C6             1.5488     1.9071    -0.5667 C.ar    
   7 N7             1.6580     3.2246    -0.8305 N.2     
   8 C8             3.8713     1.9910     0.2834 C.2     
   9 N9             3.8666     3.3092    -0.0237 N.am    
  10 C10            2.7557     3.8879    -0.5734 C.2     
  11 O11            4.8507     1.4600     0.7738 O.2     
  12 C12            2.7975     5.3310    -0.8914 C.ar    
  13 C13            2.5409     7.1259    -2.4712 C.ar    
  14 C14            2.5002     5.7725    -2.1808 C.ar    
  15 C15            3.1290     6.2574     0.0991 C.ar    
  16 C16            3.1666     7.6034    -0.2011 C.ar    
  17 C17            2.8763     8.0392    -1.4810 C.ar    
  18 C18            5.0581     4.1213     0.2351 C.3     
  19 N19            9.1738     5.9699    -1.7865 N.pl3   
  20 N20            9.1823     7.1683    -1.3170 N.2     
  21 N21           10.3915     7.5925    -1.2051 N.2     
  22 C22           11.2269     6.6332    -1.6190 C.2     
  23 C23           10.4548     5.5869    -1.9945 C.2     
  24 C24           12.7317     6.7038    -1.6597 C.3     
  25 N25           13.1563     7.3641    -2.8966 N.am    
  26 C26           13.2131     8.7297    -2.9532 C.2     
  27 N27           13.5824     9.3851    -4.0232 N.2     
  28 C28           13.9368     8.7475    -5.1569 C.ar    
  29 C29           13.9089     7.3344    -5.1909 C.ar    
  30 C30           13.4953     6.6190    -3.9744 C.2     
  31 C31           14.3313     9.4516    -6.2981 C.ar    
  32 C32           14.6860     8.7625    -7.4358 C.ar    
  33 C33           14.6568     7.3745    -7.4652 C.ar    
  34 C34           14.2759     6.6574    -6.3516 C.ar    
  35 C35           12.8392     9.5009    -1.7487 C.ar    
  36 C36           13.4812     9.2565    -0.5342 C.ar    
  37 C37           13.1277     9.9813     0.5919 C.ar    
  38 C38           12.1368    10.9492     0.5135 C.ar    
  39 C39           11.4958    11.1954    -0.6921 C.ar    
  40 C40           11.8472    10.4792    -1.8244 C.ar    
  41 O41           13.4556     5.4029    -3.9395 O.2     
  42 S42            0.7798     7.8733    -3.9498 S.o2    
  43 C43            5.8980     4.2155    -1.0403 C.3     
  44 C44            7.1424     5.0636    -0.7700 C.3     
  45 C45            7.9823     5.1578    -2.0454 C.3     
  46 O46            0.6437     8.8820    -2.9583 O.2     
  47 O47            0.2622     6.5804    -3.6672 O.2     
  48 O48            0.8719     8.2767    -5.3092 O.2     
  49 O49            2.2524     7.5603    -3.7263 O.3     
  50 S50           11.0209    13.5007    -1.2456 S.o2    
  51 O51           11.5943    13.0720    -2.4731 O.2     
  52 O52           11.8934    13.7850    -0.1606 O.2     
  53 O53            9.7639    14.1621    -1.2869 O.2     
  54 O54           10.5258    12.1446    -0.7634 O.3     
  55 S55           14.9959    10.5916     2.0003 S.o2    
  56 O56           14.3742    11.8678     1.9364 O.2     
  57 O57           15.7380    10.1495     0.8720 O.2     
  58 O58           15.3497    10.0808     3.2782 O.2     
  59 O59           13.7521     9.7437     1.7754 O.3     
  60 H60           -0.4720     1.7080    -1.2819 H       
  61 H61           -0.6067    -0.6754    -0.7771 H       
  62 H62            1.3031    -1.8614     0.2123 H       
  63 H63            3.3893    -0.6635     0.7177 H       
  64 H64            2.2394     5.0610    -2.9504 H       
  65 H65            3.3556     5.9205     1.0999 H       
  66 H66            3.4232     8.3191     0.5660 H       
  67 H67            2.9077     9.0941    -1.7103 H       
  68 H68            4.7557     5.1214     0.5457 H       
  69 H69            5.6487     3.6583     1.0257 H       
  70 H70           10.7931     4.6371    -2.3817 H       
  71 H71           13.0921     7.2722    -0.8023 H       
  72 H72           13.1438     5.6953    -1.6262 H       
  73 H73           14.3573    10.5312    -6.2875 H       
  74 H74           14.9906     9.3082    -8.3166 H       
  75 H75           14.9381     6.8522    -8.3677 H       
  76 H76           14.2634     5.5778    -6.3783 H       
  77 H77           14.2524     8.5030    -0.4723 H       
  78 H78           11.8633    11.5123     1.3935 H       
  79 H79           11.3480    10.6717    -2.7625 H       
  80 H80            6.2004     3.2154    -1.3509 H       
  81 H81            5.3075     4.6784    -1.8308 H       
  82 H82            6.8400     6.0637    -0.4594 H       
  83 H83            7.7329     4.6006     0.0206 H       
  84 H84            7.3917     5.6208    -2.8359 H       
  85 H85            8.2847     4.1577    -2.3560 H       
@<TRIPOS>BOND
   1    1    2 ar
   2    1    6 ar
   3    1   60 1
   4    2    3 ar
   5    2   61 1
   6    3    4 ar
   7    3   62 1
   8    4    5 ar
   9    4   63 1
  10    5    6 ar
  11    5    8 1
  12    6    7 1
  13    7   10 2
  14    8    9 am
  15    8   11 2
  16    9   10 1
  17    9   18 1
  18   10   12 1
  19   12   15 ar
  20   12   14 ar
  21   13   14 ar
  22   13   17 ar
  23   13   49 1
  24   14   64 1
  25   15   16 ar
  26   15   65 1
  27   16   17 ar
  28   16   66 1
  29   17   67 1
  30   18   43 1
  31   18   68 1
  32   18   69 1
  33   19   20 1
  34   19   23 1
  35   19   45 1
  36   20   21 2
  37   21   22 1
  38   22   23 2
  39   22   24 1
  40   23   70 1
  41   24   25 1
  42   24   71 1
  43   24   72 1
  44   25   26 1
  45   25   30 am
  46   26   27 2
  47   26   35 1
  48   27   28 1
  49   28   31 ar
  50   28   29 ar
  51   29   30 1
  52   29   34 ar
  53   30   41 2
  54   31   32 ar
  55   31   73 1
  56   32   33 ar
  57   32   74 1
  58   33   34 ar
  59   33   75 1
  60   34   76 1
  61   35   36 ar
  62   35   40 ar
  63   36   37 ar
  64   36   77 1
  65   37   38 ar
  66   37   59 1
  67   38   39 ar
  68   38   78 1
  69   39   40 ar
  70   39   54 1
  71   40   79 1
  72   42   46 2
  73   42   47 2
  74   42   48 2
  75   42   49 1
  76   43   44 1
  77   43   80 1
  78   43   81 1
  79   44   45 1
  80   44   82 1
  81   44   83 1
  82   45   84 1
  83   45   85 1
  84   50   51 2
  85   50   52 2
  86   50   53 2
  87   50   54 1
  88   55   56 2
  89   55   57 2
  90   55   58 2
  91   55   59 1

#	End of record

