#	Name: ASD04590569
#	Creating user name:	WinNT
#	Creation time:	15. 06. 2019 20:51

#	Modifying user name:	WinNT
#	Modification time:	15. 06. 2019 20:51

#	Program:	/corina/corina34_cracker 3.40 0067  02.08.2006

@<TRIPOS>MOLECULE
ASD04590569
  67   72    0    0    0
SMALL
NO_CHARGES


@<TRIPOS>ATOM
   1 N1             2.2726     1.4607    -0.0345 N.ar    
   2 C2             2.4120     0.1396    -0.0524 C.ar    
   3 C3             1.3006    -0.6695    -0.0269 C.ar    
   4 C4             0.0328    -0.0920    -0.0013 C.ar    
   5 C5            -0.0744     1.2849     0.0095 C.ar    
   6 C6             1.0899     2.0462    -0.0050 C.ar    
   7 C7             3.8145    -0.4078    -0.1178 C.3     
   8 C8             3.8548    -1.8586     0.3591 C.3     
   9 N9             2.7664    -2.5880    -0.3122 N.am    
  10 C10            1.3918    -2.1736    -0.0105 C.3     
  11 N11            1.0070     3.4357     0.0118 N.pl3   
  12 C12            2.1603     4.1973     0.1095 C.ar    
  13 N13            2.0657     5.5137     0.0156 N.ar    
  14 C14            3.1500     6.2783     0.1044 C.ar    
  15 C15            4.3982     5.6537     0.3004 C.ar    
  16 C16            4.4478     4.2664     0.3931 C.ar    
  17 N17            3.3199     3.5813     0.2993 N.ar    
  18 N18            3.3486     7.6354     0.0448 N.pl3   
  19 C19            4.6917     7.9347     0.1952 C.ar    
  20 C20            5.3967     6.7289     0.3591 C.ar    
  21 C21            5.4052     9.1261     0.2108 C.ar    
  22 N22            6.7124     9.1224     0.3751 N.ar    
  23 C23            7.4041     8.0075     0.5316 C.ar    
  24 C24            6.7796     6.7783     0.5305 C.ar    
  25 C25            2.2885     8.6273    -0.1512 C.3     
  26 C26            3.0225    -3.5957    -1.1699 C.2     
  27 C27            1.8850    -4.3219    -1.8404 C.3     
  28 O28            4.1685    -3.9179    -1.4020 O.2     
  29 O29            2.4082    -5.3397    -2.6963 O.3     
  30 C30            1.5859     8.3660    -1.4852 C.3     
  31 C31            0.7700     9.5982    -1.8814 C.3     
  32 C32            1.6003    10.8601    -1.6392 C.3     
  33 C33            0.9706    11.6762    -0.5086 C.3     
  34 C34            1.2884    11.0153     0.8343 C.3     
  35 C35            0.4045     9.7800     1.0165 C.3     
  36 C36            1.2736     8.5213     0.9891 C.3     
  37 H37           -0.8519    -0.7113     0.0096 H       
  38 H38           -1.0434     1.7613     0.0287 H       
  39 H39            4.1709    -0.3587    -1.1467 H       
  40 H40            4.4649     0.1958     0.5152 H       
  41 H41            4.8139    -2.3058     0.0981 H       
  42 H42            3.7119    -1.8956     1.4391 H       
  43 H43            1.1096    -2.5435     0.9753 H       
  44 H44            0.7158    -2.5863    -0.7594 H       
  45 H45            0.1419     3.8707    -0.0449 H       
  46 H46            5.3890     3.7584     0.5428 H       
  47 H47            4.8840    10.0638     0.0867 H       
  48 H48            8.4749     8.0599     0.6624 H       
  49 H49            7.3509     5.8708     0.6586 H       
  50 H50            2.7230     9.6269    -0.1591 H       
  51 H51            1.2474    -4.7769    -1.0825 H       
  52 H52            1.3008    -3.6159    -2.4306 H       
  53 H53            1.7306    -5.8489    -3.1617 H       
  54 H54            2.3308     8.1608    -2.2541 H       
  55 H55            0.9219     7.5076    -1.3841 H       
  56 H56            0.5053     9.5345    -2.9368 H       
  57 H57           -0.1387     9.6405    -1.2809 H       
  58 H58            2.6163    10.5789    -1.3621 H       
  59 H59            1.6247    11.4591    -2.5496 H       
  60 H60            1.3764    12.6878    -0.5209 H       
  61 H61           -0.1098    11.7162    -0.6473 H       
  62 H62            2.3369    10.7179     0.8538 H       
  63 H63            1.0961    11.7220     1.6416 H       
  64 H64           -0.1142     9.8425     1.9732 H       
  65 H65           -0.3266     9.7343     0.2094 H       
  66 H66            0.6419     7.6468     0.8331 H       
  67 H67            1.8017     8.4235     1.9376 H       
@<TRIPOS>BOND
   1    1    2 ar
   2    1    6 ar
   3    2    3 ar
   4    2    7 1
   5    3    4 ar
   6    3   10 1
   7    4    5 ar
   8    4   37 1
   9    5    6 ar
  10    5   38 1
  11    6   11 1
  12    7    8 1
  13    7   39 1
  14    7   40 1
  15    8    9 1
  16    8   41 1
  17    8   42 1
  18    9   10 1
  19    9   26 am
  20   10   43 1
  21   10   44 1
  22   11   12 1
  23   11   45 1
  24   12   13 ar
  25   12   17 ar
  26   13   14 ar
  27   14   15 ar
  28   14   18 1
  29   15   16 ar
  30   15   20 1
  31   16   17 ar
  32   16   46 1
  33   18   19 1
  34   18   25 1
  35   19   20 ar
  36   19   21 ar
  37   20   24 ar
  38   21   22 ar
  39   21   47 1
  40   22   23 ar
  41   23   24 ar
  42   23   48 1
  43   24   49 1
  44   25   30 1
  45   25   36 1
  46   25   50 1
  47   26   27 1
  48   26   28 2
  49   27   29 1
  50   27   51 1
  51   27   52 1
  52   29   53 1
  53   30   31 1
  54   30   54 1
  55   30   55 1
  56   31   32 1
  57   31   56 1
  58   31   57 1
  59   32   33 1
  60   32   58 1
  61   32   59 1
  62   33   34 1
  63   33   60 1
  64   33   61 1
  65   34   35 1
  66   34   62 1
  67   34   63 1
  68   35   36 1
  69   35   64 1
  70   35   65 1
  71   36   66 1
  72   36   67 1

#	End of record

