#	Name: ASD01883666
#	Creating user name:	WinNT
#	Creation time:	15. 06. 2019 19:46

#	Modifying user name:	WinNT
#	Modification time:	15. 06. 2019 19:46

#	Program:	/corina/corina34_cracker 3.40 0067  02.08.2006

@<TRIPOS>MOLECULE
ASD01883666
  54   57    0    0    0
SMALL
NO_CHARGES


@<TRIPOS>ATOM
   1 C1            -0.4070     0.7384    -1.1126 C.2     
   2 C2             0.0021    -0.0041     0.0020 C.2     
   3 C3            -0.8269    -0.0436     1.1386 C.2     
   4 C4            -1.9990     0.6181     1.1664 C.2     
   5 N5            -2.4375     1.3532     0.1042 N.pl3   
   6 C6            -1.6865     1.4486    -1.0386 C.2     
   7 C7            -3.5720     2.0989    -0.1027 C.2     
   8 C8            -3.4873     2.6148    -1.3454 C.2     
   9 N9            -2.3371     2.2111    -1.8983 N.2     
  10 N10            1.2030    -0.6889    -0.0141 N.pl3   
  11 C11            1.2305    -2.1543     0.0880 C.3     
  12 C12            2.1618    -2.5511     1.2378 C.3     
  13 C13            3.5346    -1.9102     1.0215 C.3     
  14 C14            3.3932    -0.3864     1.0183 C.3     
  15 C15            2.4756     0.0345    -0.1397 C.3     
  16 C16           -4.7001     2.3019     0.8756 C.3     
  17 C17           -5.8074     1.2838     0.5957 C.3     
  18 F18           -5.2964    -0.0111     0.7354 F       
  19 F19           -6.8547     1.4723     1.5039 F       
  20 F20           -6.2834     1.4592    -0.7080 F       
  21 C21            4.4635    -2.3260     2.1329 C.ar    
  22 C22            5.6254    -3.0157     1.8410 C.ar    
  23 C23            6.4774    -3.3971     2.8605 C.ar    
  24 C24            6.1678    -3.0883     4.1719 C.ar    
  25 C25            5.0064    -2.3978     4.4638 C.ar    
  26 C26            4.1565    -2.0126     3.4438 C.ar    
  27 C27            7.0963    -3.5050     5.2835 C.3     
  28 C28            7.9570    -2.3117     5.7032 C.3     
  29 O29            6.3287    -3.9553     6.4015 O.3     
  30 C30            0.4055     0.8066    -2.2898 C.1     
  31 N31            1.0500     0.8606    -3.2237 N.1     
  32 H32           -0.5180    -0.6142     2.0020 H       
  33 H33           -2.6099     0.5652     2.0554 H       
  34 H34           -4.2232     3.2506    -1.8152 H       
  35 H35            0.2253    -2.5257     0.2872 H       
  36 H36            1.6008    -2.5787    -0.8452 H       
  37 H37            1.7426    -2.2033     2.1820 H       
  38 H38            2.2666    -3.6358     1.2634 H       
  39 H39            3.9423    -2.2391     0.0656 H       
  40 H40            2.9625    -0.0590     1.9645 H       
  41 H41            4.3745     0.0697     0.8875 H       
  42 H42            2.9498    -0.2117    -1.0897 H       
  43 H43            2.2912     1.1076    -0.0883 H       
  44 H44           -4.3292     2.1653     1.8914 H       
  45 H45           -5.0982     3.3108     0.7668 H       
  46 H46            5.8672    -3.2569     0.8165 H       
  47 H47            7.3848    -3.9366     2.6326 H       
  48 H48            4.7644    -2.1568     5.4883 H       
  49 H49            3.2491    -1.4731     3.6718 H       
  50 H50            7.7400    -4.3128     4.9356 H       
  51 H51            7.3133    -1.5038     6.0511 H       
  52 H52            8.6285    -2.6131     6.5072 H       
  53 H53            8.5425    -1.9682     4.8504 H       
  54 H54            6.8625    -4.2399     7.1560 H       
@<TRIPOS>BOND
   1    1    2 2
   2    1   30 1
   3    1    6 1
   4    2    3 1
   5    2   10 1
   6    3    4 2
   7    3   32 1
   8    4    5 1
   9    4   33 1
  10    5    6 1
  11    5    7 1
  12    6    9 2
  13    7    8 2
  14    7   16 1
  15    8    9 1
  16    8   34 1
  17   10   11 1
  18   10   15 1
  19   11   12 1
  20   11   35 1
  21   11   36 1
  22   12   13 1
  23   12   37 1
  24   12   38 1
  25   13   14 1
  26   13   21 1
  27   13   39 1
  28   14   15 1
  29   14   40 1
  30   14   41 1
  31   15   42 1
  32   15   43 1
  33   16   17 1
  34   16   44 1
  35   16   45 1
  36   17   18 1
  37   17   19 1
  38   17   20 1
  39   21   22 ar
  40   21   26 ar
  41   22   23 ar
  42   22   46 1
  43   23   24 ar
  44   23   47 1
  45   24   25 ar
  46   24   27 1
  47   25   26 ar
  48   25   48 1
  49   26   49 1
  50   27   28 1
  51   27   29 1
  52   27   50 1
  53   28   51 1
  54   28   52 1
  55   28   53 1
  56   29   54 1
  57   30   31 3

#	End of record

