#	Name: ASD04220051
#	Creating user name:	WinNT
#	Creation time:	15. 06. 2019 20:48

#	Modifying user name:	WinNT
#	Modification time:	15. 06. 2019 20:48

#	Program:	/corina/corina34_cracker 3.40 0067  02.08.2006

@<TRIPOS>MOLECULE
ASD04220051
  93   97    0    0    0
SMALL
NO_CHARGES


@<TRIPOS>ATOM
   1 C1            -0.0168     1.3909     0.0097 C.ar    
   2 C2             0.0021    -0.0041     0.0020 C.ar    
   3 C3            -1.1845    -0.7121     0.0091 C.ar    
   4 C4            -2.3952    -0.0265     0.0243 C.ar    
   5 C5            -2.4171     1.3754     0.0325 C.ar    
   6 C6            -1.2170     2.0760     0.0306 C.ar    
   7 C7            -3.8128    -0.4423     0.0360 C.2     
   8 C8            -4.5353     0.7114     0.0498 C.2     
   9 O9            -3.7097     1.7642     0.0476 O.3     
  10 C10           -6.0401     0.7908     0.0647 C.3     
  11 O11           -6.5028     0.8080     1.4166 O.3     
  12 C12           -7.8479     0.8780     1.6082 C.ar    
  13 C13           -8.3675     0.8985     2.9028 C.ar    
  14 C14           -8.6982     0.9346     0.5205 C.ar    
  15 C15          -10.0728     1.0066     0.7243 C.ar    
  16 C16          -10.5979     1.0219     2.0242 C.ar    
  17 C17           -9.7321     0.9700     3.1099 C.ar    
  18 C18          -11.2435     1.0785    -0.1741 C.2     
  19 C19          -12.3318     1.1290     0.6421 C.2     
  20 O20          -11.9419     1.0953     1.9216 O.3     
  21 O21            1.1896    -0.6677    -0.0129 O.3     
  22 C22          -11.2349     1.0930    -1.6430 C.2     
  23 O23          -11.2877     0.0477    -2.2616 O.2     
  24 C24           -4.3345    -1.8156     0.0327 C.2     
  25 O25           -4.5397    -2.3905     1.0841 O.2     
  26 C26            1.1347    -2.0956    -0.0200 C.3     
  27 C27            2.5351    -2.6521    -0.0364 C.2     
  28 N28            3.6675    -1.9105    -0.0427 N.pl3   
  29 C29            4.7801    -2.7292    -0.0579 C.ar    
  30 C30            4.3250    -4.0573    -0.0613 C.ar    
  31 C31            2.8524    -3.9796    -0.0411 C.2     
  32 C32            6.1474    -2.4747    -0.0693 C.ar    
  33 C33            7.0428    -3.5215    -0.0842 C.ar    
  34 C34            6.5927    -4.8381    -0.0881 C.ar    
  35 C35            5.2371    -5.1091    -0.0756 C.ar    
  36 C36            1.9134    -5.1070    -0.0366 C.2     
  37 O37            1.5384    -5.5817     1.0182 O.2     
  38 O38           -7.5248     0.8473     3.9692 O.3     
  39 C39           -8.1200     0.8718     5.2681 C.3     
  40 O40          -11.1684     2.2655    -2.3051 O.3     
  41 C41          -11.0849     3.6215    -4.3262 C.3     
  42 C42          -11.1640     2.2040    -3.7558 C.3     
  43 O43           -4.5856    -2.4384    -1.1364 O.3     
  44 C44           -5.3217    -4.3322    -2.4788 C.3     
  45 C45           -5.0997    -3.7944    -1.0637 C.3     
  46 O46            1.1546     2.0819     0.0022 O.3     
  47 C47            1.0667     3.5081     0.0107 C.3     
  48 O48            7.4885    -5.8609    -0.1033 O.3     
  49 S49            7.9100    -6.3352     1.2801 S.o2    
  50 O50            9.1018    -7.1496     1.0992 O.co2   
  51 O51            8.1782    -5.1427     2.0688 O.co2   
  52 O52            6.7986    -7.1057     1.8161 O.co2   
  53 C53          -13.7621     1.2113     0.1745 C.3     
  54 O54            1.4664    -5.6167    -1.2022 O.3     
  55 C55            0.1463    -7.1707    -2.5336 C.3     
  56 C56            0.5394    -6.7314    -1.1218 C.3     
  57 H57           -1.1722    -1.7920     0.0025 H       
  58 H58           -1.2222     3.1560     0.0372 H       
  59 H59           -6.3609     1.7017    -0.4407 H       
  60 H60           -6.4549    -0.0757    -0.4503 H       
  61 H61           -8.2980     0.9234    -0.4825 H       
  62 H62          -10.1258     0.9809     4.1155 H       
  63 H63            0.6158    -2.4438     0.8731 H       
  64 H64            0.5988    -2.4342    -0.9068 H       
  65 H65            3.6940    -0.9408    -0.0377 H       
  66 H66            6.5071    -1.4564    -0.0668 H       
  67 H67            8.1035    -3.3184    -0.0934 H       
  68 H68            4.8875    -6.1310    -0.0782 H       
  69 H69           -8.6900     1.7930     5.3893 H       
  70 H70           -8.7852     0.0156     5.3792 H       
  71 H71           -7.3386     0.8257     6.0267 H       
  72 H72          -11.9471     4.1973    -3.9895 H       
  73 H73          -10.1697     4.1019    -3.9801 H       
  74 H74          -11.0816     3.5754    -5.4152 H       
  75 H75          -10.3018     1.6283    -4.0924 H       
  76 H76          -12.0792     1.7237    -4.1019 H       
  77 H77           -5.7076    -5.3501    -2.4242 H       
  78 H78           -6.0397    -3.6988    -2.9997 H       
  79 H79           -4.3758    -4.3308    -3.0205 H       
  80 H80           -4.3817    -4.4278    -0.5428 H       
  81 H81           -6.0456    -3.7958    -0.5220 H       
  82 H82            0.5400     3.8343     0.9075 H       
  83 H83            2.0700     3.9341     0.0034 H       
  84 H84            0.5230     3.8439    -0.8723 H       
  85 H85          -14.1625     0.2051     0.0510 H       
  86 H86          -14.3553     1.7504     0.9131 H       
  87 H87          -13.8028     1.7381    -0.7789 H       
  88 H88            1.0379    -7.4783    -3.0799 H       
  89 H89           -0.5496    -8.0075    -2.4733 H       
  90 H90           -0.3296    -6.3393    -3.0536 H       
  91 H91            1.0153    -7.5629    -0.6018 H       
  92 H92           -0.3522    -6.4238    -0.5755 H       
  93 Na93          14.1018     9.1973    11.0267 Du      
@<TRIPOS>BOND
   1    1    2 ar
   2    1   46 1
   3    1    6 ar
   4    2    3 ar
   5    2   21 1
   6    3    4 ar
   7    3   57 1
   8    4    5 ar
   9    4    7 1
  10    5    6 ar
  11    5    9 1
  12    6   58 1
  13    7    8 2
  14    7   24 1
  15    8    9 1
  16    8   10 1
  17   10   11 1
  18   10   59 1
  19   10   60 1
  20   11   12 1
  21   12   13 ar
  22   12   14 ar
  23   13   38 1
  24   13   17 ar
  25   14   15 ar
  26   14   61 1
  27   15   16 ar
  28   15   18 1
  29   16   17 ar
  30   16   20 1
  31   17   62 1
  32   18   19 2
  33   18   22 1
  34   19   20 1
  35   19   53 1
  36   21   26 1
  37   22   23 2
  38   22   40 1
  39   24   25 2
  40   24   43 1
  41   26   27 1
  42   26   63 1
  43   26   64 1
  44   27   28 1
  45   27   31 2
  46   28   29 1
  47   28   65 1
  48   29   30 ar
  49   29   32 ar
  50   30   31 1
  51   30   35 ar
  52   31   36 1
  53   32   33 ar
  54   32   66 1
  55   33   34 ar
  56   33   67 1
  57   34   35 ar
  58   34   48 1
  59   35   68 1
  60   36   37 2
  61   36   54 1
  62   38   39 1
  63   39   69 1
  64   39   70 1
  65   39   71 1
  66   40   42 1
  67   41   42 1
  68   41   72 1
  69   41   73 1
  70   41   74 1
  71   42   75 1
  72   42   76 1
  73   43   45 1
  74   44   45 1
  75   44   77 1
  76   44   78 1
  77   44   79 1
  78   45   80 1
  79   45   81 1
  80   46   47 1
  81   47   82 1
  82   47   83 1
  83   47   84 1
  84   48   49 1
  85   49   50 ar
  86   49   51 ar
  87   49   52 ar
  88   53   85 1
  89   53   86 1
  90   53   87 1
  91   54   56 1
  92   55   56 1
  93   55   88 1
  94   55   89 1
  95   55   90 1
  96   56   91 1
  97   56   92 1

#	End of record

