#	Name: ASD03430961
#	Creating user name:	WinNT
#	Creation time:	15. 06. 2019 20:41

#	Modifying user name:	WinNT
#	Modification time:	15. 06. 2019 20:41

#	Program:	/corina/corina34_cracker 3.40 0067  02.08.2006

@<TRIPOS>MOLECULE
ASD03430961
  50   55    0    0    0
SMALL
NO_CHARGES


@<TRIPOS>ATOM
   1 O1            -0.0174     1.4356     0.0099 O.3     
   2 C2             0.0021    -0.0041     0.0020 C.3     
   3 O3             1.2455    -0.3255    -0.6487 O.3     
   4 C4             2.0708     0.7345    -0.4040 C.ar    
   5 C5             1.2935     1.8177    -0.0005 C.ar    
   6 C6             3.4450     0.8646    -0.4927 C.ar    
   7 C7             4.0604     2.0735    -0.1822 C.ar    
   8 C8             3.2727     3.1513     0.2105 C.ar    
   9 C9             1.9026     3.0231     0.3049 C.ar    
  10 O10            5.3836     2.4039    -0.1852 O.3     
  11 C11            4.2105     4.3052     0.4444 C.3     
  12 C12            5.5151     3.8382    -0.2157 C.3     
  13 N13            3.6176     6.4765     0.8426 N.am    
  14 C14            3.7033     5.5819    -0.1620 C.2     
  15 C15            4.3970     4.6042     1.9023 C.ar    
  16 C16            4.8325     3.8619     2.9786 C.ar    
  17 C17            4.8963     4.4365     4.2368 C.ar    
  18 C18            4.5217     5.7564     4.4098 C.ar    
  19 C19            4.0853     6.5032     3.3355 C.ar    
  20 C20            4.0183     5.9340     2.0660 C.ar    
  21 O21            3.4255     5.7712    -1.3274 O.2     
  22 C22            3.1579     7.8569     0.6715 C.3     
  23 S23           -0.6472     8.1824     1.8285 S.3     
  24 C24           -0.4469     7.7498     0.1866 C.2     
  25 N25            0.8080     7.6671    -0.1018 N.2     
  26 C26            1.6650     7.9171     0.8676 C.2     
  27 C27            1.1016     8.2280     2.0389 C.2     
  28 C28           -1.5731     7.5011    -0.7835 C.3     
  29 C29           -2.4405     6.3486    -0.2733 C.3     
  30 C30           -2.4265     8.7648    -0.9090 C.3     
  31 Cl31           5.3009     2.2050     2.7569 Cl      
  32 H32           -0.0090    -0.3929     1.0203 H       
  33 H33           -0.8408    -0.3954    -0.5677 H       
  34 H34            4.0445     0.0222    -0.8046 H       
  35 H35            1.3033     3.8651     0.6183 H       
  36 H36            6.3796     4.1601     0.3649 H       
  37 H37            5.5804     4.1992    -1.2421 H       
  38 H38            5.2373     3.8554     5.0808 H       
  39 H39            4.5709     6.2046     5.3912 H       
  40 H40            3.7940     7.5332     3.4792 H       
  41 H41            3.6470     8.4965     1.4063 H       
  42 H42            3.4067     8.2009    -0.3324 H       
  43 H43            1.6256     8.4653     2.9529 H       
  44 H44           -1.1618     7.2420    -1.7590 H       
  45 H45           -2.8518     6.6076     0.7023 H       
  46 H46           -3.2550     6.1687    -0.9749 H       
  47 H47           -1.8325     5.4483    -0.1838 H       
  48 H48           -1.8085     9.5859    -1.2725 H       
  49 H49           -3.2410     8.5849    -1.6107 H       
  50 H50           -2.8378     9.0238     0.0666 H       
@<TRIPOS>BOND
   1    1    2 1
   2    1    5 1
   3    2    3 1
   4    2   32 1
   5    2   33 1
   6    3    4 1
   7    4    5 ar
   8    4    6 ar
   9    5    9 ar
  10    6    7 ar
  11    6   34 1
  12    7    8 ar
  13    7   10 1
  14    8    9 ar
  15    8   11 1
  16    9   35 1
  17   10   12 1
  18   11   12 1
  19   11   14 1
  20   11   15 1
  21   12   36 1
  22   12   37 1
  23   13   14 am
  24   13   20 1
  25   13   22 1
  26   14   21 2
  27   15   16 ar
  28   15   20 ar
  29   16   17 ar
  30   16   31 1
  31   17   18 ar
  32   17   38 1
  33   18   19 ar
  34   18   39 1
  35   19   20 ar
  36   19   40 1
  37   22   26 1
  38   22   41 1
  39   22   42 1
  40   23   24 1
  41   23   27 1
  42   24   25 2
  43   24   28 1
  44   25   26 1
  45   26   27 2
  46   27   43 1
  47   28   29 1
  48   28   30 1
  49   28   44 1
  50   29   45 1
  51   29   46 1
  52   29   47 1
  53   30   48 1
  54   30   49 1
  55   30   50 1

#	End of record

