#	Name: ASD01882858
#	Creating user name:	WinNT
#	Creation time:	15. 06. 2019 19:45

#	Modifying user name:	WinNT
#	Modification time:	15. 06. 2019 19:45

#	Program:	/corina/corina34_cracker 3.40 0067  02.08.2006

@<TRIPOS>MOLECULE
ASD01882858
  45   48    0    0    0
SMALL
NO_CHARGES


@<TRIPOS>ATOM
   1 C1            -0.0167     1.3793     0.0096 C.ar    
   2 C2             0.0021    -0.0041     0.0020 C.ar    
   3 C3             1.2062    -0.6852    -0.0132 C.ar    
   4 C4             2.3966     0.0124    -0.0209 C.ar    
   5 C5             2.3843     1.4072    -0.0132 C.ar    
   6 C6             1.1670     2.0882     0.0021 C.ar    
   7 C7             3.6586     2.1621    -0.0209 C.2     
   8 C8             3.6432     3.5743    -0.0132 C.2     
   9 C9             4.8157     4.2492    -0.0199 C.2     
  10 C10            5.9669     2.1780    -0.0360 C.2     
  11 N11            4.8116     1.5140    -0.0295 N.2     
  12 C12            7.3074     1.7512    -0.0553 C.2     
  13 N13            5.9899     3.5486    -0.0340 N.pl3   
  14 N14            7.3279     3.9583    -0.0436 N.2     
  15 C15            8.1063     2.9053    -0.0562 C.2     
  16 C16           -1.2945    -0.7722     0.0108 C.3     
  17 C17            4.8276     5.7562    -0.0124 C.3     
  18 C18            7.7693     0.3959    -0.0738 C.1     
  19 C19            8.1480    -0.7153    -0.0889 C.1     
  20 C20            8.6099    -2.0706    -0.1074 C.ar    
  21 C21            9.5656    -4.6225    -0.1435 C.ar    
  22 C22            8.1959    -4.4251    -0.1313 C.ar    
  23 C23            7.6974    -3.1353    -0.1134 C.ar    
  24 C24            9.9782    -2.3554    -0.1256 C.ar    
  25 N25           10.4017    -3.6020    -0.1429 N.ar    
  26 S26            7.0982    -5.8034    -0.1329 S.o2    
  27 O27            5.8664    -5.3348    -0.6642 O.2     
  28 O28            7.8215    -6.8918    -0.6912 O.2     
  29 O29            6.8290    -6.1667     1.3204 O.3     
  30 F30            3.5124     6.2328     0.0014 F       
  31 F31            5.5006     6.2116     1.1264 F       
  32 F32            5.4809     6.2231    -1.1580 F       
  33 F33           -1.7088    -1.0028    -1.3054 F       
  34 F34           -1.1070    -1.9961     0.6619 F       
  35 F35           -2.2712    -0.0306     0.6841 F       
  36 H36           -0.9598     1.9054     0.0170 H       
  37 H37            1.2144    -1.7651    -0.0187 H       
  38 H38            3.3360    -0.5204    -0.0324 H       
  39 H39            1.1511     3.1680     0.0081 H       
  40 H40            2.7054     4.1097    -0.0024 H       
  41 H41            9.1861     2.9221    -0.0690 H       
  42 H42            9.9567    -5.6291    -0.1571 H       
  43 H43            6.6330    -2.9528    -0.1038 H       
  44 H44           10.6938    -1.5465    -0.1257 H       
  45 H45            6.2317    -6.9187     1.4337 H       
@<TRIPOS>BOND
   1    1    2 ar
   2    1    6 ar
   3    1   36 1
   4    2    3 ar
   5    2   16 1
   6    3    4 ar
   7    3   37 1
   8    4    5 ar
   9    4   38 1
  10    5    6 ar
  11    5    7 1
  12    6   39 1
  13    7    8 1
  14    7   11 2
  15    8    9 2
  16    8   40 1
  17    9   13 1
  18    9   17 1
  19   10   11 1
  20   10   13 1
  21   10   12 2
  22   12   15 1
  23   12   18 1
  24   13   14 1
  25   14   15 2
  26   15   41 1
  27   16   33 1
  28   16   34 1
  29   16   35 1
  30   17   30 1
  31   17   31 1
  32   17   32 1
  33   18   19 3
  34   19   20 1
  35   20   24 ar
  36   20   23 ar
  37   21   22 ar
  38   21   25 ar
  39   21   42 1
  40   22   23 ar
  41   22   26 1
  42   23   43 1
  43   24   25 ar
  44   24   44 1
  45   26   27 2
  46   26   28 2
  47   26   29 1
  48   29   45 1

#	End of record

