#	Name: ASD08150185
#	Creating user name:	WinNT
#	Creation time:	15. 06. 2019 21:15

#	Modifying user name:	WinNT
#	Modification time:	15. 06. 2019 21:15

#	Program:	/corina/corina34_cracker 3.40 0067  02.08.2006

@<TRIPOS>MOLECULE
ASD08150185
  44   48    0    0    0
SMALL
NO_CHARGES


@<TRIPOS>ATOM
   1 N1            -0.0588     1.3254     0.0533 N.2     
   2 C2            -0.0735     0.0281     0.0036 C.2     
   3 N3             1.0484    -0.7275    -0.1241 N.am    
   4 C4             2.2665    -0.1437    -0.2075 C.2     
   5 C5             2.3183     1.3249    -0.1542 C.ar    
   6 C6             3.5215     2.0233    -0.2323 C.ar    
   7 C7             3.5120     3.3998    -0.1778 C.ar    
   8 C8             2.3159     4.0933    -0.0457 C.ar    
   9 C9             1.1166     3.4222     0.0336 C.ar    
  10 C10            1.1000     2.0269    -0.0203 C.ar    
  11 O11            3.2799    -0.8084    -0.3217 O.2     
  12 C12            4.8236     1.2783    -0.3747 C.3     
  13 C13            0.9385    -2.1876    -0.1715 C.3     
  14 C14            0.2144    -2.8031    -1.3705 C.3     
  15 C15            1.7352    -2.9213    -1.2522 C.3     
  16 C16           -1.4031    -0.6757     0.0925 C.3     
  17 S17           -2.7247     0.5500     0.2566 S.3     
  18 N18           -5.9364     1.2578     0.5655 N.2     
  19 C19           -7.2307     1.1860     0.6757 C.2     
  20 N20           -7.6277    -0.1193     0.6590 N.pl3   
  21 C21           -6.5002    -0.8902     0.5302 C.ar    
  22 N22           -6.2612    -2.1960     0.4575 N.ar    
  23 C23           -5.0240    -2.6483     0.3313 C.ar    
  24 N24           -3.9759    -1.8372     0.2725 N.ar    
  25 C25           -4.1240    -0.5178     0.3373 C.ar    
  26 C26           -5.4215     0.0073     0.4713 C.ar    
  27 N27           -4.8161    -4.0160     0.2594 N.pl3   
  28 H28            4.4427     3.9444    -0.2380 H       
  29 H29            2.3269     5.1724    -0.0042 H       
  30 H30            0.1928     3.9722     0.1362 H       
  31 H31            4.9916     1.0377    -1.4245 H       
  32 H32            5.6403     1.9010    -0.0095 H       
  33 H33            4.7808     0.3573     0.2068 H       
  34 H34            0.8247    -2.6820     0.7932 H       
  35 H35           -0.3756    -3.7026    -1.1948 H       
  36 H36           -0.1803    -2.1216    -2.1242 H       
  37 H37            2.3411    -2.3176    -1.9279 H       
  38 H38            2.1458    -3.8986    -0.9985 H       
  39 H39           -1.5636    -1.2645    -0.8107 H       
  40 H40           -1.4082    -1.3342     0.9611 H       
  41 H41           -7.8931     2.0342     0.7669 H       
  42 H42           -8.5397    -0.4428     0.7259 H       
  43 H43           -5.5705    -4.6241     0.3017 H       
  44 H44           -3.9160    -4.3655     0.1668 H       
@<TRIPOS>BOND
   1    1    2 2
   2    1   10 1
   3    2    3 1
   4    2   16 1
   5    3    4 am
   6    3   13 1
   7    4    5 1
   8    4   11 2
   9    5    6 ar
  10    5   10 ar
  11    6    7 ar
  12    6   12 1
  13    7    8 ar
  14    7   28 1
  15    8    9 ar
  16    8   29 1
  17    9   10 ar
  18    9   30 1
  19   12   31 1
  20   12   32 1
  21   12   33 1
  22   13   14 1
  23   13   15 1
  24   13   34 1
  25   14   15 1
  26   14   35 1
  27   14   36 1
  28   15   37 1
  29   15   38 1
  30   16   17 1
  31   16   39 1
  32   16   40 1
  33   17   25 1
  34   18   19 2
  35   18   26 1
  36   19   20 1
  37   19   41 1
  38   20   21 1
  39   20   42 1
  40   21   22 ar
  41   21   26 ar
  42   22   23 ar
  43   23   24 ar
  44   23   27 1
  45   24   25 ar
  46   25   26 ar
  47   27   43 1
  48   27   44 1

#	End of record

