#	Name: ASD07300700
#	Creating user name:	WinNT
#	Creation time:	15. 06. 2019 21:10

#	Modifying user name:	WinNT
#	Modification time:	15. 06. 2019 21:10

#	Program:	/corina/corina34_cracker 3.40 0067  02.08.2006

@<TRIPOS>MOLECULE
ASD07300700
  53   56    0    0    0
SMALL
NO_CHARGES


@<TRIPOS>ATOM
   1 C1            -0.0178     1.4608     0.0101 C.2     
   2 C2             0.0021    -0.0041     0.0020 C.2     
   3 N3             1.1865     2.1260     0.0021 N.pl3   
   4 N4             1.1642    -0.6257    -0.0124 N.2     
   5 C5             2.3153     0.0547    -0.0198 C.2     
   6 C6             2.3502     1.3989    -0.0125 C.2     
   7 N7            -0.9938     2.3440     0.0294 N.2     
   8 C8            -0.4739     3.5836     0.0281 C.2     
   9 C9             0.9151     3.4616     0.0119 C.2     
  10 C10           -1.2336     4.8423     0.0457 C.2     
  11 O11           -0.6463     5.9067     0.0421 O.2     
  12 O12           -2.5814     4.8160     0.0657 O.3     
  13 N13           -1.1811    -0.7240     0.0099 N.pl3   
  14 C14           -1.1726    -2.1955     0.0019 C.3     
  15 C15           -2.0827    -2.6904     1.1318 C.3     
  16 O16           -3.3617    -2.0623     1.0153 O.3     
  17 C17           -3.3302    -0.6400     1.1557 C.3     
  18 C18           -2.4839    -0.0401     0.0327 C.3     
  19 N19            2.9335     6.4414    -0.4670 N.pl3   
  20 N20            3.6712     5.7660     0.5119 N.2     
  21 C21            3.0635     4.6473     0.8013 C.2     
  22 C22            1.8985     4.5628     0.0085 C.2     
  23 C23            1.8504     5.6995    -0.7702 C.2     
  24 C24            3.2772     7.7375    -1.0572 C.3     
  25 C25            3.4568     8.7728     0.0550 C.3     
  26 O26            3.7920    10.0370    -0.5206 O.3     
  27 C27            3.9826    11.0798     0.4377 C.3     
  28 C28           -3.2655     6.0966     0.0823 C.3     
  29 C29           -4.7780     5.8667     0.1038 C.3     
  30 H30            3.2463    -0.4926    -0.0316 H       
  31 H31            3.3015     1.9103    -0.0188 H       
  32 H32           -1.5450    -2.5596    -0.9556 H       
  33 H33           -0.1572    -2.5576     0.1632 H       
  34 H34           -2.1999    -3.7716     1.0577 H       
  35 H35           -1.6388    -2.4367     2.0945 H       
  36 H36           -4.3449    -0.2460     1.0988 H       
  37 H37           -2.8908    -0.3788     2.1184 H       
  38 H38           -2.3364     1.0245     0.2143 H       
  39 H39           -2.9905    -0.1835    -0.9217 H       
  40 H40            3.3947     3.9140     1.5217 H       
  41 H41            1.0852     5.9494    -1.4903 H       
  42 H42            4.2054     7.6453    -1.6211 H       
  43 H43            2.4767     8.0565    -1.7246 H       
  44 H44            2.5286     8.8649     0.6189 H       
  45 H45            4.2573     8.4537     0.7225 H       
  46 H46            3.0653    11.2198     1.0096 H       
  47 H47            4.7941    10.8086     1.1131 H       
  48 H48            4.2339    12.0062    -0.0786 H       
  49 H49           -2.9702     6.6549     0.9707 H       
  50 H50           -2.9969     6.6636    -0.8090 H       
  51 H51           -5.0466     5.2997     0.9951 H       
  52 H52           -5.2915     6.8280     0.1162 H       
  53 H53           -5.0733     5.3084    -0.7846 H       
@<TRIPOS>BOND
   1    1    2 1
   2    1    3 1
   3    1    7 2
   4    2    4 2
   5    2   13 1
   6    3    6 1
   7    3    9 1
   8    4    5 1
   9    5    6 2
  10    5   30 1
  11    6   31 1
  12    7    8 1
  13    8    9 2
  14    8   10 1
  15    9   22 1
  16   10   11 2
  17   10   12 1
  18   12   28 1
  19   13   14 1
  20   13   18 1
  21   14   15 1
  22   14   32 1
  23   14   33 1
  24   15   16 1
  25   15   34 1
  26   15   35 1
  27   16   17 1
  28   17   18 1
  29   17   36 1
  30   17   37 1
  31   18   38 1
  32   18   39 1
  33   19   20 1
  34   19   23 1
  35   19   24 1
  36   20   21 2
  37   21   22 1
  38   21   40 1
  39   22   23 2
  40   23   41 1
  41   24   25 1
  42   24   42 1
  43   24   43 1
  44   25   26 1
  45   25   44 1
  46   25   45 1
  47   26   27 1
  48   27   46 1
  49   27   47 1
  50   27   48 1
  51   28   29 1
  52   28   49 1
  53   28   50 1
  54   29   51 1
  55   29   52 1
  56   29   53 1

#	End of record

