#	Name: ASD08070346
#	Creating user name:	WinNT
#	Creation time:	15. 06. 2019 21:14

#	Modifying user name:	WinNT
#	Modification time:	15. 06. 2019 21:14

#	Program:	/corina/corina34_cracker 3.40 0067  02.08.2006

@<TRIPOS>MOLECULE
ASD08070346
  41   43    0    0    0
SMALL
NO_CHARGES


@<TRIPOS>ATOM
   1 O1            -0.0143     1.2024     0.0087 O.3     
   2 N2             0.0021    -0.0041     0.0020 N.2     
   3 C3             1.2115    -0.4810    -0.0121 C.2     
   4 C4             2.0937     0.6961    -0.0142 C.2     
   5 C5             1.2058     1.7440    -0.0001 C.2     
   6 C6             3.5670     0.7401    -0.0276 C.2     
   7 O7             4.2062    -0.2944    -0.0389 O.2     
   8 N8             4.2057     1.9269    -0.0274 N.am    
   9 C9             1.6221    -1.9310    -0.0234 C.3     
  10 C10            5.6700     1.9707    -0.0407 C.3     
  11 C11            6.1638     1.8676    -1.4824 C.3     
  12 C12            7.6741     2.1322    -1.4960 C.3     
  13 C13            7.9070     3.6088    -1.1823 C.3     
  14 C14            7.1637     4.0090     0.0652 C.ar    
  15 C15            7.5470     5.1851     0.6973 C.ar    
  16 C16            6.9030     5.6081     1.8414 C.ar    
  17 C17            5.8666     4.8566     2.3636 C.ar    
  18 C18            5.4853     3.6879     1.7381 C.ar    
  19 C19            6.1341     3.2589     0.5872 C.ar    
  20 C20            5.1557     5.3130     3.6115 C.3     
  21 C21            8.6762     6.0052     0.1288 C.3     
  22 H22            1.4468     2.7967     0.0033 H       
  23 H23            3.6959     2.7521    -0.0184 H       
  24 H24            1.7115    -2.2753    -1.0537 H       
  25 H25            2.5821    -2.0407     0.4810 H       
  26 H26            0.8695    -2.5257     0.4944 H       
  27 H27            6.0599     1.1305     0.5338 H       
  28 H28            5.9627     0.8684    -1.8688 H       
  29 H29            5.6556     2.6093    -2.0985 H       
  30 H30            8.1617     1.5152    -0.7412 H       
  31 H31            8.0791     1.8977    -2.4804 H       
  32 H32            8.9733     3.7814    -1.0363 H       
  33 H33            7.5569     4.2135    -2.0189 H       
  34 H34            7.2075     6.5231     2.3277 H       
  35 H35            4.6760     3.1010     2.1470 H       
  36 H36            4.3136     5.9488     3.3381 H       
  37 H37            4.7919     4.4446     4.1607 H       
  38 H38            5.8473     5.8757     4.2385 H       
  39 H39            8.2774     6.7297    -0.5813 H       
  40 H40            9.1861     6.5307     0.9363 H       
  41 H41            9.3820     5.3485    -0.3799 H       
@<TRIPOS>BOND
   1    1    2 1
   2    1    5 1
   3    2    3 2
   4    3    4 1
   5    3    9 1
   6    4    5 2
   7    4    6 1
   8    5   22 1
   9    6    7 2
  10    6    8 am
  11    8   10 1
  12    8   23 1
  13    9   24 1
  14    9   25 1
  15    9   26 1
  16   10   11 1
  17   10   19 1
  18   10   27 1
  19   11   12 1
  20   11   28 1
  21   11   29 1
  22   12   13 1
  23   12   30 1
  24   12   31 1
  25   13   14 1
  26   13   32 1
  27   13   33 1
  28   14   15 ar
  29   14   19 ar
  30   15   16 ar
  31   15   21 1
  32   16   17 ar
  33   16   34 1
  34   17   18 ar
  35   17   20 1
  36   18   19 ar
  37   18   35 1
  38   20   36 1
  39   20   37 1
  40   20   38 1
  41   21   39 1
  42   21   40 1
  43   21   41 1

#	End of record

