#	Name: ASD01814710
#	Creating user name:	WinNT
#	Creation time:	15. 06. 2019 19:32

#	Modifying user name:	WinNT
#	Modification time:	15. 06. 2019 19:32

#	Program:	/corina/corina34_cracker 3.40 0067  02.08.2006

@<TRIPOS>MOLECULE
ASD01814710
  56   60    0    0    0
SMALL
NO_CHARGES


@<TRIPOS>ATOM
   1 C1            -0.0225     1.8097     0.0120 C.3     
   2 S2             0.0021    -0.0041     0.0020 S.3     
   3 C3            -1.7092    -0.4238     0.0161 C.ar    
   4 C4            -2.0911    -1.7619     0.0183 C.ar    
   5 C5            -3.4378    -2.0769     0.0294 C.ar    
   6 C6            -4.3611    -1.0397     0.0380 C.ar    
   7 C7            -5.8386    -1.3362     0.0507 C.3     
   8 C8            -6.3188    -1.4357     1.4757 C.ar    
   9 C9            -6.3894    -2.6507     2.0699 C.ar    
  10 C10           -6.8309    -2.7901     3.3955 C.ar    
  11 C11           -6.9094    -4.1032     4.0457 C.2     
  12 O12           -6.5909    -5.1162     3.4477 O.2     
  13 N13           -7.3431    -4.1613     5.3236 N.am    
  14 N14           -7.7087    -3.0030     6.0128 N.2     
  15 C15           -7.6529    -1.8214     5.4708 C.2     
  16 C16           -7.2124    -1.6580     4.1396 C.ar    
  17 C17           -7.1393    -0.3447     3.5053 C.ar    
  18 C18           -7.5029     0.8207     4.1866 C.ar    
  19 C19           -7.4187     2.0271     3.5546 C.ar    
  20 C20           -6.9755     2.1124     2.2387 C.ar    
  21 C21           -6.6140     0.9952     1.5464 C.ar    
  22 C22           -6.6809    -0.2612     2.1678 C.ar    
  23 C23           -7.4318    -5.4594     5.9969 C.3     
  24 H24           -7.1099    -6.2456     5.3140 H       
  25 C25           -6.5292    -5.4558     7.2323 C.3     
  26 C26           -6.6218    -6.8116     7.9354 C.3     
  27 C27           -8.0688    -7.0672     8.3617 C.3     
  28 C28           -8.9714    -7.0707     7.1263 C.3     
  29 C29           -8.8788    -5.7150     6.4232 C.3     
  30 H30           -9.2007    -4.9288     7.1061 H       
  31 O31           -9.7218    -5.7183     5.2693 O.3     
  32 C32           -3.9120     0.2659     0.0352 C.ar    
  33 N33           -2.6209     0.5374     0.0300 N.ar    
  34 H34            1.0001     2.1870     0.0043 H       
  35 H35           -0.5497     2.1708    -0.8711 H       
  36 H36           -0.5327     2.1613     0.9088 H       
  37 H37           -1.3461    -2.5438     0.0111 H       
  38 H38           -3.7640    -3.1065     0.0310 H       
  39 H39           -6.3744    -0.5348    -0.4581 H       
  40 H40           -6.0242    -2.2800    -0.4621 H       
  41 H41           -6.1007    -3.5299     1.5130 H       
  42 H42           -7.9468    -0.9558     6.0460 H       
  43 H43           -7.8490     0.7663     5.2082 H       
  44 H44           -7.6999     2.9266     4.0822 H       
  45 H45           -6.9174     3.0780     1.7584 H       
  46 H46           -6.2723     1.0773     0.5252 H       
  47 H47           -5.4983    -5.2737     6.9286 H       
  48 H48           -6.8511    -4.6696     7.9152 H       
  49 H49           -6.2999    -7.5978     7.2525 H       
  50 H50           -5.9788    -6.8090     8.8155 H       
  51 H51           -8.1347    -8.0330     8.8626 H       
  52 H52           -8.3907    -6.2810     9.0446 H       
  53 H53           -8.6495    -7.8569     6.4434 H       
  54 H54          -10.0022    -7.2529     7.4300 H       
  55 H55          -10.6557    -5.8751     5.4650 H       
  56 H56           -4.6268     1.0755     0.0418 H       
@<TRIPOS>BOND
   1    1    2 1
   2    1   34 1
   3    1   35 1
   4    1   36 1
   5    2    3 1
   6    3   33 ar
   7    3    4 ar
   8    4    5 ar
   9    4   37 1
  10    5    6 ar
  11    5   38 1
  12    6    7 1
  13    6   32 ar
  14    7    8 1
  15    7   39 1
  16    7   40 1
  17    8   22 ar
  18    8    9 ar
  19    9   10 ar
  20    9   41 1
  21   10   16 ar
  22   10   11 1
  23   11   12 2
  24   11   13 am
  25   13   14 1
  26   13   23 1
  27   14   15 2
  28   15   16 1
  29   15   42 1
  30   16   17 ar
  31   17   22 ar
  32   17   18 ar
  33   18   19 ar
  34   18   43 1
  35   19   20 ar
  36   19   44 1
  37   20   21 ar
  38   20   45 1
  39   21   22 ar
  40   21   46 1
  41   23   24 1
  42   23   29 1
  43   23   25 1
  44   25   26 1
  45   25   47 1
  46   25   48 1
  47   26   27 1
  48   26   49 1
  49   26   50 1
  50   27   28 1
  51   27   51 1
  52   27   52 1
  53   28   29 1
  54   28   53 1
  55   28   54 1
  56   29   30 1
  57   29   31 1
  58   31   55 1
  59   32   33 ar
  60   32   56 1

#	End of record

