#	Name: ASD01912558
#	Creating user name:	WinNT
#	Creation time:	15. 06. 2019 19:59

#	Modifying user name:	WinNT
#	Modification time:	15. 06. 2019 19:59

#	Program:	/corina/corina34_cracker 3.40 0067  02.08.2006

@<TRIPOS>MOLECULE
ASD01912558
  40   42    0    0    0
SMALL
NO_CHARGES


@<TRIPOS>ATOM
   1 C1            -0.0169     1.3951     0.0097 C.ar    
   2 C2             0.0021    -0.0041     0.0020 C.ar    
   3 C3             1.2236    -0.6865    -0.0133 C.ar    
   4 C4             2.3964     0.0133    -0.0208 C.ar    
   5 C5             2.3767     1.4112    -0.0131 C.ar    
   6 C6             1.1566     2.0937     0.0023 C.ar    
   7 C7            -1.2280    -0.7372     0.0103 C.1     
   8 C8            -2.2364    -1.3382     0.0171 C.1     
   9 C9            -3.4665    -2.0714     0.0254 C.ar    
  10 C10           -3.4613    -3.4691     0.0178 C.ar    
  11 C11           -4.6965    -1.4000     0.0471 C.ar    
  12 C12           -5.8555    -2.1555     0.0548 C.ar    
  13 C13           -5.7646    -3.5358     0.0409 C.ar    
  14 N14           -4.5927    -4.1421     0.0255 N.ar    
  15 C15            3.6448     2.1670    -0.0206 C.2     
  16 O16            4.7060     1.5738    -0.0335 O.2     
  17 N17            3.6262     3.5146    -0.0132 N.am    
  18 C18            4.8846     4.2646    -0.0207 C.3     
  19 C19            4.6611     5.6632    -0.6221 C.3     
  20 C20            5.0283     6.6800     0.4784 C.3     
  21 C21            5.9935     5.9024     1.4072 C.3     
  22 C22            5.3798     4.4803     1.4243 C.3     
  23 H23           -0.9594     1.9225     0.0170 H       
  24 H24            1.2390    -1.7664    -0.0189 H       
  25 H25            3.3392    -0.5133    -0.0322 H       
  26 H26            1.1421     3.1736     0.0078 H       
  27 H27           -2.5216    -4.0012     0.0053 H       
  28 H28           -4.7386    -0.3209     0.0579 H       
  29 H29           -6.8214    -1.6726     0.0717 H       
  30 H30           -6.6682    -4.1273     0.0472 H       
  31 H31            2.7795     3.9879    -0.0029 H       
  32 H32            5.6365     3.7260    -0.5974 H       
  33 H33            5.3051     5.8037    -1.4902 H       
  34 H34            3.6163     5.7839    -0.9084 H       
  35 H35            5.5298     7.5458     0.0459 H       
  36 H36            4.1375     6.9880     1.0258 H       
  37 H37            7.0001     5.8837     0.9897 H       
  38 H38            5.9973     6.3335     2.4084 H       
  39 H39            4.5458     4.4331     2.1245 H       
  40 H40            6.1379     3.7408     1.6821 H       
@<TRIPOS>BOND
   1    1    2 ar
   2    1    6 ar
   3    1   23 1
   4    2    3 ar
   5    2    7 1
   6    3    4 ar
   7    3   24 1
   8    4    5 ar
   9    4   25 1
  10    5    6 ar
  11    5   15 1
  12    6   26 1
  13    7    8 3
  14    8    9 1
  15    9   10 ar
  16    9   11 ar
  17   10   14 ar
  18   10   27 1
  19   11   12 ar
  20   11   28 1
  21   12   13 ar
  22   12   29 1
  23   13   14 ar
  24   13   30 1
  25   15   16 2
  26   15   17 am
  27   17   18 1
  28   17   31 1
  29   18   19 1
  30   18   22 1
  31   18   32 1
  32   19   20 1
  33   19   33 1
  34   19   34 1
  35   20   21 1
  36   20   35 1
  37   20   36 1
  38   21   22 1
  39   21   37 1
  40   21   38 1
  41   22   39 1
  42   22   40 1

#	End of record

