#	Name: ASD01140219
#	Creating user name:	WinNT
#	Creation time:	15. 06. 2019 19:00

#	Modifying user name:	WinNT
#	Modification time:	15. 06. 2019 19:00

#	Program:	/corina/corina34_cracker 3.40 0067  02.08.2006

@<TRIPOS>MOLECULE
ASD01140219
  37   40    0    0    0
SMALL
NO_CHARGES


@<TRIPOS>ATOM
   1 C1             0.1103     2.1252     0.1832 C.ar    
   2 C2            -0.0780     0.7489     0.3337 C.ar    
   3 C3             1.0193    -0.1029     0.3542 C.ar    
   4 C4             2.3169     0.4079     0.2248 C.ar    
   5 C5             2.4881     1.7846     0.0509 C.ar    
   6 C6             1.3830     2.6309     0.0436 C.ar    
   7 C7             3.4382    -0.5344     0.3114 C.2     
   8 N8             4.5108    -0.5546    -0.3986 N.2     
   9 C9             4.7464     0.4145    -1.4749 C.3     
  10 C10            4.7674     1.7896    -0.8572 C.2     
  11 N11            3.7496     2.3454    -0.1527 N.pl3   
  12 C12            4.2019     3.5543     0.2734 C.2     
  13 N13            5.7395     2.6553    -0.8844 N.2     
  14 N14            5.4091     3.6992    -0.2079 N.2     
  15 C15           -1.4008     0.2170     0.4670 C.1     
  16 C16           -2.4853    -0.2192     0.5764 C.1     
  17 C17            3.4549     4.5395     1.1350 C.3     
  18 C18            3.3210    -1.5914     1.3427 C.ar    
  19 C19            3.9762    -2.8110     1.1730 C.ar    
  20 C20            3.8636    -3.7914     2.1373 C.ar    
  21 C21            3.1025    -3.5668     3.2706 C.ar    
  22 C22            2.4499    -2.3594     3.4444 C.ar    
  23 C23            2.5599    -1.3689     2.4901 C.ar    
  24 H24           -0.7407     2.7901     0.1720 H       
  25 H25            0.8708    -1.1663     0.4711 H       
  26 H26            1.5255     3.6951    -0.0731 H       
  27 H27            5.7041     0.2097    -1.9533 H       
  28 H28            3.9443     0.3520    -2.2103 H       
  29 H29           -3.4553    -0.6092     0.6742 H       
  30 H30            3.5845     4.2755     2.1846 H       
  31 H31            3.8448     5.5425     0.9618 H       
  32 H32            2.3950     4.5129     0.8819 H       
  33 H33            4.5700    -2.9877     0.2884 H       
  34 H34            4.3704    -4.7361     2.0071 H       
  35 H35            3.0171    -4.3374     4.0225 H       
  36 H36            1.8569    -2.1900     4.3310 H       
  37 H37            2.0500    -0.4267     2.6269 H       
@<TRIPOS>BOND
   1    1    2 ar
   2    1    6 ar
   3    1   24 1
   4    2    3 ar
   5    2   15 1
   6    3    4 ar
   7    3   25 1
   8    4    5 ar
   9    4    7 1
  10    5    6 ar
  11    5   11 1
  12    6   26 1
  13    7    8 2
  14    7   18 1
  15    8    9 1
  16    9   10 1
  17    9   27 1
  18    9   28 1
  19   10   11 1
  20   10   13 2
  21   11   12 1
  22   12   17 1
  23   12   14 2
  24   13   14 1
  25   15   16 3
  26   16   29 1
  27   17   30 1
  28   17   31 1
  29   17   32 1
  30   18   19 ar
  31   18   23 ar
  32   19   20 ar
  33   19   33 1
  34   20   21 ar
  35   20   34 1
  36   21   22 ar
  37   21   35 1
  38   22   23 ar
  39   22   36 1
  40   23   37 1

#	End of record

