#	Name: ASD01028035
#	Creating user name:	WinNT
#	Creation time:	15. 06. 2019 18:56

#	Modifying user name:	WinNT
#	Modification time:	15. 06. 2019 18:56

#	Program:	/corina/corina34_cracker 3.40 0067  02.08.2006

@<TRIPOS>MOLECULE
ASD01028035
  57   61    0    0    0
SMALL
NO_CHARGES


@<TRIPOS>ATOM
   1 C1            -0.0187     1.5254     0.0104 C.3     
   2 C2             0.0021    -0.0041     0.0020 C.3     
   3 C3            -1.4230    -0.5277     0.1894 C.3     
   4 C4             2.0787     1.8039     1.3389 C.3     
   5 C5             1.4054     2.0765    -0.0002 C.3     
   6 N6             2.4517     3.1118     1.9787 N.3     
   7 N7             0.2122     1.6058     4.3621 N.pl3   
   8 C8             0.9260     2.6429     4.9912 C.ar    
   9 C9             1.4203     3.6519     4.1656 C.ar    
  10 C10            1.2169     3.5772     2.6820 C.3     
  11 C11            1.1826     2.6720     6.3537 C.ar    
  12 C12            1.8424     3.7599     6.9070 C.ar    
  13 C13            2.2700     4.8017     6.0892 C.ar    
  14 C14            2.0664     4.7413     4.7266 C.ar    
  15 O15           -1.4295    -1.6832     1.0281 O.3     
  16 C16           -1.6831    -1.5039     2.3514 C.ar    
  17 C17           -1.0673    -0.4687     3.0005 C.ar    
  18 C18           -1.3016    -0.2607     4.3619 C.ar    
  19 C19           -0.6699     0.7946     5.0770 C.ar    
  20 N20           -0.9625     0.9470     6.3485 N.ar    
  21 O21            0.9265     1.7708     7.3434 O.3     
  22 C22            1.2399     2.4014     8.5908 C.3     
  23 O23            1.9579     3.5928     8.2526 O.3     
  24 C24           -2.5502    -2.3615     3.0410 C.ar    
  25 C25           -2.8054    -2.1723     4.3850 C.ar    
  26 C26           -2.1900    -1.1116     5.0637 C.ar    
  27 N27           -2.4189    -0.8659     6.3651 N.ar    
  28 C28           -1.8153     0.1381     6.9613 C.ar    
  29 O29           -3.1467    -3.3883     2.3803 O.3     
  30 Cl30           3.0610     6.1807     6.7876 Cl      
  31 C31            3.4265     2.7122     3.0521 C.3     
  32 C32           -4.0200    -4.2275     3.1387 C.3     
  33 H33           -0.5496     1.8822    -0.8727 H       
  34 H34           -0.5337     1.8738     0.9047 H       
  35 H35            0.3988    -0.3588    -0.9494 H       
  36 H36            0.6313    -0.3669     0.8133 H       
  37 H37           -2.0381     0.2501     0.6389 H       
  38 H38           -1.8358    -0.7909    -0.7860 H       
  39 H39            1.4129     1.2766     2.0054 H       
  40 H40            2.9979     1.2440     1.1891 H       
  41 H41            1.9719     1.5900    -0.7967 H       
  42 H42            1.3765     3.1503    -0.1867 H       
  43 H43            0.3412     1.4452     3.4108 H       
  44 H44            0.9876     4.5762     2.2976 H       
  45 H45            0.4048     2.9071     2.4315 H       
  46 H46            2.4042     5.5481     4.0919 H       
  47 H47           -0.4044     0.1834     2.4533 H       
  48 H48            0.3221     2.6554     9.1212 H       
  49 H49            1.8596     1.7458     9.2011 H       
  50 H50           -3.4729    -2.8394     4.9115 H       
  51 H51           -2.0253     0.3132     8.0071 H       
  52 H52            4.2827     2.2134     2.5980 H       
  53 H53            3.7644     3.6009     3.5852 H       
  54 H54            2.9389     2.0327     3.7511 H       
  55 H55           -3.4632    -4.6884     3.9545 H       
  56 H56           -4.8346    -3.6294     3.5471 H       
  57 H57           -4.4284    -5.0048     2.4929 H       
@<TRIPOS>BOND
   1    1    2 1
   2    1    5 1
   3    1   33 1
   4    1   34 1
   5    2    3 1
   6    2   35 1
   7    2   36 1
   8    3   15 1
   9    3   37 1
  10    3   38 1
  11    4    5 1
  12    4    6 1
  13    4   39 1
  14    4   40 1
  15    5   41 1
  16    5   42 1
  17    6   31 1
  18    6   10 1
  19    7    8 1
  20    7   19 1
  21    7   43 1
  22    8    9 ar
  23    8   11 ar
  24    9   10 1
  25    9   14 ar
  26   10   44 1
  27   10   45 1
  28   11   12 ar
  29   11   21 1
  30   12   13 ar
  31   12   23 1
  32   13   14 ar
  33   13   30 1
  34   14   46 1
  35   15   16 1
  36   16   17 ar
  37   16   24 ar
  38   17   18 ar
  39   17   47 1
  40   18   19 ar
  41   18   26 ar
  42   19   20 ar
  43   20   28 ar
  44   21   22 1
  45   22   23 1
  46   22   48 1
  47   22   49 1
  48   24   25 ar
  49   24   29 1
  50   25   26 ar
  51   25   50 1
  52   26   27 ar
  53   27   28 ar
  54   28   51 1
  55   29   32 1
  56   31   52 1
  57   31   53 1
  58   31   54 1
  59   32   55 1
  60   32   56 1
  61   32   57 1

#	End of record

