#	Name: ASD05490063
#	Creating user name:	WinNT
#	Creation time:	15. 06. 2019 21:01

#	Modifying user name:	WinNT
#	Modification time:	15. 06. 2019 21:01

#	Program:	/corina/corina34_cracker 3.40 0067  02.08.2006

@<TRIPOS>MOLECULE
ASD05490063
  68   72    0    0    0
SMALL
NO_CHARGES


@<TRIPOS>ATOM
   1 N1             0.3825     2.0346     0.3303 N.am    
   2 O2             4.9355     3.5180     0.6552 O.3     
   3 N3             3.1545     4.9849     0.6675 N.ar    
   4 C4             1.8499     5.2478     0.6208 C.ar    
   5 C5             3.5995     3.7402     0.6042 C.ar    
   6 N6             2.7823     2.7059     0.4938 N.ar    
   7 C7             1.4667     2.8860     0.4413 C.ar    
   8 C8             0.9574     4.1836     0.5043 C.ar    
   9 N9             1.3884     6.5544     0.6871 N.pl3   
  10 C10           -0.7445     2.7717     0.3189 C.2     
  11 N11           -0.4310     4.0778     0.4288 N.am    
  12 C12            5.7797     4.6646     0.7758 C.3     
  13 C13            7.2427     4.2187     0.8178 C.3     
  14 O14            7.5942     3.6200    -0.4313 O.3     
  15 C15            8.9476     3.1663    -0.4978 C.3     
  16 O16           -1.8735     2.3260     0.2315 O.2     
  17 C17            0.4492     0.5742     0.2345 C.3     
  18 C18            0.4025    -0.0225     1.6176 C.ar    
  19 C19           -0.8156    -0.3460     2.1876 C.ar    
  20 C20           -0.8642    -0.8928     3.4540 C.ar    
  21 C21            0.3166    -1.1192     4.1581 C.ar    
  22 C22            1.5409    -0.7919     3.5788 C.ar    
  23 C23            1.5781    -0.2501     2.3099 C.ar    
  24 C24            0.2706    -1.7064     5.5201 C.ar    
  25 C25            1.4514    -1.9328     6.2242 C.ar    
  26 C26           -0.9541    -2.0280     6.1018 C.ar    
  27 C27           -0.9911    -2.5739     7.3689 C.ar    
  28 C28            0.1846    -2.8014     8.0613 C.ar    
  29 C29            1.4027    -2.4792     7.4907 C.ar    
  30 C30            0.8242    -5.5806     8.6309 C.3     
  31 C31            1.2668    -6.8809     9.3271 C.3     
  32 N32            1.1387    -4.4668     9.5517 N.3     
  33 C33            1.1434    -5.0571    10.9147 C.3     
  34 C34            1.8173    -6.4359    10.7015 C.3     
  35 C35            0.1377    -3.3969     9.4449 C.3     
  36 C36            0.4406    -2.3101    10.4783 C.3     
  37 H37            2.0182     7.2876     0.7685 H       
  38 H38            0.4360     6.7347     0.6523 H       
  39 H39           -1.0606     4.8155     0.4455 H       
  40 H40            5.6246     5.3216    -0.0800 H       
  41 H41            5.5366     5.2000     1.6936 H       
  42 H42            7.8811     5.0834     0.9987 H       
  43 H43            7.3784     3.4928     1.6195 H       
  44 H44            9.6214     4.0092    -0.3443 H       
  45 H45            9.1187     2.4186     0.2766 H       
  46 H46            9.1351     2.7249    -1.4767 H       
  47 H47           -0.3970     0.2092    -0.3475 H       
  48 H48            1.3790     0.2843    -0.2550 H       
  49 H49           -1.7302    -0.1700     1.6410 H       
  50 H50           -1.8159    -1.1443     3.8984 H       
  51 H51            2.4591    -0.9653     4.1202 H       
  52 H52            2.5265     0.0037     1.8598 H       
  53 H53            2.4031    -1.6816     5.7796 H       
  54 H54           -1.8726    -1.8500     5.5624 H       
  55 H55           -1.9397    -2.8236     7.8208 H       
  56 H56            2.3176    -2.6590     8.0357 H       
  57 H57            1.3707    -5.4553     7.6962 H       
  58 H58           -0.2479    -5.6100     8.4362 H       
  59 H59            0.4151    -7.5483     9.4589 H       
  60 H60            2.0481    -7.3731     8.7480 H       
  61 H61            1.7306    -4.4434    11.5977 H       
  62 H62            0.1254    -5.1796    11.2844 H       
  63 H63            1.5187    -7.1360    11.4817 H       
  64 H64            2.9020    -6.3339    10.6678 H       
  65 H65           -0.8547    -3.8079     9.6301 H       
  66 H66            1.4695    -1.9709    10.3580 H       
  67 H67           -0.2383    -1.4700    10.3318 H       
  68 H68            0.3065    -2.7150    11.4814 H       
@<TRIPOS>BOND
   1    1   17 1
   2    1    7 1
   3    1   10 am
   4    2   12 1
   5    2    5 1
   6    3    4 ar
   7    3    5 ar
   8    4    9 1
   9    4    8 ar
  10    5    6 ar
  11    6    7 ar
  12    7    8 ar
  13    8   11 1
  14    9   37 1
  15    9   38 1
  16   10   11 am
  17   10   16 2
  18   11   39 1
  19   12   13 1
  20   12   40 1
  21   12   41 1
  22   13   14 1
  23   13   42 1
  24   13   43 1
  25   14   15 1
  26   15   44 1
  27   15   45 1
  28   15   46 1
  29   17   18 1
  30   17   47 1
  31   17   48 1
  32   18   19 ar
  33   18   23 ar
  34   19   20 ar
  35   19   49 1
  36   20   21 ar
  37   20   50 1
  38   21   22 ar
  39   21   24 1
  40   22   23 ar
  41   22   51 1
  42   23   52 1
  43   24   25 ar
  44   24   26 ar
  45   25   29 ar
  46   25   53 1
  47   26   27 ar
  48   26   54 1
  49   27   28 ar
  50   27   55 1
  51   28   29 ar
  52   28   35 1
  53   29   56 1
  54   30   31 1
  55   30   32 1
  56   30   57 1
  57   30   58 1
  58   31   34 1
  59   31   59 1
  60   31   60 1
  61   32   33 1
  62   32   35 1
  63   33   34 1
  64   33   61 1
  65   33   62 1
  66   34   63 1
  67   34   64 1
  68   35   36 1
  69   35   65 1
  70   36   66 1
  71   36   67 1
  72   36   68 1

#	End of record

