#	Name: ASD07300585
#	Creating user name:	WinNT
#	Creation time:	15. 06. 2019 21:10

#	Modifying user name:	WinNT
#	Modification time:	15. 06. 2019 21:10

#	Program:	/corina/corina34_cracker 3.40 0067  02.08.2006

@<TRIPOS>MOLECULE
ASD07300585
  56   61    0    0    0
SMALL
NO_CHARGES


@<TRIPOS>ATOM
   1 C1            -0.0034     1.3929     0.2418 C.2     
   2 C2             0.0021    -0.0041     0.0020 C.2     
   3 N3             1.1917     2.0673     0.2268 N.pl3   
   4 N4             1.1441    -0.6203    -0.2281 N.2     
   5 C5             2.3029     0.0465    -0.2404 C.2     
   6 C6             2.3489     1.3751    -0.0176 C.2     
   7 N7            -0.9697     2.2587     0.5008 N.2     
   8 C8            -0.4500     3.4738     0.6492 C.2     
   9 C9             0.9153     3.3826     0.4822 C.2     
  10 C10            1.6354     5.7071    -0.0644 C.ar    
  11 C11            1.8910     4.4898     0.5660 C.ar    
  12 C12            3.0862     4.3315     1.2805 C.ar    
  13 C13            3.9663     5.3942     1.3308 C.ar    
  14 C14            3.6409     6.5785     0.6758 C.ar    
  15 N15            2.5028     6.6965     0.0085 N.ar    
  16 N16            4.5225     7.6527     0.7228 N.3     
  17 C17            3.9945     8.8009    -0.0281 C.3     
  18 C18            4.9658     9.9775     0.0994 C.3     
  19 O19            6.2575     9.5751    -0.3642 O.3     
  20 C20            6.8022     8.4594     0.3457 C.3     
  21 C21            5.8495     7.2675     0.2207 C.3     
  22 N22           -1.1861    -0.7177     0.0100 N.pl3   
  23 C23           -2.4814    -0.0308     0.1360 C.3     
  24 C24           -3.4039    -0.5296    -0.9821 C.3     
  25 O25           -3.4384    -1.9586    -0.9615 O.3     
  26 C26           -2.1751    -2.5783    -1.2140 C.3     
  27 C27           -1.1899    -2.1840    -0.1135 C.3     
  28 C28           -1.2205     4.7329     0.9526 C.3     
  29 C29           -2.2919     5.1645    -0.0507 C.3     
  30 C30           -2.7021     4.5867     1.3054 C.3     
  31 H31            3.2204    -0.4901    -0.4324 H       
  32 H32            3.2963     1.8934    -0.0326 H       
  33 H33            0.7196     5.8388    -0.6216 H       
  34 H34            3.3131     3.4012     1.7799 H       
  35 H35            4.8966     5.3077     1.8726 H       
  36 H36            3.8865     8.5303    -1.0785 H       
  37 H37            3.0233     9.0852     0.3769 H       
  38 H38            4.6070    10.8125    -0.5023 H       
  39 H39            5.0327    10.2827     1.1436 H       
  40 H40            7.7715     8.1965    -0.0779 H       
  41 H41            6.9224     8.7205     1.3971 H       
  42 H42            6.2324     6.4324     0.8073 H       
  43 H43            5.7711     6.9724    -0.8257 H       
  44 H44           -2.9243    -0.2575     1.1059 H       
  45 H45           -2.3371     1.0453     0.0402 H       
  46 H46           -4.4094    -0.1388    -0.8259 H       
  47 H47           -3.0255    -0.1884    -1.9457 H       
  48 H48           -2.2965    -3.6614    -1.2248 H       
  49 H49           -1.7922    -2.2445    -2.1785 H       
  50 H50           -0.1908    -2.5330    -0.3744 H       
  51 H51           -1.5005    -2.6311     0.8308 H       
  52 H52           -0.6578     5.5183     1.4572 H       
  53 H53           -2.4344     6.2340    -0.2059 H       
  54 H54           -2.4395     4.5378    -0.9302 H       
  55 H55           -3.1195     3.5799     1.3179 H       
  56 H56           -3.1144     5.2760     2.0422 H       
@<TRIPOS>BOND
   1    1    2 1
   2    1    3 1
   3    1    7 2
   4    2    4 2
   5    2   22 1
   6    3    6 1
   7    3    9 1
   8    4    5 1
   9    5    6 2
  10    5   31 1
  11    6   32 1
  12    7    8 1
  13    8    9 2
  14    8   28 1
  15    9   11 1
  16   10   11 ar
  17   10   15 ar
  18   10   33 1
  19   11   12 ar
  20   12   13 ar
  21   12   34 1
  22   13   14 ar
  23   13   35 1
  24   14   15 ar
  25   14   16 1
  26   16   17 1
  27   16   21 1
  28   17   18 1
  29   17   36 1
  30   17   37 1
  31   18   19 1
  32   18   38 1
  33   18   39 1
  34   19   20 1
  35   20   21 1
  36   20   40 1
  37   20   41 1
  38   21   42 1
  39   21   43 1
  40   22   23 1
  41   22   27 1
  42   23   24 1
  43   23   44 1
  44   23   45 1
  45   24   25 1
  46   24   46 1
  47   24   47 1
  48   25   26 1
  49   26   27 1
  50   26   48 1
  51   26   49 1
  52   27   50 1
  53   27   51 1
  54   28   29 1
  55   28   30 1
  56   28   52 1
  57   29   30 1
  58   29   53 1
  59   29   54 1
  60   30   55 1
  61   30   56 1

#	End of record

