#	Name: ASD00311128
#	Creating user name:	WinNT
#	Creation time:	15. 06. 2019 18:34

#	Modifying user name:	WinNT
#	Modification time:	15. 06. 2019 18:34

#	Program:	/corina/corina34_cracker 3.40 0067  02.08.2006

@<TRIPOS>MOLECULE
ASD00311128
  40   43    0    0    0
SMALL
NO_CHARGES


@<TRIPOS>ATOM
   1 C1            -0.0167     1.3778     0.0096 C.2     
   2 C2             0.0021    -0.0041     0.0020 C.2     
   3 C3             1.2586    -0.6766    -0.0131 C.2     
   4 C4             2.4315     0.0673    -0.0199 C.2     
   5 C5             2.3576     1.4751    -0.0117 C.2     
   6 N6             1.1651     2.0904     0.0022 N.am    
   7 C7            -1.3434    -0.5752     0.0118 C.2     
   8 C8            -2.3229     0.3264     0.0260 C.2     
   9 S9            -1.6792     1.9564     0.0358 S.3     
  10 O10            3.3826     2.1372    -0.0175 O.2     
  11 C11            3.7475    -0.6121    -0.0352 C.ar    
  12 C12            4.5937    -0.4747    -1.1354 C.ar    
  13 C13            5.8185    -1.1102    -1.1437 C.ar    
  14 C14            6.2077    -1.8822    -0.0637 C.ar    
  15 C15            5.3728    -2.0223     1.0305 C.ar    
  16 C16            4.1481    -1.3871     1.0531 C.ar    
  17 O17            1.3084    -2.0291    -0.0204 O.3     
  18 C18           -1.5961    -2.0357     0.0059 C.ar    
  19 C19           -1.7271    -2.7188    -1.2053 C.ar    
  20 C20           -1.9626    -4.0796    -1.2058 C.ar    
  21 C21           -2.0687    -4.7672    -0.0047 C.ar    
  22 C22           -1.9393    -4.0906     1.2001 C.ar    
  23 C23           -1.6978    -2.7321     1.2089 C.ar    
  24 O24           -2.3005    -6.1065    -0.0085 O.3     
  25 C25           -2.3985    -6.7515     1.2628 C.3     
  26 F26           -1.6242    -2.0493    -2.3743 F       
  27 Cl27          -4.0149    -0.0616     0.0395 Cl      
  28 H28            1.1330     3.0599     0.0073 H       
  29 H29            4.2908     0.1274    -1.9792 H       
  30 H30            6.4744    -1.0049    -1.9952 H       
  31 H31            7.1672    -2.3779    -0.0750 H       
  32 H32            5.6822    -2.6263     1.8706 H       
  33 H33            3.4990    -1.4935     1.9097 H       
  34 H34            2.2057    -2.3896    -0.0306 H       
  35 H35           -2.0645    -4.6092    -2.1415 H       
  36 H36           -2.0229    -4.6292     2.1325 H       
  37 H37           -1.5926    -2.2079     2.1473 H       
  38 H38           -1.4662    -6.6172     1.8113 H       
  39 H39           -3.2200    -6.3138     1.8300 H       
  40 H40           -2.5842    -7.8157     1.1170 H       
@<TRIPOS>BOND
   1    1    2 2
   2    1    6 1
   3    1    9 1
   4    2    3 1
   5    2    7 1
   6    3    4 2
   7    3   17 1
   8    4    5 1
   9    4   11 1
  10    5    6 am
  11    5   10 2
  12    6   28 1
  13    7    8 2
  14    7   18 1
  15    8    9 1
  16    8   27 1
  17   11   12 ar
  18   11   16 ar
  19   12   13 ar
  20   12   29 1
  21   13   14 ar
  22   13   30 1
  23   14   15 ar
  24   14   31 1
  25   15   16 ar
  26   15   32 1
  27   16   33 1
  28   17   34 1
  29   18   19 ar
  30   18   23 ar
  31   19   20 ar
  32   19   26 1
  33   20   21 ar
  34   20   35 1
  35   21   22 ar
  36   21   24 1
  37   22   23 ar
  38   22   36 1
  39   23   37 1
  40   24   25 1
  41   25   38 1
  42   25   39 1
  43   25   40 1

#	End of record

