#	Name: ASD00100092
#	Creating user name:	WinNT
#	Creation time:	15. 06. 2019 18:30

#	Modifying user name:	WinNT
#	Modification time:	15. 06. 2019 18:30

#	Program:	/corina/corina34_cracker 3.40 0067  02.08.2006

@<TRIPOS>MOLECULE
ASD00100092
  66   70    0    0    0
SMALL
NO_CHARGES


@<TRIPOS>ATOM
   1 C1            -0.0180     1.4742     0.0101 C.2     
   2 C2             0.0021    -0.0041     0.0020 C.ar    
   3 C3             1.2184    -0.6885    -0.0133 C.ar    
   4 C4             1.2301    -2.0680    -0.0203 C.ar    
   5 C5             0.0396    -2.7730    -0.0127 C.ar    
   6 C6            -1.1695    -2.1007     0.0024 C.ar    
   7 C7            -1.1952    -0.7214     0.0154 C.ar    
   8 O8             1.0263     2.0963     0.0035 O.2     
   9 N9            -1.1942     2.1322     0.0193 N.am    
  10 C10           -1.2141     3.5970     0.0274 C.3     
  11 C11           -2.5311     4.0925    -0.5733 C.3     
  12 C12           -2.5518     5.6223    -0.5649 C.3     
  13 C13           -2.4262     6.1262     0.8743 C.3     
  14 C14           -1.1092     5.6307     1.4750 C.3     
  15 C15           -1.0885     4.1009     1.4665 C.3     
  16 C16           -2.4470     7.6560     0.8827 C.3     
  17 C17           -2.4471     8.1581     2.3279 C.3     
  18 N18           -2.4670     9.6270     2.3360 N.3     
  19 C19           -2.7058    10.1426     3.6901 C.3     
  20 C20           -2.8648    11.6638     3.6374 C.3     
  21 C21           -1.5940    12.2850     3.0513 C.3     
  22 C22           -1.3415    11.6953     1.6609 C.3     
  23 C23           -1.2266    10.1732     1.7709 C.3     
  24 O24           -2.5442    15.7575     2.3729 O.3     
  25 C25           -2.6985    14.4294     2.2310 C.2     
  26 C26           -1.7677    13.7779     2.9412 C.2     
  27 C27           -0.9515    14.8106     3.5909 C.ar    
  28 C28           -1.5037    16.0368     3.1837 C.ar    
  29 C29            0.1501    14.7878     4.4444 C.ar    
  30 C30            0.6935    15.9742     4.8859 C.ar    
  31 C31            0.1489    17.1852     4.4843 C.ar    
  32 C32           -0.9406    17.2214     3.6404 C.ar    
  33 H33            2.1484    -0.1393    -0.0199 H       
  34 H34            2.1706    -2.5988    -0.0321 H       
  35 H35            0.0543    -3.8529    -0.0190 H       
  36 H36           -2.0953    -2.6569     0.0083 H       
  37 H37           -2.1396    -0.1978     0.0318 H       
  38 H38           -2.0276     1.6358     0.0206 H       
  39 H39           -0.3801     3.9750    -0.5640 H       
  40 H40           -2.6206     3.7336    -1.5986 H       
  41 H41           -3.3651     3.7146     0.0180 H       
  42 H42           -1.7178     6.0003    -1.1563 H       
  43 H43           -3.4901     5.9753    -0.9929 H       
  44 H44           -3.2602     5.7483     1.4656 H       
  45 H45           -0.2752     6.0086     0.8836 H       
  46 H46           -1.0197     5.9896     2.5003 H       
  47 H47           -1.9225     3.7229     2.0579 H       
  48 H48           -0.1502     3.7479     1.8945 H       
  49 H49           -1.5645     8.0342     0.3667 H       
  50 H50           -3.3442     8.0100     0.3750 H       
  51 H51           -3.3296     7.7799     2.8439 H       
  52 H52           -1.5498     7.8041     2.8356 H       
  53 H53           -3.6146     9.6962     4.0937 H       
  54 H54           -1.8610     9.8877     4.3300 H       
  55 H55           -3.7180    11.9189     3.0088 H       
  56 H56           -3.0265    12.0478     4.6446 H       
  57 H57           -0.7471    12.0628     3.7005 H       
  58 H58           -2.1706    11.9509     1.0012 H       
  59 H59           -0.4148    12.1019     1.2560 H       
  60 H60           -0.3887     9.9182     2.4198 H       
  61 H61           -1.0610     9.7490     0.7806 H       
  62 H62           -3.4622    13.9564     1.6315 H       
  63 H63            0.5749    13.8457     4.7582 H       
  64 H64            1.5470    15.9615     5.5476 H       
  65 H65            0.5827    18.1093     4.8367 H       
  66 H66           -1.3558    18.1702     3.3344 H       
@<TRIPOS>BOND
   1    1    2 1
   2    1    8 2
   3    1    9 am
   4    2    3 ar
   5    2    7 ar
   6    3    4 ar
   7    3   33 1
   8    4    5 ar
   9    4   34 1
  10    5    6 ar
  11    5   35 1
  12    6    7 ar
  13    6   36 1
  14    7   37 1
  15    9   10 1
  16    9   38 1
  17   10   11 1
  18   10   15 1
  19   10   39 1
  20   11   12 1
  21   11   40 1
  22   11   41 1
  23   12   13 1
  24   12   42 1
  25   12   43 1
  26   13   14 1
  27   13   16 1
  28   13   44 1
  29   14   15 1
  30   14   45 1
  31   14   46 1
  32   15   47 1
  33   15   48 1
  34   16   17 1
  35   16   49 1
  36   16   50 1
  37   17   18 1
  38   17   51 1
  39   17   52 1
  40   18   19 1
  41   18   23 1
  42   19   20 1
  43   19   53 1
  44   19   54 1
  45   20   21 1
  46   20   55 1
  47   20   56 1
  48   21   22 1
  49   21   26 1
  50   21   57 1
  51   22   23 1
  52   22   58 1
  53   22   59 1
  54   23   60 1
  55   23   61 1
  56   24   25 1
  57   24   28 1
  58   25   26 2
  59   25   62 1
  60   26   27 1
  61   27   28 ar
  62   27   29 ar
  63   28   32 ar
  64   29   30 ar
  65   29   63 1
  66   30   31 ar
  67   30   64 1
  68   31   32 ar
  69   31   65 1
  70   32   66 1

#	End of record

