#	Name: ASD01916182
#	Creating user name:	WinNT
#	Creation time:	15. 06. 2019 20:06

#	Modifying user name:	WinNT
#	Modification time:	15. 06. 2019 20:06

#	Program:	/corina/corina34_cracker 3.40 0067  02.08.2006

@<TRIPOS>MOLECULE
ASD01916182
  29   30    0    0    0
SMALL
NO_CHARGES


@<TRIPOS>ATOM
   1 C1             0.0764     1.6108     0.7038 C.3     
   2 C2             0.0886     0.0995     0.8253 C.2     
   3 N3             1.3518    -0.2725     0.6309 N.2     
   4 C4             2.1483     0.7485     0.4055 C.2     
   5 N5             1.4872     1.9372     0.4259 N.pl3   
   6 C6             2.0597     3.2690     0.2142 C.3     
   7 O7            -0.8606    -0.6241     1.0539 O.2     
   8 N8             3.4931     0.6290     0.1759 N.am    
   9 C9             4.0705    -0.5888     0.1723 C.2     
  10 N10            5.3940    -0.7064    -0.0537 N.am    
  11 O11            3.3977    -1.5810     0.3728 O.2     
  12 C12            6.0110    -1.9590     0.0388 C.ar    
  13 C13            5.3325    -3.1001    -0.3673 C.ar    
  14 C14            5.9450    -4.3361    -0.2746 C.ar    
  15 C15            7.2324    -4.4357     0.2228 C.ar    
  16 C16            7.9097    -3.3003     0.6283 C.ar    
  17 C17            7.3054    -2.0623     0.5317 C.ar    
  18 Cl18           5.0981    -5.7640    -0.7819 Cl      
  19 H19           -0.5613     1.9253    -0.1224 H       
  20 H20           -0.2479     2.0694     1.6379 H       
  21 H21            3.1304     3.1793     0.0308 H       
  22 H22            1.5816     3.7374    -0.6462 H       
  23 H23            1.8929     3.8812     1.1005 H       
  24 H24            4.0301     1.4208     0.0158 H       
  25 H25            5.9188     0.0772    -0.2805 H       
  26 H26            4.3275    -3.0224    -0.7549 H       
  27 H27            7.7091    -5.4022     0.2948 H       
  28 H28            8.9143    -3.3813     1.0164 H       
  29 H29            7.8353    -1.1762     0.8486 H       
@<TRIPOS>BOND
   1    1    2 1
   2    1    5 1
   3    1   19 1
   4    1   20 1
   5    2    3 1
   6    2    7 2
   7    3    4 2
   8    4    5 1
   9    4    8 1
  10    5    6 1
  11    6   21 1
  12    6   22 1
  13    6   23 1
  14    8    9 am
  15    8   24 1
  16    9   10 am
  17    9   11 2
  18   10   12 1
  19   10   25 1
  20   12   13 ar
  21   12   17 ar
  22   13   14 ar
  23   13   26 1
  24   14   15 ar
  25   14   18 1
  26   15   16 ar
  27   15   27 1
  28   16   17 ar
  29   16   28 1
  30   17   29 1

#	End of record

