#	Name: ASD05143022
#	Creating user name:	WinNT
#	Creation time:	15. 06. 2019 20:57

#	Modifying user name:	WinNT
#	Modification time:	15. 06. 2019 20:57

#	Program:	/corina/corina34_cracker 3.40 0067  02.08.2006

@<TRIPOS>MOLECULE
ASD05143022
 145  148    0    0    0
SMALL
NO_CHARGES


@<TRIPOS>ATOM
   1 C1            -2.1119     5.3890     7.5267 C.2     
   2 C2            -1.6272     4.6499     8.7474 C.3     
   3 N3            -1.2235     5.9257     6.6670 N.am    
   4 O4            -3.3013     5.4964     7.3154 O.2     
   5 C5            -1.6947     6.6441     5.4804 C.3     
   6 C6            -2.5276     5.7007     4.6102 C.3     
   7 C7            -2.5427     7.8150     5.9058 C.2     
   8 C8            -1.6353     4.5784     4.0762 C.3     
   9 C9            -2.4682     3.6350     3.2060 C.3     
  10 N10           -1.6138     2.5604     2.6946 N.pl3   
  11 C11           -2.1459     1.5863     1.8834 C.2     
  12 N12           -1.3441     0.5778     1.4035 N.pl3   
  13 N13           -3.4105     1.6188     1.5693 N.2     
  14 O14           -3.0361     7.8357     7.0135 O.2     
  15 N15           -2.7527     8.8392     5.0553 N.am    
  16 C16           -3.5771     9.9775     5.4689 C.3     
  17 C17           -2.6744    11.1683     5.7974 C.3     
  18 C18           -1.5189    10.7035     6.6858 C.3     
  19 C19           -0.3772    10.2344     5.8214 C.2     
  20 O20           -0.5793     9.5046     4.8740 O.2     
  21 N21            0.8897    10.6467     6.1242 N.am    
  22 C22            1.9536    10.1357     5.2300 C.3     
  23 C23            2.1046    11.0968     4.0492 C.3     
  24 C24            2.7688    10.3668     2.8800 C.3     
  25 C25            3.7278    11.3187     2.1621 C.3     
  26 N26            3.6772    11.0422     0.7124 N.am    
  27 C27            5.1299    11.1003     2.6693 C.2     
  28 N28            5.5167    11.6482     3.8383 N.am    
  29 O29            5.9103    10.4314     2.0255 O.2     
  30 C30            2.8515    11.8307    -0.0285 C.2     
  31 O31            2.2073    12.7122     0.4994 O.2     
  32 C32            2.7483    11.5948    -1.5134 C.3     
  33 N33            1.5340    12.2778    -2.0157 N.am    
  34 C34            3.9845    12.1652    -2.2114 C.3     
  35 C35            0.4811    11.4583    -2.3098 C.2     
  36 O36            0.5726    10.2579    -2.1631 O.2     
  37 C37           -0.7964    12.0744    -2.8196 C.3     
  38 N38           -1.9234    11.1811    -2.4849 N.am    
  39 C39           -1.0082    13.4372    -2.1572 C.3     
  40 C40           -3.0284    11.7691    -1.9492 C.2     
  41 O41           -3.0580    12.9669    -1.7614 O.2     
  42 C42           -4.2143    10.9100    -1.5935 C.3     
  43 C43            3.9374    11.8204    -3.6777 C.2     
  44 C44            3.2399    12.5680    -4.7267 C.ar    
  45 C45            3.4786    11.8710    -5.9250 C.ar    
  46 N46            4.2635    10.7837    -5.6130 N.pl3   
  47 C47            4.5315    10.7731    -4.2712 C.2     
  48 C48            2.4630    13.7282    -4.7384 C.ar    
  49 C49            1.9380    14.1811    -5.9157 C.ar    
  50 C50            2.1703    13.4965    -7.1009 C.ar    
  51 C51            2.9344    12.3504    -7.1122 C.ar    
  52 N52           -4.8009    11.4108    -0.3295 N.am    
  53 C53           -3.7613     9.4602    -1.4101 C.3     
  54 C54           -4.9599     8.5912    -1.1288 C.ar    
  55 C55           -5.9881     8.5140    -2.0487 C.ar    
  56 C56           -7.0895     7.7153    -1.7899 C.ar    
  57 C57           -7.1589     6.9951    -0.6097 C.ar    
  58 C58           -6.1292     7.0738     0.3089 C.ar    
  59 C59           -5.0278     7.8669     0.0470 C.ar    
  60 C60           -4.5146    10.3518     4.3498 C.2     
  61 N61           -3.9969    10.8397     3.1892 N.am    
  62 O62           -5.7130    10.2199     4.4813 O.2     
  63 C63           -4.9639    11.1895     2.1295 C.3     
  64 C64           -5.1856    12.7033     2.1170 C.3     
  65 C65           -4.4083    10.7495     0.7996 C.2     
  66 C66           -5.8497    13.1323     3.4269 C.3     
  67 N67           -6.0626    14.5857     3.4149 N.3     
  68 O68           -3.6269     9.8244     0.7328 O.2     
  69 C69           -1.0192    13.2690    -0.6366 C.3     
  70 C70           -1.3777    14.6029     0.0215 C.3     
  71 N71           -1.3882    14.4418     1.4776 N.pl3   
  72 C72           -1.6860    15.5135     2.2857 C.2     
  73 N73           -1.6959    15.3623     3.6521 N.pl3   
  74 N74           -1.9590    16.6729     1.7562 N.2     
  75 F75           -8.0956     7.6395    -2.6884 F       
  76 H76           -1.0339     5.3220     9.3673 H       
  77 H77           -2.4834     4.2901     9.3181 H       
  78 H78           -1.0139     3.8030     8.4397 H       
  79 H79           -0.2722     5.8363     6.8339 H       
  80 H80           -0.8386     7.0039     4.9097 H       
  81 H81           -3.3327     5.2719     5.2069 H       
  82 H82           -2.9515     6.2569     3.7741 H       
  83 H83           -0.8302     5.0072     3.4795 H       
  84 H84           -1.2114     4.0223     4.9123 H       
  85 H85           -3.2733     3.2063     3.8027 H       
  86 H86           -2.8921     4.1912     2.3699 H       
  87 H87           -0.6727     2.5362     2.9284 H       
  88 H88           -0.4030     0.5536     1.6372 H       
  89 H89           -1.7195    -0.1095     0.8311 H       
  90 H90           -3.7859     0.9315     0.9969 H       
  91 H91           -2.3581     8.8227     4.1694 H       
  92 H92           -4.1554     9.7055     6.3519 H       
  93 H93           -2.2762    11.5880     4.8736 H       
  94 H94           -3.2528    11.9288     6.3221 H       
  95 H95           -1.1849    11.5320     7.3105 H       
  96 H96           -1.8554     9.8832     7.3199 H       
  97 H97            1.0790    11.2337     6.8729 H       
  98 H98            2.8946    10.0779     5.7771 H       
  99 H99            1.6795     9.1464     4.8636 H       
 100 H100           1.1213    11.4539     3.7432 H       
 101 H101           2.7225    11.9439     4.3468 H       
 102 H102           3.3239     9.5076     3.2564 H       
 103 H103           2.0036    10.0274     2.1818 H       
 104 H104           3.4265    12.3496     2.3481 H       
 105 H105           4.2048    10.3352     0.3092 H       
 106 H106           4.8926    12.1831     4.3533 H       
 107 H107           6.4193    11.5076     4.1648 H       
 108 H108           2.6745    10.5252    -1.7099 H       
 109 H109           1.4893    13.2402    -2.1284 H       
 110 H110           4.0009    13.2487    -2.0933 H       
 111 H111           4.8829    11.7375    -1.7663 H       
 112 H112          -0.7365    12.1972    -3.9010 H       
 113 H113          -1.8787    10.2244    -2.6384 H       
 114 H114          -0.1991    14.1095    -2.4426 H       
 115 H115          -1.9604    13.8556    -2.4834 H       
 116 H116          -4.9577    10.9655    -2.3888 H       
 117 H117           4.5822    10.1253    -6.2500 H       
 118 H118           5.1264    10.0282    -3.7636 H       
 119 H119           2.2776    14.2655    -3.8201 H       
 120 H120           1.3373    15.0785    -5.9242 H       
 121 H121           1.7483    13.8667    -8.0235 H       
 122 H122           3.1096    11.8252    -8.0395 H       
 123 H123          -5.4205    12.1567    -0.3049 H       
 124 H124          -3.2682     9.1159    -2.3192 H       
 125 H125          -3.0648     9.4002    -0.5739 H       
 126 H126          -5.9331     9.0766    -2.9689 H       
 127 H127          -8.0175     6.3722    -0.4067 H       
 128 H128          -6.1831     6.5120     1.2297 H       
 129 H129          -4.2235     7.9276     0.7652 H       
 130 H130          -3.0415    10.9522     3.0647 H       
 131 H131          -5.9107    10.6832     2.3175 H       
 132 H132          -4.2263    13.2101     2.0130 H       
 133 H133          -5.8298    12.9692     1.2789 H       
 134 H134          -6.8091    12.6254     3.5309 H       
 135 H135          -5.2055    12.8663     4.2650 H       
 136 H136          -6.6036    14.8653     2.6105 H       
 137 H137          -6.5004    14.8941     4.2701 H       
 138 H138          -1.7580    12.5170    -0.3595 H       
 139 H139          -0.0328    12.9508    -0.2991 H       
 140 H140          -0.6388    15.3549    -0.2555 H       
 141 H141          -2.3641    14.9210    -0.3160 H       
 142 H142          -1.1851    13.5790     1.8716 H       
 143 H143          -1.4928    14.4996     4.0461 H       
 144 H144          -1.9060    16.1185     4.2222 H       
 145 H145          -2.1691    17.4290     2.3263 H       
@<TRIPOS>BOND
   1    1    2 1
   2    1    3 am
   3    1    4 2
   4    2   76 1
   5    2   77 1
   6    2   78 1
   7    3    5 1
   8    3   79 1
   9    5    6 1
  10    5    7 1
  11    5   80 1
  12    6    8 1
  13    6   81 1
  14    6   82 1
  15    7   14 2
  16    7   15 am
  17    8    9 1
  18    8   83 1
  19    8   84 1
  20    9   10 1
  21    9   85 1
  22    9   86 1
  23   10   11 1
  24   10   87 1
  25   11   12 1
  26   11   13 2
  27   12   88 1
  28   12   89 1
  29   13   90 1
  30   15   16 1
  31   15   91 1
  32   16   17 1
  33   16   60 1
  34   16   92 1
  35   17   18 1
  36   17   93 1
  37   17   94 1
  38   18   19 1
  39   18   95 1
  40   18   96 1
  41   19   20 2
  42   19   21 am
  43   21   22 1
  44   21   97 1
  45   22   23 1
  46   22   98 1
  47   22   99 1
  48   23   24 1
  49   23  100 1
  50   23  101 1
  51   24   25 1
  52   24  102 1
  53   24  103 1
  54   25   26 1
  55   25   27 1
  56   25  104 1
  57   26   30 am
  58   26  105 1
  59   27   28 am
  60   27   29 2
  61   28  106 1
  62   28  107 1
  63   30   31 2
  64   30   32 1
  65   32   33 1
  66   32   34 1
  67   32  108 1
  68   33   35 am
  69   33  109 1
  70   34   43 1
  71   34  110 1
  72   34  111 1
  73   35   36 2
  74   35   37 1
  75   37   38 1
  76   37   39 1
  77   37  112 1
  78   38   40 am
  79   38  113 1
  80   39   69 1
  81   39  114 1
  82   39  115 1
  83   40   41 2
  84   40   42 1
  85   42   52 1
  86   42   53 1
  87   42  116 1
  88   43   44 1
  89   43   47 2
  90   44   45 ar
  91   44   48 ar
  92   45   46 1
  93   45   51 ar
  94   46   47 1
  95   46  117 1
  96   47  118 1
  97   48   49 ar
  98   48  119 1
  99   49   50 ar
 100   49  120 1
 101   50   51 ar
 102   50  121 1
 103   51  122 1
 104   52   65 am
 105   52  123 1
 106   53   54 1
 107   53  124 1
 108   53  125 1
 109   54   55 ar
 110   54   59 ar
 111   55   56 ar
 112   55  126 1
 113   56   57 ar
 114   56   75 1
 115   57   58 ar
 116   57  127 1
 117   58   59 ar
 118   58  128 1
 119   59  129 1
 120   60   61 am
 121   60   62 2
 122   61   63 1
 123   61  130 1
 124   63   64 1
 125   63   65 1
 126   63  131 1
 127   64   66 1
 128   64  132 1
 129   64  133 1
 130   65   68 2
 131   66   67 1
 132   66  134 1
 133   66  135 1
 134   67  136 1
 135   67  137 1
 136   69   70 1
 137   69  138 1
 138   69  139 1
 139   70   71 1
 140   70  140 1
 141   70  141 1
 142   71   72 1
 143   71  142 1
 144   72   73 1
 145   72   74 2
 146   73  143 1
 147   73  144 1
 148   74  145 1

#	End of record

