#	Name: ASD01813590
#	Creating user name:	WinNT
#	Creation time:	15. 06. 2019 19:30

#	Modifying user name:	WinNT
#	Modification time:	15. 06. 2019 19:30

#	Program:	/corina/corina34_cracker 3.40 0067  02.08.2006

@<TRIPOS>MOLECULE
ASD01813590
  45   48    0    0    0
SMALL
NO_CHARGES


@<TRIPOS>ATOM
   1 C1            -0.0133     1.3816     0.1369 C.ar    
   2 C2             0.0054    -0.0047     0.1280 C.ar    
   3 C3             1.1998    -0.6937     0.0713 C.ar    
   4 C4             2.4051     0.0041     0.0219 C.ar    
   5 C5             2.3846     1.4093     0.0306 C.ar    
   6 C6             1.1681     2.0940     0.0886 C.ar    
   7 N7             3.6050    -0.6734    -0.0339 N.pl3   
   8 C8             4.7887    -0.0493    -0.0818 C.2     
   9 C9             4.8951     1.3269    -0.0784 C.2     
  10 C10            3.6660     2.1351    -0.0221 C.2     
  11 O11            3.7066     3.3531    -0.0173 O.2     
  12 C12            6.2133     1.9744    -0.1310 C.2     
  13 O13            6.3042     3.3194    -0.1271 O.3     
  14 O14            7.2217     1.2971    -0.1781 O.2     
  15 C15            3.5837    -2.1382    -0.0406 C.3     
  16 C16            3.4403    -2.6321    -1.4571 C.ar    
  17 N17            2.2408    -2.7346    -1.9911 N.ar    
  18 C18            2.0670    -3.1644    -3.2338 C.ar    
  19 C19            3.1600    -3.5233    -4.0180 C.ar    
  20 C20            4.4335    -3.4257    -3.4826 C.ar    
  21 C21            4.5708    -2.9663    -2.1811 C.ar    
  22 F22            1.2006    -2.0447     0.0642 F       
  23 F23            1.1481     3.4449     0.0965 F       
  24 C24            0.6953    -3.2639    -3.7932 C.2     
  25 N25            0.3558    -3.2189    -5.0573 N.2     
  26 O26           -0.8403    -3.3272    -5.1976 O.3     
  27 C27           -1.4700    -3.4615    -4.0218 C.2     
  28 C28           -0.5148    -3.4335    -3.0647 C.2     
  29 C29           -0.6921    -3.5458    -1.5723 C.3     
  30 C30           -2.9534    -3.6197    -3.8084 C.3     
  31 H31           -0.9564     1.9064     0.1774 H       
  32 H32           -0.9251    -0.5515     0.1661 H       
  33 H33            5.6902    -0.6425    -0.1242 H       
  34 H34            7.1927     3.6994    -0.1629 H       
  35 H35            4.5134    -2.5171     0.3839 H       
  36 H36            2.7418    -2.4920     0.5545 H       
  37 H37            3.0167    -3.8734    -5.0296 H       
  38 H38            5.3004    -3.6969    -4.0668 H       
  39 H39            5.5502    -2.8782    -1.7344 H       
  40 H40           -0.6399    -4.5940    -1.2781 H       
  41 H41            0.0976    -2.9874    -1.0696 H       
  42 H42           -1.6624    -3.1371    -1.2900 H       
  43 H43           -3.4622    -3.6103    -4.7723 H       
  44 H44           -3.1489    -4.5657    -3.3035 H       
  45 H45           -3.3219    -2.7975    -3.1950 H       
@<TRIPOS>BOND
   1    1    2 ar
   2    1    6 ar
   3    1   31 1
   4    2    3 ar
   5    2   32 1
   6    3    4 ar
   7    3   22 1
   8    4    5 ar
   9    4    7 1
  10    5    6 ar
  11    5   10 1
  12    6   23 1
  13    7    8 1
  14    7   15 1
  15    8    9 2
  16    8   33 1
  17    9   10 1
  18    9   12 1
  19   10   11 2
  20   12   13 1
  21   12   14 2
  22   13   34 1
  23   15   16 1
  24   15   35 1
  25   15   36 1
  26   16   17 ar
  27   16   21 ar
  28   17   18 ar
  29   18   19 ar
  30   18   24 1
  31   19   20 ar
  32   19   37 1
  33   20   21 ar
  34   20   38 1
  35   21   39 1
  36   24   25 2
  37   24   28 1
  38   25   26 1
  39   26   27 1
  40   27   28 2
  41   27   30 1
  42   28   29 1
  43   29   40 1
  44   29   41 1
  45   29   42 1
  46   30   43 1
  47   30   44 1
  48   30   45 1

#	End of record

