#	Name: ASD08390010
#	Creating user name:	WinNT
#	Creation time:	15. 06. 2019 21:19

#	Modifying user name:	WinNT
#	Modification time:	15. 06. 2019 21:19

#	Program:	/corina/corina34_cracker 3.40 0067  02.08.2006

@<TRIPOS>MOLECULE
ASD08390010
  43   45    0    0    0
SMALL
NO_CHARGES


@<TRIPOS>ATOM
   1 N1            -0.0179     1.4655     0.0101 N.2     
   2 C2             0.0021    -0.0041     0.0020 C.3     
   3 C3             1.5043    -0.3524    -0.0142 C.3     
   4 N4             2.1526     0.9701    -0.0133 N.pl3   
   5 C5             1.1797     1.9244     0.0011 C.2     
   6 C6            -0.6640    -0.5573     1.2634 C.3     
   7 C7             4.0785     1.3098    -1.4502 C.ar    
   8 C8             4.0974     2.5320    -2.0956 C.ar    
   9 C9             4.5449     2.6176    -3.4008 C.ar    
  10 C10            4.9739     1.4809    -4.0602 C.ar    
  11 C11            4.9558     0.2588    -3.4145 C.ar    
  12 C12            4.5070     0.1731    -2.1098 C.ar    
  13 C13            3.5965     1.2176    -0.0253 C.3     
  14 C14            1.4863     3.3999     0.0061 C.3     
  15 C15            1.8836    -1.1324     1.2182 C.ar    
  16 C16            2.0146    -2.5070     1.1532 C.ar    
  17 C17            2.3624    -3.2224     2.2836 C.ar    
  18 C18            2.5797    -2.5632     3.4791 C.ar    
  19 C19            2.4497    -1.1886     3.5440 C.ar    
  20 C20            2.1060    -0.4727     2.4125 C.ar    
  21 C21           -0.6808    -0.5357    -1.2317 C.2     
  22 O22           -0.2571    -1.5272    -1.7769 O.2     
  23 O23           -1.7597     0.0923    -1.7249 O.3     
  24 H24            1.7615    -0.9069    -0.9167 H       
  25 H25           -1.7062    -0.2393     1.2933 H       
  26 H26           -0.6166    -1.6462     1.2516 H       
  27 H27           -0.1439    -0.1805     2.1441 H       
  28 H28            3.7623     3.4201    -1.5804 H       
  29 H29            4.5590     3.5724    -3.9053 H       
  30 H30            5.3228     1.5476    -5.0801 H       
  31 H31            5.2903    -0.6293    -3.9299 H       
  32 H32            4.4921    -0.7818    -1.6055 H       
  33 H33            3.8091     2.1534     0.4915 H       
  34 H34            4.1096     0.3991     0.4796 H       
  35 H35            1.5505     3.7611    -1.0203 H       
  36 H36            0.6939     3.9339     0.5304 H       
  37 H37            2.4365     3.5718     0.5118 H       
  38 H38            1.8448    -3.0220     0.2192 H       
  39 H39            2.4640    -4.2964     2.2330 H       
  40 H40            2.8508    -3.1223     4.3625 H       
  41 H41            2.6191    -0.6736     4.4780 H       
  42 H42            2.0081     0.6017     2.4622 H       
  43 H43           -2.1636    -0.2860    -2.5179 H       
@<TRIPOS>BOND
   1    1    2 1
   2    1    5 2
   3    2    6 1
   4    2    3 1
   5    2   21 1
   6    3    4 1
   7    3   15 1
   8    3   24 1
   9    4    5 1
  10    4   13 1
  11    5   14 1
  12    6   25 1
  13    6   26 1
  14    6   27 1
  15    7    8 ar
  16    7   12 ar
  17    7   13 1
  18    8    9 ar
  19    8   28 1
  20    9   10 ar
  21    9   29 1
  22   10   11 ar
  23   10   30 1
  24   11   12 ar
  25   11   31 1
  26   12   32 1
  27   13   33 1
  28   13   34 1
  29   14   35 1
  30   14   36 1
  31   14   37 1
  32   15   16 ar
  33   15   20 ar
  34   16   17 ar
  35   16   38 1
  36   17   18 ar
  37   17   39 1
  38   18   19 ar
  39   18   40 1
  40   19   20 ar
  41   19   41 1
  42   20   42 1
  43   21   22 2
  44   21   23 1
  45   23   43 1

#	End of record

