#	Name: ASD01001126
#	Creating user name:	WinNT
#	Creation time:	15. 06. 2019 18:55

#	Modifying user name:	WinNT
#	Modification time:	15. 06. 2019 18:55

#	Program:	/corina/corina34_cracker 3.40 0067  02.08.2006

@<TRIPOS>MOLECULE
ASD01001126
  48   50    0    0    0
SMALL
NO_CHARGES


@<TRIPOS>ATOM
   1 C1            -0.0161     1.3338     0.0094 C.2     
   2 C2             0.0021    -0.0041     0.0020 C.2     
   3 C3            -1.3323    -0.5755     0.0108 C.2     
   4 C4            -2.3245     0.3651     0.0250 C.2     
   5 S5            -1.6658     1.9351     0.0208 S.3     
   6 N6            -3.6799     0.0799     0.0356 N.am    
   7 C7            -4.5796     1.0832     0.0492 C.2     
   8 C8            -1.5905    -2.0184     0.0043 C.2     
   9 O9            -1.6880    -2.6239     1.0557 O.2     
  10 C10           -6.0134     0.7815     0.0605 C.2     
  11 C11            1.2250     2.2057     0.0022 C.3     
  12 C12            2.4300     1.3497     0.4014 C.3     
  13 C13            2.4400     0.0744    -0.4468 C.3     
  14 C14            1.2809    -0.8261    -0.0138 C.3     
  15 C15           -7.0186     1.7077     0.0747 C.2     
  16 C16           -8.2738     1.1474     0.0821 C.2     
  17 C17           -8.2984    -0.1907     0.0743 C.2     
  18 S18           -6.7167    -0.8300     0.0503 S.3     
  19 O19           -4.2012     2.2400     0.0522 O.2     
  20 N20           -1.7200    -2.6746    -1.1658 N.am    
  21 C21           -1.1941    -6.7982    -2.0817 C.3     
  22 N22           -2.3401    -6.0558    -2.6234 N.3     
  23 C23           -2.0813    -4.6098    -2.6169 C.3     
  24 C24           -1.9781    -4.1166    -1.1722 C.3     
  25 C25           -2.6797    -6.5238    -3.9738 C.3     
  26 H26           -3.9815    -0.8420     0.0332 H       
  27 H27            1.3803     2.6121    -0.9972 H       
  28 H28            1.1031     3.0207     0.7156 H       
  29 H29            3.3487     1.9101     0.2281 H       
  30 H30            2.3561     1.0854     1.4563 H       
  31 H31            2.3251     0.3358    -1.4987 H       
  32 H32            3.3837    -0.4517    -0.3023 H       
  33 H33            1.4759    -1.2181     0.9844 H       
  34 H34            1.1762    -1.6511    -0.7185 H       
  35 H35           -6.8440     2.7734     0.0801 H       
  36 H36           -9.1743     1.7434     0.0937 H       
  37 H37           -9.1993    -0.7863     0.0788 H       
  38 H38           -1.6423    -2.1920    -2.0036 H       
  39 H39           -1.0079    -6.4810    -1.0556 H       
  40 H40           -1.4123    -7.8660    -2.0980 H       
  41 H41           -0.3116    -6.5983    -2.6895 H       
  42 H42           -1.1460    -4.4057    -3.1381 H       
  43 H43           -2.8980    -4.0923    -3.1200 H       
  44 H44           -1.1614    -4.6342    -0.6691 H       
  45 H45           -2.9134    -4.3207    -0.6510 H       
  46 H46           -2.8664    -7.5974    -3.9500 H       
  47 H47           -3.5736    -6.0072    -4.3233 H       
  48 H48           -1.8511    -6.3140    -4.6501 H       
@<TRIPOS>BOND
   1    1    2 2
   2    1   11 1
   3    1    5 1
   4    2    3 1
   5    2   14 1
   6    3    4 2
   7    3    8 1
   8    4    5 1
   9    4    6 1
  10    6    7 am
  11    6   26 1
  12    7   10 1
  13    7   19 2
  14    8    9 2
  15    8   20 am
  16   10   15 2
  17   10   18 1
  18   11   12 1
  19   11   27 1
  20   11   28 1
  21   12   13 1
  22   12   29 1
  23   12   30 1
  24   13   14 1
  25   13   31 1
  26   13   32 1
  27   14   33 1
  28   14   34 1
  29   15   16 1
  30   15   35 1
  31   16   17 2
  32   16   36 1
  33   17   18 1
  34   17   37 1
  35   20   24 1
  36   20   38 1
  37   21   22 1
  38   21   39 1
  39   21   40 1
  40   21   41 1
  41   22   23 1
  42   22   25 1
  43   23   24 1
  44   23   42 1
  45   23   43 1
  46   24   44 1
  47   24   45 1
  48   25   46 1
  49   25   47 1
  50   25   48 1

#	End of record

