#	Name: ASD01882377
#	Creating user name:	WinNT
#	Creation time:	15. 06. 2019 19:44

#	Modifying user name:	WinNT
#	Modification time:	15. 06. 2019 19:44

#	Program:	/corina/corina34_cracker 3.40 0067  02.08.2006

@<TRIPOS>MOLECULE
ASD01882377
  54   58    0    0    0
SMALL
NO_CHARGES


@<TRIPOS>ATOM
   1 C1             2.5525     1.6572    -0.3192 C.2     
   2 C2             2.4567     0.2649    -0.4892 C.2     
   3 C3             1.8788    -0.4891     0.4966 C.2     
   4 C4             1.3914     0.1423     1.6612 C.2     
   5 C5             1.4936     1.4784     1.8032 C.2     
   6 N6             2.0679     2.2393     0.8268 N.pl3   
   7 N7             2.8936     3.7577    -0.4590 N.2     
   8 N8             3.0477     2.6332    -1.0650 N.2     
   9 C9             2.3048     3.5759     0.6937 C.2     
  10 N10            1.7720    -1.8702     0.3511 N.pl3   
  11 C11            2.9718    -2.7100     0.2153 C.3     
  12 C12            2.8853    -3.8510     1.2346 C.3     
  13 N13            1.6093    -4.5588     1.0653 N.3     
  14 C14            0.4690    -3.6756     1.3440 C.3     
  15 C15            0.4567    -2.5281     0.3353 C.3     
  16 C16            1.5599    -5.7631     1.9050 C.3     
  17 C17            0.1881    -6.4262     1.7656 C.3     
  18 C18            2.6310    -6.7272     1.4641 C.ar    
  19 C19            2.8101    -6.9937     0.1195 C.ar    
  20 C20            3.7925    -7.8780    -0.2849 C.ar    
  21 C21            4.5962    -8.4956     0.6551 C.ar    
  22 C22            4.4177    -8.2284     1.9996 C.ar    
  23 C23            3.4381    -7.3407     2.4038 C.ar    
  24 F24           -0.0960    -6.6295     0.4109 F       
  25 F25            0.1954    -7.6571     2.4304 F       
  26 F26           -0.7893    -5.5983     2.3280 F       
  27 C27            1.9542     4.6470     1.6942 C.3     
  28 C28            3.1232     4.8437     2.6615 C.3     
  29 C29            3.0098     5.9744     3.6859 C.3     
  30 C30            2.8819     4.5179     4.1368 C.3     
  31 Cl31           3.0630    -0.4885    -1.9309 Cl      
  32 H32            0.9344    -0.4479     2.4417 H       
  33 H33            1.1172     1.9516     2.6981 H       
  34 H34            3.0181    -3.1222    -0.7927 H       
  35 H35            3.8617    -2.1115     0.4104 H       
  36 H36            3.7103    -4.5451     1.0745 H       
  37 H37            2.9437    -3.4426     2.2435 H       
  38 H38           -0.4585    -4.2426     1.2632 H       
  39 H39            0.5610    -3.2697     2.3514 H       
  40 H40           -0.3155    -1.8095     0.6097 H       
  41 H41            0.2565    -2.9225    -0.6609 H       
  42 H42            1.7259    -5.4871     2.9464 H       
  43 H43            2.1822    -6.5112    -0.6149 H       
  44 H44            3.9320    -8.0868    -1.3353 H       
  45 H45            5.3633    -9.1870     0.3392 H       
  46 H46            5.0454    -8.7111     2.7341 H       
  47 H47            3.3011    -7.1292     3.4540 H       
  48 H48            1.7546     5.5819     1.1705 H       
  49 H49            1.0674     4.3466     2.2522 H       
  50 H50            4.1115     4.6311     2.2539 H       
  51 H51            3.9235     6.5054     3.9527 H       
  52 H52            2.1024     6.5781     3.6708 H       
  53 H53            1.8903     4.1634     4.4182 H       
  54 H54            3.7115     4.0907     4.7001 H       
@<TRIPOS>BOND
   1    1    2 1
   2    1    6 1
   3    1    8 2
   4    2    3 2
   5    2   31 1
   6    3    4 1
   7    3   10 1
   8    4    5 2
   9    4   32 1
  10    5    6 1
  11    5   33 1
  12    6    9 1
  13    7    8 1
  14    7    9 2
  15    9   27 1
  16   10   11 1
  17   10   15 1
  18   11   12 1
  19   11   34 1
  20   11   35 1
  21   12   13 1
  22   12   36 1
  23   12   37 1
  24   13   14 1
  25   13   16 1
  26   14   15 1
  27   14   38 1
  28   14   39 1
  29   15   40 1
  30   15   41 1
  31   16   17 1
  32   16   18 1
  33   16   42 1
  34   17   24 1
  35   17   25 1
  36   17   26 1
  37   18   19 ar
  38   18   23 ar
  39   19   20 ar
  40   19   43 1
  41   20   21 ar
  42   20   44 1
  43   21   22 ar
  44   21   45 1
  45   22   23 ar
  46   22   46 1
  47   23   47 1
  48   27   28 1
  49   27   48 1
  50   27   49 1
  51   28   29 1
  52   28   30 1
  53   28   50 1
  54   29   30 1
  55   29   51 1
  56   29   52 1
  57   30   53 1
  58   30   54 1

#	End of record

