#	Name: ASD05213035
#	Creating user name:	WinNT
#	Creation time:	15. 06. 2019 20:57

#	Modifying user name:	WinNT
#	Modification time:	15. 06. 2019 20:57

#	Program:	/corina/corina34_cracker 3.40 0067  02.08.2006

@<TRIPOS>MOLECULE
ASD05213035
  31   34    0    0    0
SMALL
NO_CHARGES


@<TRIPOS>ATOM
   1 S1            -0.0218     1.7577     0.0117 S.3     
   2 C2             0.0021    -0.0041     0.0020 C.2     
   3 N3            -1.0462    -0.7546     0.0080 N.2     
   4 C4            -0.8653    -2.0902    -0.0009 C.ar    
   5 C5             0.4840    -2.4559    -0.0157 C.ar    
   6 S6             1.4587    -0.9881    -0.0248 S.3     
   7 C7            -1.8378    -3.1127     0.0025 C.ar    
   8 C8            -1.4601    -4.4315    -0.0086 C.ar    
   9 C9            -0.1169    -4.7815    -0.0233 C.ar    
  10 C10            0.8501    -3.7996    -0.0264 C.ar    
  11 C11            1.7090     2.0873    -0.0030 C.2     
  12 N12            2.2995     3.3206    -0.0021 N.pl3   
  13 C13            3.6550     3.0828    -0.0163 C.2     
  14 N14            3.8164     1.7774    -0.0249 N.2     
  15 N15            2.6714     1.1942    -0.0113 N.2     
  16 C16            4.7217     4.0968    -0.0218 C.2     
  17 Cl17           0.3446    -6.4550    -0.0372 Cl      
  18 C18            1.6291     4.6232     0.0109 C.3     
  19 S19            4.4990     5.8038    -0.3825 S.3     
  20 C20            6.2137     6.1106    -0.1418 C.2     
  21 C21            6.8362     4.9727     0.1812 C.2     
  22 C22            6.0229     3.8620     0.2552 C.2     
  23 H23           -2.8866    -2.8553     0.0142 H       
  24 H24           -2.2145    -5.2044    -0.0055 H       
  25 H25            1.8949    -4.0728    -0.0379 H       
  26 H26            1.4728     4.9411     1.0417 H       
  27 H27            2.2492     5.3561    -0.5052 H       
  28 H28            0.6666     4.5416    -0.4941 H       
  29 H29            6.6920     7.0739    -0.2402 H       
  30 H30            7.8979     4.9275     0.3743 H       
  31 H31            6.3977     2.8807     0.5062 H       
@<TRIPOS>BOND
   1    1    2 1
   2    1   11 1
   3    2    3 2
   4    2    6 1
   5    3    4 1
   6    4    5 ar
   7    4    7 ar
   8    5    6 1
   9    5   10 ar
  10    7    8 ar
  11    7   23 1
  12    8    9 ar
  13    8   24 1
  14    9   10 ar
  15    9   17 1
  16   10   25 1
  17   11   12 1
  18   11   15 2
  19   12   13 1
  20   12   18 1
  21   13   14 2
  22   13   16 1
  23   14   15 1
  24   16   19 1
  25   16   22 2
  26   18   26 1
  27   18   27 1
  28   18   28 1
  29   19   20 1
  30   20   21 2
  31   20   29 1
  32   21   22 1
  33   21   30 1
  34   22   31 1

#	End of record

