#	Name: ASD00960262
#	Creating user name:	WinNT
#	Creation time:	15. 06. 2019 18:53

#	Modifying user name:	WinNT
#	Modification time:	15. 06. 2019 18:53

#	Program:	/corina/corina34_cracker 3.40 0067  02.08.2006

@<TRIPOS>MOLECULE
ASD00960262
  34   36    0    0    0
SMALL
NO_CHARGES


@<TRIPOS>ATOM
   1 C1            -0.0167     1.3833     0.0096 C.2     
   2 C2             0.0021    -0.0041     0.0020 C.2     
   3 N3             1.2814     1.8105    -0.0005 N.pl3   
   4 C4             2.0976     0.7201     0.0003 C.2     
   5 C5             1.3468    -0.3955    -0.0055 C.2     
   6 N6             1.8003     3.1139     0.0034 N.2     
   7 C7             3.0679     3.2752    -0.2332 C.2     
   8 N8             3.8942     2.2118    -0.5250 N.pl3   
   9 C9             3.6022     0.8729     0.0185 C.3     
  10 N10            4.1024     0.7686     1.3957 N.3     
  11 I11           -1.6650    -1.2729     0.0018 I       
  12 C12           -1.2074     2.2327     0.0202 C.2     
  13 O13           -2.3143     1.7283     0.0234 O.2     
  14 O14           -1.0779     3.5756     0.0263 O.3     
  15 C15           -2.2830     4.3435     0.0365 C.3     
  16 C16           -1.9432     5.8117     0.0422 C.ar    
  17 C17           -1.7935     6.4911    -1.1523 C.ar    
  18 C18           -1.4817     7.8378    -1.1471 C.ar    
  19 C19           -1.3200     8.5052     0.0526 C.ar    
  20 C20           -1.4705     7.8260     1.2472 C.ar    
  21 C21           -1.7866     6.4802     1.2420 C.ar    
  22 H22            1.7147    -1.4109    -0.0140 H       
  23 H23            3.4853     4.2708    -0.2005 H       
  24 H24            4.6713     2.3449    -1.0900 H       
  25 H25            4.0627     0.1076    -0.6063 H       
  26 H26            5.1000     0.9158     1.4302 H       
  27 H27            3.6207     1.4125     2.0052 H       
  28 H28           -2.8702     4.1099    -0.8516 H       
  29 H29           -2.8609     4.1009     0.9283 H       
  30 H30           -1.9199     5.9697    -2.0896 H       
  31 H31           -1.3641     8.3685    -2.0803 H       
  32 H32           -1.0757     9.5572     0.0567 H       
  33 H33           -1.3438     8.3473     2.1845 H       
  34 H34           -1.9079     5.9504     2.1752 H       
@<TRIPOS>BOND
   1    1    2 2
   2    1    3 1
   3    1   12 1
   4    2   11 1
   5    2    5 1
   6    3    4 1
   7    3    6 1
   8    4    5 2
   9    4    9 1
  10    5   22 1
  11    6    7 2
  12    7    8 1
  13    7   23 1
  14    8    9 1
  15    8   24 1
  16    9   10 1
  17    9   25 1
  18   10   26 1
  19   10   27 1
  20   12   13 2
  21   12   14 1
  22   14   15 1
  23   15   16 1
  24   15   28 1
  25   15   29 1
  26   16   17 ar
  27   16   21 ar
  28   17   18 ar
  29   17   30 1
  30   18   19 ar
  31   18   31 1
  32   19   20 ar
  33   19   32 1
  34   20   21 ar
  35   20   33 1
  36   21   34 1

#	End of record

