#	Name: ASD01140681
#	Creating user name:	WinNT
#	Creation time:	15. 06. 2019 19:01

#	Modifying user name:	WinNT
#	Modification time:	15. 06. 2019 19:01

#	Program:	/corina/corina34_cracker 3.40 0067  02.08.2006

@<TRIPOS>MOLECULE
ASD01140681
  39   42    0    0    0
SMALL
NO_CHARGES


@<TRIPOS>ATOM
   1 N1            -0.0161     1.3387     0.0094 N.pl3   
   2 C2             0.0021    -0.0041     0.0020 C.2     
   3 C3             1.1791    -0.7099    -0.0130 C.2     
   4 C4             2.4648     0.0244    -0.0213 C.2     
   5 C5             2.4001     1.4980    -0.0132 C.ar    
   6 C6             3.5552     2.2748    -0.0198 C.ar    
   7 C7             3.4556     3.6493    -0.0117 C.ar    
   8 C8             2.2052     4.2589     0.0036 C.ar    
   9 C9             1.0507     3.4953     0.0103 C.ar    
  10 C10            1.1344     2.1083     0.0025 C.ar    
  11 N11            2.8977    -2.1590    -0.0365 N.am    
  12 N12            3.4184    -0.8626    -0.0347 N.2     
  13 C13            1.5477    -2.1223    -0.0236 C.2     
  14 O14            0.7886    -3.0778    -0.0208 O.2     
  15 C15            3.6665    -3.3304    -0.0496 C.ar    
  16 C16            5.0530    -3.2514    -0.0617 C.ar    
  17 C17            5.8098    -4.4060    -0.0747 C.ar    
  18 C18            5.1856    -5.6451    -0.0762 C.ar    
  19 C19            3.8006    -5.7249    -0.0641 C.ar    
  20 C20            3.0424    -4.5711    -0.0449 C.ar    
  21 O21            5.9316    -6.7816    -0.0899 O.3     
  22 C22            5.2231    -8.0226    -0.0906 C.3     
  23 H23            4.5884    -8.0782    -0.9750 H       
  24 H24            5.9354    -8.8476    -0.1022 H       
  25 H25            4.6051    -8.0887     0.8048 H       
  26 O26            2.1165     5.6146     0.0124 O.3     
  27 C27            3.3446     6.3451     0.0053 C.3     
  28 H28           -0.8748     1.7899     0.0158 H       
  29 H29           -0.9340    -0.5427     0.0084 H       
  30 H30            4.5261     1.8019    -0.0310 H       
  31 H31            4.3502     4.2544    -0.0168 H       
  32 H32            0.0845     3.9777     0.0222 H       
  33 H33            5.5390    -2.2869    -0.0613 H       
  34 H34            6.8880    -4.3447    -0.0841 H       
  35 H35            3.3154    -6.6897    -0.0657 H       
  36 H36            1.9643    -4.6334    -0.0307 H       
  37 H37            3.9278     6.0840     0.8883 H       
  38 H38            3.9112     6.0945    -0.8915 H       
  39 H39            3.1315     7.4141     0.0136 H       
@<TRIPOS>BOND
   1    1    2 1
   2    1   10 1
   3    1   28 1
   4    2    3 2
   5    2   29 1
   6    3    4 1
   7    3   13 1
   8    4    5 1
   9    4   12 2
  10    5    6 ar
  11    5   10 ar
  12    6    7 ar
  13    6   30 1
  14    7    8 ar
  15    7   31 1
  16    8    9 ar
  17    8   26 1
  18    9   10 ar
  19    9   32 1
  20   11   12 1
  21   11   13 am
  22   11   15 1
  23   13   14 2
  24   15   16 ar
  25   15   20 ar
  26   16   17 ar
  27   16   33 1
  28   17   18 ar
  29   17   34 1
  30   18   19 ar
  31   18   21 1
  32   19   20 ar
  33   19   35 1
  34   20   36 1
  35   21   22 1
  36   22   23 1
  37   22   24 1
  38   22   25 1
  39   26   27 1
  40   27   37 1
  41   27   38 1
  42   27   39 1

#	End of record

