#	Name: ASD01841046
#	Creating user name:	WinNT
#	Creation time:	15. 06. 2019 19:38

#	Modifying user name:	WinNT
#	Modification time:	15. 06. 2019 19:38

#	Program:	/corina/corina34_cracker 3.40 0067  02.08.2006

@<TRIPOS>MOLECULE
ASD01841046
  36   38    0    0    0
SMALL
NO_CHARGES


@<TRIPOS>ATOM
   1 C1            -0.0172     1.3436    -0.0002 C.2     
   2 N2             0.0021    -0.0041     0.0020 N.am    
   3 O3             1.0269     1.9663    -0.0071 O.2     
   4 N4            -1.1938     2.0007    -0.0003 N.am    
   5 S5            -2.6711     4.3695    -0.0029 S.3     
   6 C6            -1.2136     3.3864    -0.0025 C.2     
   7 N7            -0.1674     4.1364    -0.0041 N.2     
   8 C8            -0.3489     5.4726    -0.0058 C.ar    
   9 C9            -1.6971     5.8378    -0.0054 C.ar    
  10 C10           -2.0643     7.1825    -0.0070 C.ar    
  11 C11           -1.1005     8.1659    -0.0093 C.ar    
  12 C12            0.2427     7.8210    -0.0097 C.ar    
  13 C13            0.6254     6.4985    -0.0084 C.ar    
  14 C14           -3.5228     7.5617    -0.0066 C.3     
  15 O15            1.9461     6.1768    -0.0084 O.3     
  16 C16            2.8778     7.2603    -0.0112 C.3     
  17 C17            1.2141    -0.6847    -0.1185 C.ar    
  18 C18            1.4253    -1.8920     0.5455 C.ar    
  19 C19            2.6377    -2.5337     0.4004 C.ar    
  20 N20            3.5898    -2.0184    -0.3544 N.ar    
  21 C21            3.4283    -0.8780    -0.9987 C.ar    
  22 C22            2.2431    -0.1778    -0.9107 C.ar    
  23 H23           -0.8267    -0.5008     0.0874 H       
  24 H24           -2.0269     1.5038     0.0012 H       
  25 H25           -1.3907     9.2062    -0.0112 H       
  26 H26            0.9947     8.5962    -0.0115 H       
  27 H27           -3.8739     7.6545     1.0212 H       
  28 H28           -3.6509     8.5138    -0.5216 H       
  29 H29           -4.0987     6.7911    -0.5190 H       
  30 H30            3.8939     6.8658    -0.0108 H       
  31 H31            2.7247     7.8689    -0.9024 H       
  32 H32            2.7256     7.8727     0.8775 H       
  33 H33            0.6506    -2.3189     1.1653 H       
  34 H34            2.8102    -3.4696     0.9111 H       
  35 H35            4.2327    -0.4904    -1.6063 H       
  36 H36            2.1175     0.7549    -1.4406 H       
@<TRIPOS>BOND
   1    1    2 am
   2    1    3 2
   3    1    4 am
   4    2   17 1
   5    2   23 1
   6    4    6 1
   7    4   24 1
   8    5    6 1
   9    5    9 1
  10    6    7 2
  11    7    8 1
  12    8    9 ar
  13    8   13 ar
  14    9   10 ar
  15   10   11 ar
  16   10   14 1
  17   11   12 ar
  18   11   25 1
  19   12   13 ar
  20   12   26 1
  21   13   15 1
  22   14   27 1
  23   14   28 1
  24   14   29 1
  25   15   16 1
  26   16   30 1
  27   16   31 1
  28   16   32 1
  29   17   18 ar
  30   17   22 ar
  31   18   19 ar
  32   18   33 1
  33   19   20 ar
  34   19   34 1
  35   20   21 ar
  36   21   22 ar
  37   21   35 1
  38   22   36 1

#	End of record

