#	Name: ASD01882468
#	Creating user name:	WinNT
#	Creation time:	15. 06. 2019 19:44

#	Modifying user name:	WinNT
#	Modification time:	15. 06. 2019 19:44

#	Program:	/corina/corina34_cracker 3.40 0067  02.08.2006

@<TRIPOS>MOLECULE
ASD01882468
  58   62    0    0    0
SMALL
NO_CHARGES


@<TRIPOS>ATOM
   1 C1             0.1750     1.3985     0.5626 C.2     
   2 C2            -0.0299     0.0662     0.1551 C.2     
   3 C3             0.9718    -0.5936    -0.4864 C.2     
   4 C4             2.1916     0.0598    -0.7325 C.2     
   5 C5             2.3737     1.3367    -0.3356 C.2     
   6 N6             1.3779     2.0105     0.3081 N.pl3   
   7 N7             0.0732     3.3842     1.3297 N.2     
   8 N8            -0.5828     2.2867     1.1848 N.2     
   9 C9             1.2695     3.2691     0.8135 C.2     
  10 C10           -1.3434    -0.6206     0.4268 C.3     
  11 F11           -1.2138    -1.4484     1.5471 F       
  12 F12           -2.3309     0.3404     0.6689 F       
  13 F13           -1.7050    -1.3914    -0.6832 F       
  14 C14            0.7746    -2.0199    -0.9310 C.3     
  15 N15            0.3218    -2.0391    -2.3284 N.3     
  16 C16            0.3458    -3.4046    -2.8710 C.3     
  17 C17           -0.2065    -3.3932    -4.2984 C.3     
  18 N18            0.6010    -2.4864    -5.1261 N.3     
  19 C19            0.5771    -1.1209    -4.5834 C.3     
  20 C20            1.1294    -1.1323    -3.1561 C.3     
  21 C21            0.1697    -2.5046    -6.4575 C.ar    
  22 C22            0.2843    -3.6699    -7.2131 C.ar    
  23 C23           -0.1445    -3.6824    -8.5296 C.ar    
  24 C24           -0.6848    -2.5400    -9.0922 C.ar    
  25 C25           -0.7984    -1.3837    -8.3437 C.ar    
  26 C26           -0.3782    -1.3647    -7.0265 C.ar    
  27 O27            0.8165    -4.7922    -6.6589 O.3     
  28 C28            0.9027    -5.9494    -7.4929 C.3     
  29 C29            2.3328     4.3366     0.7819 C.3     
  30 C30            2.1874     5.1636    -0.4971 C.3     
  31 C31            3.1046     6.3771    -0.6618 C.3     
  32 C32            3.3408     5.1200    -1.5015 C.3     
  33 H33            2.9876    -0.4631    -1.2417 H       
  34 H34            3.3152     1.8290    -0.5296 H       
  35 H35            1.7175    -2.5603    -0.8471 H       
  36 H36            0.0250    -2.4970    -0.2996 H       
  37 H37            1.3712    -3.7741    -2.8808 H       
  38 H38           -0.2693    -4.0542    -2.2483 H       
  39 H39           -0.1628    -4.4002    -4.7133 H       
  40 H40           -1.2409    -3.0495    -4.2854 H       
  41 H41            1.1922    -0.4713    -5.2062 H       
  42 H42           -0.4483    -0.7514    -4.5737 H       
  43 H43            1.0857    -0.1253    -2.7412 H       
  44 H44            2.1637    -1.4760    -3.1691 H       
  45 H45           -0.0569    -4.5841    -9.1174 H       
  46 H46           -1.0184    -2.5515   -10.1194 H       
  47 H47           -1.2201    -0.4940    -8.7874 H       
  48 H48           -0.4722    -0.4612    -6.4425 H       
  49 H49            1.3443    -6.7713    -6.9294 H       
  50 H50           -0.0958    -6.2324    -7.8260 H       
  51 H51            1.5254    -5.7271    -8.3595 H       
  52 H52            2.2209     4.9867     1.6496 H       
  53 H53            3.3174     3.8694     0.8025 H       
  54 H54            1.1756     5.2398    -0.8952 H       
  55 H55            2.6963     7.2515    -1.1686 H       
  56 H56            3.8116     6.5862     0.1410 H       
  57 H57            4.2031     4.5022    -1.2511 H       
  58 H58            3.0878     5.1675    -2.5607 H       
@<TRIPOS>BOND
   1    1    2 1
   2    1    6 1
   3    1    8 2
   4    2    3 2
   5    2   10 1
   6    3    4 1
   7    3   14 1
   8    4    5 2
   9    4   33 1
  10    5    6 1
  11    5   34 1
  12    6    9 1
  13    7    8 1
  14    7    9 2
  15    9   29 1
  16   10   11 1
  17   10   12 1
  18   10   13 1
  19   14   15 1
  20   14   35 1
  21   14   36 1
  22   15   16 1
  23   15   20 1
  24   16   17 1
  25   16   37 1
  26   16   38 1
  27   17   18 1
  28   17   39 1
  29   17   40 1
  30   18   19 1
  31   18   21 1
  32   19   20 1
  33   19   41 1
  34   19   42 1
  35   20   43 1
  36   20   44 1
  37   21   22 ar
  38   21   26 ar
  39   22   23 ar
  40   22   27 1
  41   23   24 ar
  42   23   45 1
  43   24   25 ar
  44   24   46 1
  45   25   26 ar
  46   25   47 1
  47   26   48 1
  48   27   28 1
  49   28   49 1
  50   28   50 1
  51   28   51 1
  52   29   30 1
  53   29   52 1
  54   29   53 1
  55   30   31 1
  56   30   32 1
  57   30   54 1
  58   31   32 1
  59   31   55 1
  60   31   56 1
  61   32   57 1
  62   32   58 1

#	End of record

